MODEL 1
REMARK VINA RESULT:   -14.220      0.000      0.000
REMARK INTER + INTRA:         -19.735
REMARK INTER:                 -17.800
REMARK INTRA:                  -1.935
REMARK CONF_INDEPENDENT:        3.580
REMARK UNBOUND:                -1.935
REMARK  12 active torsions:
REMARK  status: ('A' for Active; 'I' for Inactive)
REMARK    1  A    between atoms: C2_2  and  C4_4 
REMARK    2  A    between atoms: C4_4  and  C5_5 
REMARK    3  A    between atoms: C5_5  and  C6_6 
REMARK    4  A    between atoms: C7_7  and  O1_8 
REMARK    5  A    between atoms: O1_8  and  C8_9 
REMARK    6  A    between atoms: C8_9  and  C9_10 
REMARK    7  A    between atoms: C9_10  and  C10_11 
REMARK    8  A    between atoms: C10_11  and  C11_12 
REMARK    9  A    between atoms: C11_12  and  C12_13 
REMARK   10  A    between atoms: C12_13  and  C13_14 
REMARK   11  A    between atoms: C13_14  and  C14_15 
REMARK       I    between atoms: C14_15  and  N1_17 
REMARK   12  A    between atoms: N1_17  and  O3_18 
ROOT
ATOM      1  C6  NON d   1     -40.157  21.714  -5.020  0.00  0.00     0.010 A 
ATOM      2  C7  NON d   1     -40.292  20.391  -4.518  0.00  0.00     0.077 A 
ATOM      3  C15 NON d   1     -40.340  19.316  -5.428  0.00  0.00     0.038 A 
ATOM      4  C16 NON d   1     -40.252  19.500  -6.808  0.00  0.00     0.017 A 
ATOM      5  C17 NON d   1     -40.115  20.782  -7.321  0.00  0.00    -0.001 A 
ATOM      6  C18 NON d   1     -40.017  21.015  -8.756  0.00  0.00     0.020 A 
ATOM      7  C19 NON d   1     -39.881  22.258  -9.229  0.00  0.00     0.083 A 
ATOM      8  C20 NON d   1     -39.837  23.425  -8.339  0.00  0.00     0.288 A 
ATOM      9  O4  NON d   1     -39.695  24.558  -8.784  0.00  0.00    -0.260 OA
ATOM     10  O5  NON d   1     -39.956  23.163  -6.983  0.00  0.00    -0.274 OA
ATOM     11  C21 NON d   1     -40.075  21.861  -6.430  0.00  0.00     0.098 A 
ENDROOT
BRANCH   2  12
ATOM     12  O1  NON d   1     -40.418  19.917  -3.229  0.00  0.00    -0.350 OA
BRANCH  12  13
ATOM     13  C8  NON d   1     -39.748  18.744  -2.785  0.00  0.00     0.175 C 
BRANCH  13  14
ATOM     14  C9  NON d   1     -40.722  17.615  -2.434  0.00  0.00     0.027 C 
BRANCH  14  15
ATOM     15  C10 NON d   1     -42.198  17.936  -2.701  0.00  0.00     0.002 C 
BRANCH  15  16
ATOM     16  C11 NON d   1     -42.599  17.759  -4.162  0.00  0.00     0.001 C 
BRANCH  16  17
ATOM     17  C12 NON d   1     -43.691  16.697  -4.369  0.00  0.00     0.009 C 
BRANCH  17  18
ATOM     18  C13 NON d   1     -45.120  17.196  -4.140  0.00  0.00     0.105 C 
BRANCH  18  19
ATOM     19  C14 NON d   1     -46.105  16.936  -5.269  0.00  0.00     0.240 C 
ATOM     20  O2  NON d   1     -46.319  17.722  -6.188  0.00  0.00    -0.271 OA
ATOM     21  N1  NON d   1     -46.786  15.745  -5.084  0.00  0.00    -0.237 N 
ATOM     22  H24 NON d   1     -46.357  15.002  -4.541  0.00  0.00     0.197 HD
BRANCH  21  23
ATOM     23  O3  NON d   1     -47.562  15.310  -6.181  0.00  0.00    -0.287 OA
ATOM     24  H25 NON d   1     -47.690  16.136  -6.684  0.00  0.00     0.244 HD
ENDBRANCH  21  23
ENDBRANCH  18  19
ENDBRANCH  17  18
ENDBRANCH  16  17
ENDBRANCH  15  16
ENDBRANCH  14  15
ENDBRANCH  13  14
ENDBRANCH  12  13
ENDBRANCH   2  12
BRANCH   1  25
ATOM     25  C5  NON d   1     -40.171  22.921  -4.104  0.00  0.00     0.044 C 
BRANCH  25  26
ATOM     26  C4  NON d   1     -40.885  22.930  -2.730  0.00  0.00     0.009 C 
BRANCH  26  27
ATOM     27  C2  NON d   1     -40.071  23.278  -1.471  0.00  0.00    -0.023 C 
ATOM     28  C1  NON d   1     -39.948  21.828  -0.814  0.00  0.00     0.009 C 
ATOM     29  C3  NON d   1     -41.083  24.291  -0.777  0.00  0.00     0.009 C 
ENDBRANCH  26  27
ENDBRANCH  25  26
ENDBRANCH   1  25
TORSDOF 12
ENDMDL
MODEL 2
REMARK VINA RESULT:   -14.115      2.179      5.316
REMARK INTER + INTRA:         -19.618
REMARK INTER:                 -17.695
REMARK INTRA:                  -1.923
REMARK CONF_INDEPENDENT:        3.580
REMARK UNBOUND:                -1.923
REMARK  12 active torsions:
REMARK  status: ('A' for Active; 'I' for Inactive)
REMARK    1  A    between atoms: C2_2  and  C4_4 
REMARK    2  A    between atoms: C4_4  and  C5_5 
REMARK    3  A    between atoms: C5_5  and  C6_6 
REMARK    4  A    between atoms: C7_7  and  O1_8 
REMARK    5  A    between atoms: O1_8  and  C8_9 
REMARK    6  A    between atoms: C8_9  and  C9_10 
REMARK    7  A    between atoms: C9_10  and  C10_11 
REMARK    8  A    between atoms: C10_11  and  C11_12 
REMARK    9  A    between atoms: C11_12  and  C12_13 
REMARK   10  A    between atoms: C12_13  and  C13_14 
REMARK   11  A    between atoms: C13_14  and  C14_15 
REMARK       I    between atoms: C14_15  and  N1_17 
REMARK   12  A    between atoms: N1_17  and  O3_18 
ROOT
ATOM      1  C6  NON d   1     -40.370  22.865  -2.030  0.00  0.00     0.010 A 
ATOM      2  C7  NON d   1     -40.004  21.502  -1.858  0.00  0.00     0.077 A 
ATOM      3  C15 NON d   1     -39.900  20.982  -0.552  0.00  0.00     0.038 A 
ATOM      4  C16 NON d   1     -40.152  21.755   0.582  0.00  0.00     0.017 A 
ATOM      5  C17 NON d   1     -40.516  23.085   0.439  0.00  0.00    -0.001 A 
ATOM      6  C18 NON d   1     -40.789  23.923   1.599  0.00  0.00     0.020 A 
ATOM      7  C19 NON d   1     -41.143  25.202   1.437  0.00  0.00     0.083 A 
ATOM      8  C20 NON d   1     -41.257  25.813   0.107  0.00  0.00     0.288 A 
ATOM      9  O4  NON d   1     -41.599  26.982  -0.028  0.00  0.00    -0.260 OA
ATOM     10  O5  NON d   1     -40.966  24.989  -0.970  0.00  0.00    -0.274 OA
ATOM     11  C21 NON d   1     -40.613  23.619  -0.852  0.00  0.00     0.098 A 
ENDROOT
BRANCH   2  12
ATOM     12  O1  NON d   1     -39.684  20.524  -2.777  0.00  0.00    -0.350 OA
BRANCH  12  13
ATOM     13  C8  NON d   1     -40.261  19.225  -2.731  0.00  0.00     0.175 C 
BRANCH  13  14
ATOM     14  C9  NON d   1     -40.436  18.618  -4.126  0.00  0.00     0.027 C 
BRANCH  14  15
ATOM     15  C10 NON d   1     -41.892  18.493  -4.593  0.00  0.00     0.002 C 
BRANCH  15  16
ATOM     16  C11 NON d   1     -42.820  17.919  -3.528  0.00  0.00     0.001 C 
BRANCH  16  17
ATOM     17  C12 NON d   1     -43.788  16.857  -4.072  0.00  0.00     0.009 C 
BRANCH  17  18
ATOM     18  C13 NON d   1     -45.269  17.238  -3.988  0.00  0.00     0.105 C 
BRANCH  18  19
ATOM     19  C14 NON d   1     -46.115  16.900  -5.205  0.00  0.00     0.240 C 
ATOM     20  O2  NON d   1     -46.229  17.631  -6.185  0.00  0.00    -0.271 OA
ATOM     21  N1  NON d   1     -46.799  15.709  -5.032  0.00  0.00    -0.237 N 
ATOM     22  H24 NON d   1     -46.428  15.004  -4.404  0.00  0.00     0.197 HD
BRANCH  21  23
ATOM     23  O3  NON d   1     -47.439  15.201  -6.185  0.00  0.00    -0.287 OA
ATOM     24  H25 NON d   1     -47.171  15.843  -6.870  0.00  0.00     0.244 HD
ENDBRANCH  21  23
ENDBRANCH  18  19
ENDBRANCH  17  18
ENDBRANCH  16  17
ENDBRANCH  15  16
ENDBRANCH  14  15
ENDBRANCH  13  14
ENDBRANCH  12  13
ENDBRANCH   2  12
BRANCH   1  25
ATOM     25  C5  NON d   1     -40.430  23.508  -3.401  0.00  0.00     0.044 C 
BRANCH  25  26
ATOM     26  C4  NON d   1     -40.909  22.756  -4.667  0.00  0.00     0.009 C 
BRANCH  26  27
ATOM     27  C2  NON d   1     -39.860  22.250  -5.674  0.00  0.00    -0.023 C 
ATOM     28  C1  NON d   1     -39.752  23.528  -6.624  0.00  0.00     0.009 C 
ATOM     29  C3  NON d   1     -40.643  20.994  -6.257  0.00  0.00     0.009 C 
ENDBRANCH  26  27
ENDBRANCH  25  26
ENDBRANCH   1  25
TORSDOF 12
ENDMDL
MODEL 3
REMARK VINA RESULT:   -14.082      2.361      4.048
REMARK INTER + INTRA:         -19.307
REMARK INTER:                 -17.662
REMARK INTRA:                  -1.645
REMARK CONF_INDEPENDENT:        3.580
REMARK UNBOUND:                -1.645
REMARK  12 active torsions:
REMARK  status: ('A' for Active; 'I' for Inactive)
REMARK    1  A    between atoms: C2_2  and  C4_4 
REMARK    2  A    between atoms: C4_4  and  C5_5 
REMARK    3  A    between atoms: C5_5  and  C6_6 
REMARK    4  A    between atoms: C7_7  and  O1_8 
REMARK    5  A    between atoms: O1_8  and  C8_9 
REMARK    6  A    between atoms: C8_9  and  C9_10 
REMARK    7  A    between atoms: C9_10  and  C10_11 
REMARK    8  A    between atoms: C10_11  and  C11_12 
REMARK    9  A    between atoms: C11_12  and  C12_13 
REMARK   10  A    between atoms: C12_13  and  C13_14 
REMARK   11  A    between atoms: C13_14  and  C14_15 
REMARK       I    between atoms: C14_15  and  N1_17 
REMARK   12  A    between atoms: N1_17  and  O3_18 
ROOT
ATOM      1  C6  NON d   1     -39.712  20.756  -8.082  0.00  0.00     0.010 A 
ATOM      2  C7  NON d   1     -39.891  21.253  -6.762  0.00  0.00     0.077 A 
ATOM      3  C15 NON d   1     -39.957  22.647  -6.560  0.00  0.00     0.038 A 
ATOM      4  C16 NON d   1     -39.863  23.560  -7.611  0.00  0.00     0.017 A 
ATOM      5  C17 NON d   1     -39.693  23.097  -8.908  0.00  0.00    -0.001 A 
ATOM      6  C18 NON d   1     -39.592  24.019 -10.031  0.00  0.00     0.020 A 
ATOM      7  C19 NON d   1     -39.433  23.552 -11.274  0.00  0.00     0.083 A 
ATOM      8  C20 NON d   1     -39.343  22.114 -11.555  0.00  0.00     0.288 A 
ATOM      9  O4  NON d   1     -39.214  21.698 -12.701  0.00  0.00    -0.260 OA
ATOM     10  O5  NON d   1     -39.419  21.271 -10.457  0.00  0.00    -0.274 OA
ATOM     11  C21 NON d   1     -39.615  21.717  -9.123  0.00  0.00     0.098 A 
ENDROOT
BRANCH   2  12
ATOM     12  O1  NON d   1     -39.996  20.600  -5.552  0.00  0.00    -0.350 OA
BRANCH  12  13
ATOM     13  C8  NON d   1     -40.616  19.326  -5.430  0.00  0.00     0.175 C 
BRANCH  13  14
ATOM     14  C9  NON d   1     -40.237  18.618  -4.125  0.00  0.00     0.027 C 
BRANCH  14  15
ATOM     15  C10 NON d   1     -41.360  17.782  -3.501  0.00  0.00     0.002 C 
BRANCH  15  16
ATOM     16  C11 NON d   1     -42.746  18.147  -4.022  0.00  0.00     0.001 C 
BRANCH  16  17
ATOM     17  C12 NON d   1     -43.665  16.929  -4.213  0.00  0.00     0.009 C 
BRANCH  17  18
ATOM     18  C13 NON d   1     -45.158  17.221  -4.033  0.00  0.00     0.105 C 
BRANCH  18  19
ATOM     19  C14 NON d   1     -46.047  16.903  -5.225  0.00  0.00     0.240 C 
ATOM     20  O2  NON d   1     -46.191  17.647  -6.191  0.00  0.00    -0.271 OA
ATOM     21  N1  NON d   1     -46.732  15.714  -5.043  0.00  0.00    -0.237 N 
ATOM     22  H24 NON d   1     -46.345  15.000  -4.436  0.00  0.00     0.197 HD
BRANCH  21  23
ATOM     23  O3  NON d   1     -47.416  15.225  -6.179  0.00  0.00    -0.287 OA
ATOM     24  H25 NON d   1     -47.108  15.829  -6.881  0.00  0.00     0.244 HD
ENDBRANCH  21  23
ENDBRANCH  18  19
ENDBRANCH  17  18
ENDBRANCH  16  17
ENDBRANCH  15  16
ENDBRANCH  14  15
ENDBRANCH  13  14
ENDBRANCH  12  13
ENDBRANCH   2  12
BRANCH   1  25
ATOM     25  C5  NON d   1     -39.559  19.275  -8.363  0.00  0.00     0.044 C 
BRANCH  25  26
ATOM     26  C4  NON d   1     -38.185  18.590  -8.562  0.00  0.00     0.009 C 
BRANCH  26  27
ATOM     27  C2  NON d   1     -36.972  19.110  -7.769  0.00  0.00    -0.023 C 
ATOM     28  C1  NON d   1     -37.552  19.012  -6.284  0.00  0.00     0.009 C 
ATOM     29  C3  NON d   1     -36.859  20.569  -8.393  0.00  0.00     0.009 C 
ENDBRANCH  26  27
ENDBRANCH  25  26
ENDBRANCH   1  25
TORSDOF 12
ENDMDL
MODEL 4
REMARK VINA RESULT:   -13.998      1.505      4.245
REMARK INTER + INTRA:         -19.795
REMARK INTER:                 -17.577
REMARK INTRA:                  -2.218
REMARK CONF_INDEPENDENT:        3.580
REMARK UNBOUND:                -2.218
REMARK  12 active torsions:
REMARK  status: ('A' for Active; 'I' for Inactive)
REMARK    1  A    between atoms: C2_2  and  C4_4 
REMARK    2  A    between atoms: C4_4  and  C5_5 
REMARK    3  A    between atoms: C5_5  and  C6_6 
REMARK    4  A    between atoms: C7_7  and  O1_8 
REMARK    5  A    between atoms: O1_8  and  C8_9 
REMARK    6  A    between atoms: C8_9  and  C9_10 
REMARK    7  A    between atoms: C9_10  and  C10_11 
REMARK    8  A    between atoms: C10_11  and  C11_12 
REMARK    9  A    between atoms: C11_12  and  C12_13 
REMARK   10  A    between atoms: C12_13  and  C13_14 
REMARK   11  A    between atoms: C13_14  and  C14_15 
REMARK       I    between atoms: C14_15  and  N1_17 
REMARK   12  A    between atoms: N1_17  and  O3_18 
ROOT
ATOM      1  C6  NON d   1     -40.269  21.157  -4.312  0.00  0.00     0.010 A 
ATOM      2  C7  NON d   1     -39.927  20.083  -3.446  0.00  0.00     0.077 A 
ATOM      3  C15 NON d   1     -39.766  20.339  -2.070  0.00  0.00     0.038 A 
ATOM      4  C16 NON d   1     -39.937  21.611  -1.521  0.00  0.00     0.017 A 
ATOM      5  C17 NON d   1     -40.275  22.673  -2.347  0.00  0.00    -0.001 A 
ATOM      6  C18 NON d   1     -40.465  24.015  -1.811  0.00  0.00     0.020 A 
ATOM      7  C19 NON d   1     -40.796  25.024  -2.623  0.00  0.00     0.083 A 
ATOM      8  C20 NON d   1     -40.967  24.831  -4.068  0.00  0.00     0.288 A 
ATOM      9  O4  NON d   1     -41.287  25.761  -4.800  0.00  0.00    -0.260 OA
ATOM     10  O5  NON d   1     -40.755  23.545  -4.542  0.00  0.00    -0.274 OA
ATOM     11  C21 NON d   1     -40.430  22.436  -3.717  0.00  0.00     0.098 A 
ENDROOT
BRANCH   2  12
ATOM     12  O1  NON d   1     -39.682  18.750  -3.705  0.00  0.00    -0.350 OA
BRANCH  12  13
ATOM     13  C8  NON d   1     -40.033  17.724  -2.785  0.00  0.00     0.175 C 
BRANCH  13  14
ATOM     14  C9  NON d   1     -41.548  17.618  -2.583  0.00  0.00     0.027 C 
BRANCH  14  15
ATOM     15  C10 NON d   1     -42.339  17.255  -3.845  0.00  0.00     0.002 C 
BRANCH  15  16
ATOM     16  C11 NON d   1     -42.652  18.458  -4.729  0.00  0.00     0.001 C 
BRANCH  16  17
ATOM     17  C12 NON d   1     -44.157  18.666  -4.964  0.00  0.00     0.009 C 
BRANCH  17  18
ATOM     18  C13 NON d   1     -45.040  17.495  -4.523  0.00  0.00     0.105 C 
BRANCH  18  19
ATOM     19  C14 NON d   1     -46.117  17.065  -5.507  0.00  0.00     0.240 C 
ATOM     20  O2  NON d   1     -46.550  17.780  -6.406  0.00  0.00    -0.271 OA
ATOM     21  N1  NON d   1     -46.600  15.802  -5.209  0.00  0.00    -0.237 N 
ATOM     22  H24 NON d   1     -46.009  15.143  -4.712  0.00  0.00     0.197 HD
BRANCH  21  23
ATOM     23  O3  NON d   1     -47.444  15.226  -6.185  0.00  0.00    -0.287 OA
ATOM     24  H25 NON d   1     -47.677  15.997  -6.736  0.00  0.00     0.244 HD
ENDBRANCH  21  23
ENDBRANCH  18  19
ENDBRANCH  17  18
ENDBRANCH  16  17
ENDBRANCH  15  16
ENDBRANCH  14  15
ENDBRANCH  13  14
ENDBRANCH  12  13
ENDBRANCH   2  12
BRANCH   1  25
ATOM     25  C5  NON d   1     -40.387  20.967  -5.811  0.00  0.00     0.044 C 
BRANCH  25  26
ATOM     26  C4  NON d   1     -40.025  19.642  -6.526  0.00  0.00     0.009 C 
BRANCH  26  27
ATOM     27  C2  NON d   1     -39.870  19.642  -8.058  0.00  0.00    -0.023 C 
ATOM     28  C1  NON d   1     -39.558  18.095  -8.302  0.00  0.00     0.009 C 
ATOM     29  C3  NON d   1     -38.644  20.646  -8.197  0.00  0.00     0.009 C 
ENDBRANCH  26  27
ENDBRANCH  25  26
ENDBRANCH   1  25
TORSDOF 12
ENDMDL
MODEL 5
REMARK VINA RESULT:   -13.851      2.373      5.125
REMARK INTER + INTRA:         -19.509
REMARK INTER:                 -17.431
REMARK INTRA:                  -2.078
REMARK CONF_INDEPENDENT:        3.580
REMARK UNBOUND:                -2.078
REMARK  12 active torsions:
REMARK  status: ('A' for Active; 'I' for Inactive)
REMARK    1  A    between atoms: C2_2  and  C4_4 
REMARK    2  A    between atoms: C4_4  and  C5_5 
REMARK    3  A    between atoms: C5_5  and  C6_6 
REMARK    4  A    between atoms: C7_7  and  O1_8 
REMARK    5  A    between atoms: O1_8  and  C8_9 
REMARK    6  A    between atoms: C8_9  and  C9_10 
REMARK    7  A    between atoms: C9_10  and  C10_11 
REMARK    8  A    between atoms: C10_11  and  C11_12 
REMARK    9  A    between atoms: C11_12  and  C12_13 
REMARK   10  A    between atoms: C12_13  and  C13_14 
REMARK   11  A    between atoms: C13_14  and  C14_15 
REMARK       I    between atoms: C14_15  and  N1_17 
REMARK   12  A    between atoms: N1_17  and  O3_18 
ROOT
ATOM      1  C6  NON d   1     -40.887  22.863  -2.330  0.00  0.00     0.010 A 
ATOM      2  C7  NON d   1     -40.342  21.587  -2.637  0.00  0.00     0.077 A 
ATOM      3  C15 NON d   1     -39.784  20.814  -1.599  0.00  0.00     0.038 A 
ATOM      4  C16 NON d   1     -39.754  21.252  -0.275  0.00  0.00     0.017 A 
ATOM      5  C17 NON d   1     -40.284  22.493   0.049  0.00  0.00    -0.001 A 
ATOM      6  C18 NON d   1     -40.272  22.984   1.421  0.00  0.00     0.020 A 
ATOM      7  C19 NON d   1     -40.792  24.180   1.712  0.00  0.00     0.083 A 
ATOM      8  C20 NON d   1     -41.378  25.043   0.679  0.00  0.00     0.288 A 
ATOM      9  O4  NON d   1     -41.867  26.131   0.961  0.00  0.00    -0.260 OA
ATOM     10  O5  NON d   1     -41.348  24.550  -0.617  0.00  0.00    -0.274 OA
ATOM     11  C21 NON d   1     -40.832  23.276  -0.972  0.00  0.00     0.098 A 
ENDROOT
BRANCH   2  12
ATOM     12  O1  NON d   1     -40.221  20.916  -3.836  0.00  0.00    -0.350 OA
BRANCH  12  13
ATOM     13  C8  NON d   1     -41.332  20.303  -4.477  0.00  0.00     0.175 C 
BRANCH  13  14
ATOM     14  C9  NON d   1     -41.070  18.832  -4.817  0.00  0.00     0.027 C 
BRANCH  14  15
ATOM     15  C10 NON d   1     -41.273  17.858  -3.650  0.00  0.00     0.002 C 
BRANCH  15  16
ATOM     16  C11 NON d   1     -42.729  17.738  -3.211  0.00  0.00     0.001 C 
BRANCH  16  17
ATOM     17  C12 NON d   1     -43.720  17.716  -4.385  0.00  0.00     0.009 C 
BRANCH  17  18
ATOM     18  C13 NON d   1     -45.096  17.136  -4.049  0.00  0.00     0.105 C 
BRANCH  18  19
ATOM     19  C14 NON d   1     -46.018  16.880  -5.231  0.00  0.00     0.240 C 
ATOM     20  O2  NON d   1     -46.139  17.643  -6.185  0.00  0.00    -0.271 OA
ATOM     21  N1  NON d   1     -46.760  15.724  -5.054  0.00  0.00    -0.237 N 
ATOM     22  H24 NON d   1     -46.399  14.982  -4.463  0.00  0.00     0.197 HD
BRANCH  21  23
ATOM     23  O3  NON d   1     -47.484  15.285  -6.185  0.00  0.00    -0.287 OA
ATOM     24  H25 NON d   1     -47.035  15.757  -6.913  0.00  0.00     0.244 HD
ENDBRANCH  21  23
ENDBRANCH  18  19
ENDBRANCH  17  18
ENDBRANCH  16  17
ENDBRANCH  15  16
ENDBRANCH  14  15
ENDBRANCH  13  14
ENDBRANCH  12  13
ENDBRANCH   2  12
BRANCH   1  25
ATOM     25  C5  NON d   1     -41.436  23.777  -3.407  0.00  0.00     0.044 C 
BRANCH  25  26
ATOM     26  C4  NON d   1     -41.069  25.278  -3.510  0.00  0.00     0.009 C 
BRANCH  26  27
ATOM     27  C2  NON d   1     -39.694  25.670  -4.082  0.00  0.00    -0.023 C 
ATOM     28  C1  NON d   1     -39.425  24.416  -5.034  0.00  0.00     0.009 C 
ATOM     29  C3  NON d   1     -38.857  25.730  -2.730  0.00  0.00     0.009 C 
ENDBRANCH  26  27
ENDBRANCH  25  26
ENDBRANCH   1  25
TORSDOF 12
ENDMDL
MODEL 6
REMARK VINA RESULT:   -13.796      1.322      3.895
REMARK INTER + INTRA:         -19.479
REMARK INTER:                 -17.375
REMARK INTRA:                  -2.104
REMARK CONF_INDEPENDENT:        3.580
REMARK UNBOUND:                -2.104
REMARK  12 active torsions:
REMARK  status: ('A' for Active; 'I' for Inactive)
REMARK    1  A    between atoms: C2_2  and  C4_4 
REMARK    2  A    between atoms: C4_4  and  C5_5 
REMARK    3  A    between atoms: C5_5  and  C6_6 
REMARK    4  A    between atoms: C7_7  and  O1_8 
REMARK    5  A    between atoms: O1_8  and  C8_9 
REMARK    6  A    between atoms: C8_9  and  C9_10 
REMARK    7  A    between atoms: C9_10  and  C10_11 
REMARK    8  A    between atoms: C10_11  and  C11_12 
REMARK    9  A    between atoms: C11_12  and  C12_13 
REMARK   10  A    between atoms: C12_13  and  C13_14 
REMARK   11  A    between atoms: C13_14  and  C14_15 
REMARK       I    between atoms: C14_15  and  N1_17 
REMARK   12  A    between atoms: N1_17  and  O3_18 
ROOT
ATOM      1  C6  NON d   1     -39.738  21.792  -4.901  0.00  0.00     0.010 A 
ATOM      2  C7  NON d   1     -39.724  21.151  -3.632  0.00  0.00     0.077 A 
ATOM      3  C15 NON d   1     -39.968  21.919  -2.475  0.00  0.00     0.038 A 
ATOM      4  C16 NON d   1     -40.231  23.288  -2.529  0.00  0.00     0.017 A 
ATOM      5  C17 NON d   1     -40.254  23.934  -3.757  0.00  0.00    -0.001 A 
ATOM      6  C18 NON d   1     -40.528  25.362  -3.854  0.00  0.00     0.020 A 
ATOM      7  C19 NON d   1     -40.549  25.964  -5.047  0.00  0.00     0.083 A 
ATOM      8  C20 NON d   1     -40.291  25.228  -6.291  0.00  0.00     0.288 A 
ATOM      9  O4  NON d   1     -40.331  25.788  -7.380  0.00  0.00    -0.260 OA
ATOM     10  O5  NON d   1     -40.012  23.876  -6.154  0.00  0.00    -0.274 OA
ATOM     11  C21 NON d   1     -40.004  23.187  -4.913  0.00  0.00     0.098 A 
ENDROOT
BRANCH   2  12
ATOM     12  O1  NON d   1     -39.480  19.840  -3.279  0.00  0.00    -0.350 OA
BRANCH  12  13
ATOM     13  C8  NON d   1     -40.423  19.064  -2.552  0.00  0.00     0.175 C 
BRANCH  13  14
ATOM     14  C9  NON d   1     -40.825  17.788  -3.298  0.00  0.00     0.027 C 
BRANCH  14  15
ATOM     15  C10 NON d   1     -41.578  18.024  -4.613  0.00  0.00     0.002 C 
BRANCH  15  16
ATOM     16  C11 NON d   1     -43.066  18.298  -4.416  0.00  0.00     0.001 C 
BRANCH  16  17
ATOM     17  C12 NON d   1     -43.875  17.040  -4.061  0.00  0.00     0.009 C 
BRANCH  17  18
ATOM     18  C13 NON d   1     -45.387  17.259  -3.964  0.00  0.00     0.105 C 
BRANCH  18  19
ATOM     19  C14 NON d   1     -46.196  16.880  -5.196  0.00  0.00     0.240 C 
ATOM     20  O2  NON d   1     -46.315  17.598  -6.185  0.00  0.00    -0.271 OA
ATOM     21  N1  NON d   1     -46.841  15.668  -5.025  0.00  0.00    -0.237 N 
ATOM     22  H24 NON d   1     -46.459  14.982  -4.382  0.00  0.00     0.197 HD
BRANCH  21  23
ATOM     23  O3  NON d   1     -47.440  15.128  -6.185  0.00  0.00    -0.287 OA
ATOM     24  H25 NON d   1     -47.005  15.635  -6.897  0.00  0.00     0.244 HD
ENDBRANCH  21  23
ENDBRANCH  18  19
ENDBRANCH  17  18
ENDBRANCH  16  17
ENDBRANCH  15  16
ENDBRANCH  14  15
ENDBRANCH  13  14
ENDBRANCH  12  13
ENDBRANCH   2  12
BRANCH   1  25
ATOM     25  C5  NON d   1     -39.412  21.043  -6.177  0.00  0.00     0.044 C 
BRANCH  25  26
ATOM     26  C4  NON d   1     -40.485  20.323  -7.031  0.00  0.00     0.009 C 
BRANCH  26  27
ATOM     27  C2  NON d   1     -40.125  19.880  -8.461  0.00  0.00    -0.023 C 
ATOM     28  C1  NON d   1     -39.044  18.751  -8.135  0.00  0.00     0.009 C 
ATOM     29  C3  NON d   1     -39.565  21.258  -9.027  0.00  0.00     0.009 C 
ENDBRANCH  26  27
ENDBRANCH  25  26
ENDBRANCH   1  25
TORSDOF 12
ENDMDL
MODEL 7
REMARK VINA RESULT:   -13.547      1.238      2.150
REMARK INTER + INTRA:         -19.090
REMARK INTER:                 -17.127
REMARK INTRA:                  -1.964
REMARK CONF_INDEPENDENT:        3.580
REMARK UNBOUND:                -1.964
REMARK  12 active torsions:
REMARK  status: ('A' for Active; 'I' for Inactive)
REMARK    1  A    between atoms: C2_2  and  C4_4 
REMARK    2  A    between atoms: C4_4  and  C5_5 
REMARK    3  A    between atoms: C5_5  and  C6_6 
REMARK    4  A    between atoms: C7_7  and  O1_8 
REMARK    5  A    between atoms: O1_8  and  C8_9 
REMARK    6  A    between atoms: C8_9  and  C9_10 
REMARK    7  A    between atoms: C9_10  and  C10_11 
REMARK    8  A    between atoms: C10_11  and  C11_12 
REMARK    9  A    between atoms: C11_12  and  C12_13 
REMARK   10  A    between atoms: C12_13  and  C13_14 
REMARK   11  A    between atoms: C13_14  and  C14_15 
REMARK       I    between atoms: C14_15  and  N1_17 
REMARK   12  A    between atoms: N1_17  and  O3_18 
ROOT
ATOM      1  C6  NON d   1     -39.592  22.484  -6.525  0.00  0.00     0.010 A 
ATOM      2  C7  NON d   1     -39.569  21.070  -6.668  0.00  0.00     0.077 A 
ATOM      3  C15 NON d   1     -39.681  20.511  -7.957  0.00  0.00     0.038 A 
ATOM      4  C16 NON d   1     -39.807  21.297  -9.104  0.00  0.00     0.017 A 
ATOM      5  C17 NON d   1     -39.827  22.679  -8.989  0.00  0.00    -0.001 A 
ATOM      6  C18 NON d   1     -39.954  23.532 -10.163  0.00  0.00     0.020 A 
ATOM      7  C19 NON d   1     -39.967  24.862 -10.030  0.00  0.00     0.083 A 
ATOM      8  C20 NON d   1     -39.867  25.511  -8.717  0.00  0.00     0.288 A 
ATOM      9  O4  NON d   1     -39.863  26.732  -8.611  0.00  0.00    -0.260 OA
ATOM     10  O5  NON d   1     -39.771  24.664  -7.623  0.00  0.00    -0.274 OA
ATOM     11  C21 NON d   1     -39.726  23.248  -7.714  0.00  0.00     0.098 A 
ENDROOT
BRANCH   2  12
ATOM     12  O1  NON d   1     -39.476  20.064  -5.729  0.00  0.00    -0.350 OA
BRANCH  12  13
ATOM     13  C8  NON d   1     -39.932  18.742  -5.989  0.00  0.00     0.175 C 
BRANCH  13  14
ATOM     14  C9  NON d   1     -41.339  18.493  -5.437  0.00  0.00     0.027 C 
BRANCH  14  15
ATOM     15  C10 NON d   1     -41.398  18.224  -3.929  0.00  0.00     0.002 C 
BRANCH  15  16
ATOM     16  C11 NON d   1     -42.738  17.660  -3.468  0.00  0.00     0.001 C 
BRANCH  16  17
ATOM     17  C12 NON d   1     -43.872  17.879  -4.481  0.00  0.00     0.009 C 
BRANCH  17  18
ATOM     18  C13 NON d   1     -45.201  17.217  -4.106  0.00  0.00     0.105 C 
BRANCH  18  19
ATOM     19  C14 NON d   1     -46.133  16.889  -5.263  0.00  0.00     0.240 C 
ATOM     20  O2  NON d   1     -46.321  17.631  -6.223  0.00  0.00    -0.271 OA
ATOM     21  N1  NON d   1     -46.798  15.693  -5.054  0.00  0.00    -0.237 N 
ATOM     22  H24 NON d   1     -46.380  14.983  -4.463  0.00  0.00     0.197 HD
BRANCH  21  23
ATOM     23  O3  NON d   1     -47.519  15.196  -6.163  0.00  0.00    -0.287 OA
ATOM     24  H25 NON d   1     -47.195  15.761  -6.890  0.00  0.00     0.244 HD
ENDBRANCH  21  23
ENDBRANCH  18  19
ENDBRANCH  17  18
ENDBRANCH  16  17
ENDBRANCH  15  16
ENDBRANCH  14  15
ENDBRANCH  13  14
ENDBRANCH  12  13
ENDBRANCH   2  12
BRANCH   1  25
ATOM     25  C5  NON d   1     -39.550  23.150  -5.164  0.00  0.00     0.044 C 
BRANCH  25  26
ATOM     26  C4  NON d   1     -40.823  23.541  -4.375  0.00  0.00     0.009 C 
BRANCH  26  27
ATOM     27  C2  NON d   1     -41.160  22.777  -3.081  0.00  0.00    -0.023 C 
ATOM     28  C1  NON d   1     -40.831  23.906  -2.002  0.00  0.00     0.009 C 
ATOM     29  C3  NON d   1     -40.116  21.583  -3.204  0.00  0.00     0.009 C 
ENDBRANCH  26  27
ENDBRANCH  25  26
ENDBRANCH   1  25
TORSDOF 12
ENDMDL
MODEL 8
REMARK VINA RESULT:   -13.467      1.788      3.802
REMARK INTER + INTRA:         -19.037
REMARK INTER:                 -17.046
REMARK INTRA:                  -1.990
REMARK CONF_INDEPENDENT:        3.580
REMARK UNBOUND:                -1.990
REMARK  12 active torsions:
REMARK  status: ('A' for Active; 'I' for Inactive)
REMARK    1  A    between atoms: C2_2  and  C4_4 
REMARK    2  A    between atoms: C4_4  and  C5_5 
REMARK    3  A    between atoms: C5_5  and  C6_6 
REMARK    4  A    between atoms: C7_7  and  O1_8 
REMARK    5  A    between atoms: O1_8  and  C8_9 
REMARK    6  A    between atoms: C8_9  and  C9_10 
REMARK    7  A    between atoms: C9_10  and  C10_11 
REMARK    8  A    between atoms: C10_11  and  C11_12 
REMARK    9  A    between atoms: C11_12  and  C12_13 
REMARK   10  A    between atoms: C12_13  and  C13_14 
REMARK   11  A    between atoms: C13_14  and  C14_15 
REMARK       I    between atoms: C14_15  and  N1_17 
REMARK   12  A    between atoms: N1_17  and  O3_18 
ROOT
ATOM      1  C6  NON d   1     -40.166  20.898  -6.979  0.00  0.00     0.010 A 
ATOM      2  C7  NON d   1     -40.351  20.558  -5.611  0.00  0.00     0.077 A 
ATOM      3  C15 NON d   1     -40.259  21.572  -4.636  0.00  0.00     0.038 A 
ATOM      4  C16 NON d   1     -40.000  22.903  -4.964  0.00  0.00     0.017 A 
ATOM      5  C17 NON d   1     -39.821  23.259  -6.293  0.00  0.00    -0.001 A 
ATOM      6  C18 NON d   1     -39.552  24.639  -6.675  0.00  0.00     0.020 A 
ATOM      7  C19 NON d   1     -39.387  24.961  -7.962  0.00  0.00     0.083 A 
ATOM      8  C20 NON d   1     -39.456  23.954  -9.028  0.00  0.00     0.288 A 
ATOM      9  O4  NON d   1     -39.320  24.265 -10.206  0.00  0.00    -0.260 OA
ATOM     10  O5  NON d   1     -39.691  22.649  -8.621  0.00  0.00    -0.274 OA
ATOM     11  C21 NON d   1     -39.900  22.262  -7.271  0.00  0.00     0.098 A 
ENDROOT
BRANCH   2  12
ATOM     12  O1  NON d   1     -40.596  19.345  -5.001  0.00  0.00    -0.350 OA
BRANCH  12  13
ATOM     13  C8  NON d   1     -39.682  18.762  -4.081  0.00  0.00     0.175 C 
BRANCH  13  14
ATOM     14  C9  NON d   1     -40.377  18.259  -2.811  0.00  0.00     0.027 C 
BRANCH  14  15
ATOM     15  C10 NON d   1     -41.888  18.044  -2.950  0.00  0.00     0.002 C 
BRANCH  15  16
ATOM     16  C11 NON d   1     -42.289  17.411  -4.279  0.00  0.00     0.001 C 
BRANCH  16  17
ATOM     17  C12 NON d   1     -43.745  17.699  -4.677  0.00  0.00     0.009 C 
BRANCH  17  18
ATOM     18  C13 NON d   1     -44.697  16.510  -4.520  0.00  0.00     0.105 C 
BRANCH  18  19
ATOM     19  C14 NON d   1     -45.917  16.508  -5.428  0.00  0.00     0.240 C 
ATOM     20  O2  NON d   1     -46.519  15.493  -5.766  0.00  0.00    -0.271 OA
ATOM     21  N1  NON d   1     -46.209  17.781  -5.887  0.00  0.00    -0.237 N 
ATOM     22  H24 NON d   1     -45.928  18.588  -5.340  0.00  0.00     0.197 HD
BRANCH  21  23
ATOM     23  O3  NON d   1     -47.444  17.918  -6.559  0.00  0.00    -0.287 OA
ATOM     24  H25 NON d   1     -47.629  17.002  -6.839  0.00  0.00     0.244 HD
ENDBRANCH  21  23
ENDBRANCH  18  19
ENDBRANCH  17  18
ENDBRANCH  16  17
ENDBRANCH  15  16
ENDBRANCH  14  15
ENDBRANCH  13  14
ENDBRANCH  12  13
ENDBRANCH   2  12
BRANCH   1  25
ATOM     25  C5  NON d   1     -40.179  19.848  -8.071  0.00  0.00     0.044 C 
BRANCH  25  26
ATOM     26  C4  NON d   1     -39.261  18.600  -8.054  0.00  0.00     0.009 C 
BRANCH  26  27
ATOM     27  C2  NON d   1     -37.764  18.773  -8.371  0.00  0.00    -0.023 C 
ATOM     28  C1  NON d   1     -37.146  18.518  -6.921  0.00  0.00     0.009 C 
ATOM     29  C3  NON d   1     -37.779  20.279  -8.884  0.00  0.00     0.009 C 
ENDBRANCH  26  27
ENDBRANCH  25  26
ENDBRANCH   1  25
TORSDOF 12
ENDMDL
MODEL 9
REMARK VINA RESULT:   -13.429      2.102      5.055
REMARK INTER + INTRA:         -19.015
REMARK INTER:                 -17.008
REMARK INTRA:                  -2.006
REMARK CONF_INDEPENDENT:        3.580
REMARK UNBOUND:                -2.006
REMARK  12 active torsions:
REMARK  status: ('A' for Active; 'I' for Inactive)
REMARK    1  A    between atoms: C2_2  and  C4_4 
REMARK    2  A    between atoms: C4_4  and  C5_5 
REMARK    3  A    between atoms: C5_5  and  C6_6 
REMARK    4  A    between atoms: C7_7  and  O1_8 
REMARK    5  A    between atoms: O1_8  and  C8_9 
REMARK    6  A    between atoms: C8_9  and  C9_10 
REMARK    7  A    between atoms: C9_10  and  C10_11 
REMARK    8  A    between atoms: C10_11  and  C11_12 
REMARK    9  A    between atoms: C11_12  and  C12_13 
REMARK   10  A    between atoms: C12_13  and  C13_14 
REMARK   11  A    between atoms: C13_14  and  C14_15 
REMARK       I    between atoms: C14_15  and  N1_17 
REMARK   12  A    between atoms: N1_17  and  O3_18 
ROOT
ATOM      1  C6  NON d   1     -39.708  20.910  -2.675  0.00  0.00     0.010 A 
ATOM      2  C7  NON d   1     -40.172  21.009  -4.015  0.00  0.00     0.077 A 
ATOM      3  C15 NON d   1     -41.008  22.087  -4.371  0.00  0.00     0.038 A 
ATOM      4  C16 NON d   1     -41.393  23.068  -3.456  0.00  0.00     0.017 A 
ATOM      5  C17 NON d   1     -40.948  22.995  -2.144  0.00  0.00    -0.001 A 
ATOM      6  C18 NON d   1     -41.325  24.002  -1.161  0.00  0.00     0.020 A 
ATOM      7  C19 NON d   1     -40.881  23.914   0.097  0.00  0.00     0.083 A 
ATOM      8  C20 NON d   1     -40.019  22.812   0.539  0.00  0.00     0.288 A 
ATOM      9  O4  NON d   1     -39.604  22.752   1.691  0.00  0.00    -0.260 OA
ATOM     10  O5  NON d   1     -39.701  21.862  -0.420  0.00  0.00    -0.274 OA
ATOM     11  C21 NON d   1     -40.124  21.925  -1.774  0.00  0.00     0.098 A 
ENDROOT
BRANCH   2  12
ATOM     12  O1  NON d   1     -39.974  20.192  -5.108  0.00  0.00    -0.350 OA
BRANCH  12  13
ATOM     13  C8  NON d   1     -41.019  19.882  -6.021  0.00  0.00     0.175 C 
BRANCH  13  14
ATOM     14  C9  NON d   1     -42.139  19.066  -5.367  0.00  0.00     0.027 C 
BRANCH  14  15
ATOM     15  C10 NON d   1     -41.818  18.550  -3.960  0.00  0.00     0.002 C 
BRANCH  15  16
ATOM     16  C11 NON d   1     -42.596  17.293  -3.586  0.00  0.00     0.001 C 
BRANCH  16  17
ATOM     17  C12 NON d   1     -43.633  16.881  -4.643  0.00  0.00     0.009 C 
BRANCH  17  18
ATOM     18  C13 NON d   1     -45.091  17.065  -4.214  0.00  0.00     0.105 C 
BRANCH  18  19
ATOM     19  C14 NON d   1     -46.136  16.874  -5.302  0.00  0.00     0.240 C 
ATOM     20  O2  NON d   1     -46.356  17.690  -6.192  0.00  0.00    -0.271 OA
ATOM     21  N1  NON d   1     -46.856  15.707  -5.114  0.00  0.00    -0.237 N 
ATOM     22  H24 NON d   1     -46.436  14.934  -4.608  0.00  0.00     0.197 HD
BRANCH  21  23
ATOM     23  O3  NON d   1     -47.699  15.331  -6.184  0.00  0.00    -0.287 OA
ATOM     24  H25 NON d   1     -47.943  16.195  -6.568  0.00  0.00     0.244 HD
ENDBRANCH  21  23
ENDBRANCH  18  19
ENDBRANCH  17  18
ENDBRANCH  16  17
ENDBRANCH  15  16
ENDBRANCH  14  15
ENDBRANCH  13  14
ENDBRANCH  12  13
ENDBRANCH   2  12
BRANCH   1  25
ATOM     25  C5  NON d   1     -38.866  19.741  -2.207  0.00  0.00     0.044 C 
BRANCH  25  26
ATOM     26  C4  NON d   1     -38.786  18.397  -2.972  0.00  0.00     0.009 C 
BRANCH  26  27
ATOM     27  C2  NON d   1     -37.415  17.904  -3.470  0.00  0.00    -0.023 C 
ATOM     28  C1  NON d   1     -36.709  17.599  -2.071  0.00  0.00     0.009 C 
ATOM     29  C3  NON d   1     -36.934  19.209  -4.242  0.00  0.00     0.009 C 
ENDBRANCH  26  27
ENDBRANCH  25  26
ENDBRANCH   1  25
TORSDOF 12
ENDMDL
