MODEL 1
REMARK VINA RESULT:   -24.200      0.000      0.000
REMARK INTER + INTRA:         -26.423
REMARK INTER:                 -25.394
REMARK INTRA:                  -1.029
REMARK CONF_INDEPENDENT:        1.193
REMARK UNBOUND:                -1.029
REMARK  4 active torsions:
REMARK  status: ('A' for Active; 'I' for Inactive)
REMARK    1  A    between atoms: C2_4  and  C3_5 
REMARK    2  A    between atoms: C5_10  and  C6_11 
REMARK    3  A    between atoms: C9_14  and  C10_15 
REMARK       I    between atoms: C10_15  and  N3_17 
REMARK    4  A    between atoms: N3_17  and  O2_18 
ROOT
ATOM      1  C6  NON d   1     -44.150  17.742  -4.316  0.00  0.00     0.034 A 
ATOM      2  C7  NON d   1     -43.703  18.865  -4.991  0.00  0.00     0.023 A 
ATOM      3  C8  NON d   1     -42.397  19.277  -4.586  0.00  0.00     0.026 A 
ATOM      4  C9  NON d   1     -41.864  18.457  -3.613  0.00  0.00     0.075 A 
ATOM      5  S1  NON d   1     -42.958  17.220  -3.203  0.00  0.00    -0.083 SA
ENDROOT
BRANCH   1   6
ATOM      6  C5  NON d   1     -45.422  17.074  -4.497  0.00  0.00     0.071 A 
ATOM      7  C4  NON d   1     -46.030  16.141  -3.679  0.00  0.00     0.070 A 
ATOM      8  C2  NON d   1     -47.274  15.820  -4.288  0.00  0.00     0.162 A 
ATOM      9  N2  NON d   1     -47.437  16.505  -5.435  0.00  0.00    -0.168 NA
ATOM     10  N1  NON d   1     -46.314  17.238  -5.536  0.00  0.00    -0.272 N 
ATOM     11  C1  NON d   1     -46.104  18.201  -6.720  0.00  0.00     0.180 C 
BRANCH   8  12
ATOM     12  C3  NON d   1     -48.287  14.847  -3.754  0.00  0.00     0.436 C 
ATOM     13  F1  NON d   1     -49.085  15.418  -2.814  0.00  0.00    -0.165 F 
ATOM     14  F2  NON d   1     -47.730  13.743  -3.193  0.00  0.00    -0.165 F 
ATOM     15  F3  NON d   1     -49.116  14.403  -4.740  0.00  0.00    -0.165 F 
ENDBRANCH   8  12
ENDBRANCH   1   6
BRANCH   4  16
ATOM     16  C10 NON d   1     -40.566  18.573  -2.971  0.00  0.00     0.281 C 
ATOM     17  O1  NON d   1     -40.066  19.649  -2.644  0.00  0.00    -0.265 OA
ATOM     18  N3  NON d   1     -39.892  17.394  -2.739  0.00  0.00    -0.233 N 
ATOM     19  H7  NON d   1     -40.232  16.480  -3.016  0.00  0.00     0.197 HD
BRANCH  18  20
ATOM     20  O2  NON d   1     -38.624  17.466  -2.126  0.00  0.00    -0.287 OA
ATOM     21  H8  NON d   1     -38.716  18.253  -1.547  0.00  0.00     0.244 HD
ENDBRANCH  18  20
ENDBRANCH   4  16
TORSDOF 4
ENDMDL
MODEL 2
REMARK VINA RESULT:   -24.172      1.565      2.158
REMARK INTER + INTRA:         -26.363
REMARK INTER:                 -25.365
REMARK INTRA:                  -0.998
REMARK CONF_INDEPENDENT:        1.193
REMARK UNBOUND:                -0.998
REMARK  4 active torsions:
REMARK  status: ('A' for Active; 'I' for Inactive)
REMARK    1  A    between atoms: C2_4  and  C3_5 
REMARK    2  A    between atoms: C5_10  and  C6_11 
REMARK    3  A    between atoms: C9_14  and  C10_15 
REMARK       I    between atoms: C10_15  and  N3_17 
REMARK    4  A    between atoms: N3_17  and  O2_18 
ROOT
ATOM      1  C6  NON d   1     -44.226  17.605  -3.998  0.00  0.00     0.034 A 
ATOM      2  C7  NON d   1     -43.479  17.426  -2.846  0.00  0.00     0.023 A 
ATOM      3  C8  NON d   1     -42.269  18.186  -2.841  0.00  0.00     0.026 A 
ATOM      4  C9  NON d   1     -42.115  18.938  -3.987  0.00  0.00     0.075 A 
ATOM      5  S1  NON d   1     -43.426  18.699  -5.045  0.00  0.00    -0.083 SA
ENDROOT
BRANCH   1   6
ATOM      6  C5  NON d   1     -45.497  16.986  -4.308  0.00  0.00     0.071 A 
ATOM      7  C4  NON d   1     -46.208  16.059  -3.569  0.00  0.00     0.070 A 
ATOM      8  C2  NON d   1     -47.401  15.793  -4.293  0.00  0.00     0.162 A 
ATOM      9  N2  NON d   1     -47.437  16.506  -5.435  0.00  0.00    -0.168 NA
ATOM     10  N1  NON d   1     -46.286  17.201  -5.418  0.00  0.00    -0.272 N 
ATOM     11  C1  NON d   1     -45.938  18.179  -6.556  0.00  0.00     0.180 C 
BRANCH   8  12
ATOM     12  C3  NON d   1     -48.489  14.846  -3.875  0.00  0.00     0.436 C 
ATOM     13  F1  NON d   1     -47.995  13.789  -3.177  0.00  0.00    -0.165 F 
ATOM     14  F2  NON d   1     -49.197  14.343  -4.919  0.00  0.00    -0.165 F 
ATOM     15  F3  NON d   1     -49.391  15.455  -3.055  0.00  0.00    -0.165 F 
ENDBRANCH   8  12
ENDBRANCH   1   6
BRANCH   4  16
ATOM     16  C10 NON d   1     -41.013  19.824  -4.323  0.00  0.00     0.281 C 
ATOM     17  O1  NON d   1     -39.843  19.451  -4.398  0.00  0.00    -0.265 OA
ATOM     18  N3  NON d   1     -41.340  21.141  -4.557  0.00  0.00    -0.233 N 
ATOM     19  H7  NON d   1     -42.277  21.519  -4.477  0.00  0.00     0.197 HD
BRANCH  18  20
ATOM     20  O2  NON d   1     -40.296  22.035  -4.877  0.00  0.00    -0.287 OA
ATOM     21  H8  NON d   1     -39.497  21.490  -4.715  0.00  0.00     0.244 HD
ENDBRANCH  18  20
ENDBRANCH   4  16
TORSDOF 4
ENDMDL
