MODEL 1
REMARK VINA RESULT:   -35.779      0.000      0.000
REMARK INTER + INTRA:         -38.333
REMARK INTER:                 -37.867
REMARK INTRA:                  -0.465
REMARK CONF_INDEPENDENT:        2.088
REMARK UNBOUND:                -0.465
REMARK  7 active torsions:
REMARK  status: ('A' for Active; 'I' for Inactive)
REMARK    1  A    between atoms: N1_1  and  C1_2 
REMARK    2  A    between atoms: C6_7  and  N2_8 
REMARK       I    between atoms: N2_8  and  C7_9 
REMARK    3  A    between atoms: C7_9  and  C8_11 
REMARK    4  A    between atoms: C11_14  and  C12_15 
REMARK    5  A    between atoms: N3_16  and  C12_15 
REMARK    6  A    between atoms: N3_16  and  C13_17 
REMARK    7  A    between atoms: C16_21  and  C17_22 
ROOT
ATOM      1  C8  NON d   1     -43.912  17.742  -5.062  0.00  0.00     0.032 A 
ATOM      2  C9  NON d   1     -42.699  17.044  -5.136  0.00  0.00     0.017 A 
ATOM      3  C10 NON d   1     -41.482  17.722  -5.217  0.00  0.00     0.009 A 
ATOM      4  C11 NON d   1     -41.431  19.126  -5.239  0.00  0.00    -0.045 A 
ATOM      5  C23 NON d   1     -42.641  19.826  -5.158  0.00  0.00     0.009 A 
ATOM      6  C24 NON d   1     -43.871  19.144  -5.073  0.00  0.00     0.017 A 
ENDROOT
BRANCH   4   7
ATOM      7  C12 NON d   1     -40.051  19.759  -5.317  0.00  0.00     0.134 C 
BRANCH   7   8
ATOM      8  N3  NON d   1     -39.030  18.925  -5.928  0.00  0.00    -0.257 NA
ATOM      9  H12 NON d   1     -39.283  17.956  -6.074  0.00  0.00     0.131 HD
BRANCH   8  10
ATOM     10  C13 NON d   1     -38.605  19.409  -7.168  0.00  0.00     0.202 A 
ATOM     11  N4  NON d   1     -37.700  18.724  -7.878  0.00  0.00    -0.231 NA
ATOM     12  C14 NON d   1     -37.319  19.236  -9.057  0.00  0.00     0.122 A 
ATOM     13  C15 NON d   1     -37.825  20.404  -9.562  0.00  0.00     0.053 A 
ATOM     14  C16 NON d   1     -38.761  21.047  -8.778  0.00  0.00     0.090 A 
ATOM     15  N8  NON d   1     -39.137  20.572  -7.574  0.00  0.00    -0.216 NA
BRANCH  14  16
ATOM     16  C17 NON d   1     -39.398  22.288  -9.237  0.00  0.00     0.103 A 
ATOM     17  C18 NON d   1     -39.959  23.307  -8.479  0.00  0.00     0.169 A 
ATOM     18  N5  NON d   1     -40.446  24.324  -9.241  0.00  0.00    -0.072 NA
ATOM     19  C19 NON d   1     -40.203  23.983 -10.486  0.00  0.00     0.733 A 
ATOM     20  N6  NON d   1     -40.501  24.690 -11.615  0.00  0.00    -0.074 NA
ATOM     21  N7  NON d   1     -39.557  22.738 -10.545  0.00  0.00    -0.151 N 
ATOM     22  C20 NON d   1     -40.154  24.148 -12.739  0.00  0.00     0.138 A 
ATOM     23  C21 NON d   1     -39.470  22.842 -12.911  0.00  0.00     0.038 A 
ATOM     24  C22 NON d   1     -39.198  22.187 -11.776  0.00  0.00     0.117 A 
ENDBRANCH  14  16
ENDBRANCH   8  10
ENDBRANCH   7   8
ENDBRANCH   4   7
BRANCH   1  25
ATOM     25  C7  NON d   1     -45.165  16.917  -5.001  0.00  0.00     0.256 C 
ATOM     26  N2  NON d   1     -46.109  17.257  -4.054  0.00  0.00    -0.321 N 
ATOM     27  H7  NON d   1     -45.948  18.034  -3.424  0.00  0.00     0.169 HD
ATOM     28  O1  NON d   1     -45.272  15.985  -5.797  0.00  0.00    -0.267 OA
BRANCH  26  29
ATOM     29  C6  NON d   1     -47.329  16.589  -3.780  0.00  0.00     0.056 A 
ATOM     30  C5  NON d   1     -47.856  16.403  -2.500  0.00  0.00     0.031 A 
ATOM     31  C4  NON d   1     -49.074  15.740  -2.325  0.00  0.00     0.002 A 
ATOM     32  C3  NON d   1     -49.769  15.248  -3.426  0.00  0.00     0.002 A 
ATOM     33  C2  NON d   1     -49.248  15.417  -4.710  0.00  0.00     0.025 A 
ATOM     34  C1  NON d   1     -48.049  16.115  -4.899  0.00  0.00     0.033 A 
BRANCH  34  35
ATOM     35  N1  NON d   1     -47.440  16.137  -6.185  0.00  0.00    -0.301 NA
ATOM     36  H1  NON d   1     -47.101  17.071  -6.407  0.00  0.00     0.124 HD
ATOM     37  H2  NON d   1     -48.146  15.878  -6.875  0.00  0.00     0.124 HD
ENDBRANCH  34  35
ENDBRANCH  26  29
ENDBRANCH   1  25
TORSDOF 7
ENDMDL
MODEL 2
REMARK VINA RESULT:   -35.491      4.702      6.939
REMARK INTER + INTRA:         -38.896
REMARK INTER:                 -37.579
REMARK INTRA:                  -1.317
REMARK CONF_INDEPENDENT:        2.088
REMARK UNBOUND:                -1.317
REMARK  7 active torsions:
REMARK  status: ('A' for Active; 'I' for Inactive)
REMARK    1  A    between atoms: N1_1  and  C1_2 
REMARK    2  A    between atoms: C6_7  and  N2_8 
REMARK       I    between atoms: N2_8  and  C7_9 
REMARK    3  A    between atoms: C7_9  and  C8_11 
REMARK    4  A    between atoms: C11_14  and  C12_15 
REMARK    5  A    between atoms: N3_16  and  C12_15 
REMARK    6  A    between atoms: N3_16  and  C13_17 
REMARK    7  A    between atoms: C16_21  and  C17_22 
ROOT
ATOM      1  C8  NON d   1     -43.892  17.715  -5.060  0.00  0.00     0.032 A 
ATOM      2  C9  NON d   1     -42.677  17.016  -5.083  0.00  0.00     0.017 A 
ATOM      3  C10 NON d   1     -41.459  17.693  -5.170  0.00  0.00     0.009 A 
ATOM      4  C11 NON d   1     -41.409  19.094  -5.250  0.00  0.00    -0.045 A 
ATOM      5  C23 NON d   1     -42.621  19.796  -5.222  0.00  0.00     0.009 A 
ATOM      6  C24 NON d   1     -43.852  19.115  -5.131  0.00  0.00     0.017 A 
ENDROOT
BRANCH   4   7
ATOM      7  C12 NON d   1     -40.029  19.726  -5.330  0.00  0.00     0.134 C 
BRANCH   7   8
ATOM      8  N3  NON d   1     -39.462  20.117  -4.050  0.00  0.00    -0.257 NA
ATOM      9  H12 NON d   1     -38.452  20.122  -4.000  0.00  0.00     0.131 HD
BRANCH   8  10
ATOM     10  C13 NON d   1     -39.880  21.384  -3.635  0.00  0.00     0.202 A 
ATOM     11  N4  NON d   1     -40.138  22.333  -4.544  0.00  0.00    -0.231 NA
ATOM     12  C14 NON d   1     -40.527  23.533  -4.093  0.00  0.00     0.122 A 
ATOM     13  C15 NON d   1     -40.685  23.817  -2.764  0.00  0.00     0.053 A 
ATOM     14  C16 NON d   1     -40.411  22.786  -1.888  0.00  0.00     0.090 A 
ATOM     15  N8  NON d   1     -39.986  21.579  -2.312  0.00  0.00    -0.216 NA
BRANCH  14  16
ATOM     16  C17 NON d   1     -40.583  22.966  -0.441  0.00  0.00     0.103 A 
ATOM     17  C18 NON d   1     -40.445  22.026   0.572  0.00  0.00     0.169 A 
ATOM     18  N5  NON d   1     -40.661  22.550   1.810  0.00  0.00    -0.072 NA
ATOM     19  C19 NON d   1     -40.931  23.821   1.615  0.00  0.00     0.733 A 
ATOM     20  N6  NON d   1     -41.211  24.765   2.560  0.00  0.00    -0.074 NA
ATOM     21  N7  NON d   1     -40.896  24.134   0.248  0.00  0.00    -0.151 N 
ATOM     22  C20 NON d   1     -41.439  25.963   2.124  0.00  0.00     0.138 A 
ATOM     23  C21 NON d   1     -41.427  26.399   0.705  0.00  0.00     0.038 A 
ATOM     24  C22 NON d   1     -41.147  25.438  -0.184  0.00  0.00     0.117 A 
ENDBRANCH  14  16
ENDBRANCH   8  10
ENDBRANCH   7   8
ENDBRANCH   4   7
BRANCH   1  25
ATOM     25  C7  NON d   1     -45.144  16.890  -4.988  0.00  0.00     0.256 C 
ATOM     26  N2  NON d   1     -46.095  17.253  -4.055  0.00  0.00    -0.321 N 
ATOM     27  H7  NON d   1     -45.938  18.045  -3.443  0.00  0.00     0.169 HD
ATOM     28  O1  NON d   1     -45.246  15.940  -5.761  0.00  0.00    -0.267 OA
BRANCH  26  29
ATOM     29  C6  NON d   1     -47.316  16.591  -3.773  0.00  0.00     0.056 A 
ATOM     30  C5  NON d   1     -47.838  16.412  -2.489  0.00  0.00     0.031 A 
ATOM     31  C4  NON d   1     -49.058  15.755  -2.306  0.00  0.00     0.002 A 
ATOM     32  C3  NON d   1     -49.759  15.261  -3.403  0.00  0.00     0.002 A 
ATOM     33  C2  NON d   1     -49.245  15.424  -4.690  0.00  0.00     0.025 A 
ATOM     34  C1  NON d   1     -48.043  16.116  -4.886  0.00  0.00     0.033 A 
BRANCH  34  35
ATOM     35  N1  NON d   1     -47.440  16.130  -6.175  0.00  0.00    -0.301 NA
ATOM     36  H1  NON d   1     -46.716  15.416  -6.242  0.00  0.00     0.124 HD
ATOM     37  H2  NON d   1     -47.004  17.043  -6.312  0.00  0.00     0.124 HD
ENDBRANCH  34  35
ENDBRANCH  26  29
ENDBRANCH   1  25
TORSDOF 7
ENDMDL
MODEL 3
REMARK VINA RESULT:   -35.037      4.490      6.650
REMARK INTER + INTRA:         -38.203
REMARK INTER:                 -37.125
REMARK INTRA:                  -1.078
REMARK CONF_INDEPENDENT:        2.088
REMARK UNBOUND:                -1.078
REMARK  7 active torsions:
REMARK  status: ('A' for Active; 'I' for Inactive)
REMARK    1  A    between atoms: N1_1  and  C1_2 
REMARK    2  A    between atoms: C6_7  and  N2_8 
REMARK       I    between atoms: N2_8  and  C7_9 
REMARK    3  A    between atoms: C7_9  and  C8_11 
REMARK    4  A    between atoms: C11_14  and  C12_15 
REMARK    5  A    between atoms: N3_16  and  C12_15 
REMARK    6  A    between atoms: N3_16  and  C13_17 
REMARK    7  A    between atoms: C16_21  and  C17_22 
ROOT
ATOM      1  C8  NON d   1     -43.914  17.731  -5.062  0.00  0.00     0.032 A 
ATOM      2  C9  NON d   1     -42.701  17.031  -5.010  0.00  0.00     0.017 A 
ATOM      3  C10 NON d   1     -41.480  17.702  -5.078  0.00  0.00     0.009 A 
ATOM      4  C11 NON d   1     -41.422  19.099  -5.213  0.00  0.00    -0.045 A 
ATOM      5  C23 NON d   1     -42.633  19.802  -5.259  0.00  0.00     0.009 A 
ATOM      6  C24 NON d   1     -43.868  19.127  -5.187  0.00  0.00     0.017 A 
ENDROOT
BRANCH   4   7
ATOM      7  C12 NON d   1     -40.039  19.726  -5.265  0.00  0.00     0.134 C 
BRANCH   7   8
ATOM      8  N3  NON d   1     -39.968  21.091  -4.772  0.00  0.00    -0.257 NA
ATOM      9  H12 NON d   1     -40.856  21.543  -4.602  0.00  0.00     0.131 HD
BRANCH   8  10
ATOM     10  C13 NON d   1     -39.238  21.202  -3.586  0.00  0.00     0.202 A 
ATOM     11  N4  NON d   1     -37.953  20.828  -3.554  0.00  0.00    -0.231 NA
ATOM     12  C14 NON d   1     -37.301  20.947  -2.389  0.00  0.00     0.122 A 
ATOM     13  C15 NON d   1     -37.884  21.444  -1.254  0.00  0.00     0.053 A 
ATOM     14  C16 NON d   1     -39.207  21.819  -1.367  0.00  0.00     0.090 A 
ATOM     15  N8  NON d   1     -39.897  21.679  -2.518  0.00  0.00    -0.216 NA
BRANCH  14  16
ATOM     16  C17 NON d   1     -39.922  22.400  -0.225  0.00  0.00     0.103 A 
ATOM     17  C18 NON d   1     -40.349  21.776   0.940  0.00  0.00     0.169 A 
ATOM     18  N5  NON d   1     -40.969  22.631   1.799  0.00  0.00    -0.072 NA
ATOM     19  C19 NON d   1     -40.944  23.805   1.212  0.00  0.00     0.733 A 
ATOM     20  N6  NON d   1     -41.440  24.984   1.689  0.00  0.00    -0.074 NA
ATOM     21  N7  NON d   1     -40.311  23.724  -0.038  0.00  0.00    -0.151 N 
ATOM     22  C20 NON d   1     -41.291  26.019   0.926  0.00  0.00     0.138 A 
ATOM     23  C21 NON d   1     -40.639  26.042  -0.408  0.00  0.00     0.038 A 
ATOM     24  C22 NON d   1     -40.169  24.863  -0.832  0.00  0.00     0.117 A 
ENDBRANCH  14  16
ENDBRANCH   8  10
ENDBRANCH   7   8
ENDBRANCH   4   7
BRANCH   1  25
ATOM     25  C7  NON d   1     -45.171  16.912  -5.004  0.00  0.00     0.256 C 
ATOM     26  N2  NON d   1     -46.112  17.251  -4.053  0.00  0.00    -0.321 N 
ATOM     27  H7  NON d   1     -45.946  18.024  -3.419  0.00  0.00     0.169 HD
ATOM     28  O1  NON d   1     -45.284  15.985  -5.805  0.00  0.00    -0.267 OA
BRANCH  26  29
ATOM     29  C6  NON d   1     -47.335  16.588  -3.781  0.00  0.00     0.056 A 
ATOM     30  C5  NON d   1     -47.866  16.407  -2.502  0.00  0.00     0.031 A 
ATOM     31  C4  NON d   1     -49.087  15.749  -2.329  0.00  0.00     0.002 A 
ATOM     32  C3  NON d   1     -49.780  15.256  -3.431  0.00  0.00     0.002 A 
ATOM     33  C2  NON d   1     -49.255  15.420  -4.714  0.00  0.00     0.025 A 
ATOM     34  C1  NON d   1     -48.053  16.114  -4.901  0.00  0.00     0.033 A 
BRANCH  34  35
ATOM     35  N1  NON d   1     -47.440  16.130  -6.185  0.00  0.00    -0.301 NA
ATOM     36  H1  NON d   1     -46.767  15.370  -6.272  0.00  0.00     0.124 HD
ATOM     37  H2  NON d   1     -46.940  17.015  -6.287  0.00  0.00     0.124 HD
ENDBRANCH  34  35
ENDBRANCH  26  29
ENDBRANCH   1  25
TORSDOF 7
ENDMDL
MODEL 4
REMARK VINA RESULT:   -34.917      4.652      6.684
REMARK INTER + INTRA:         -38.332
REMARK INTER:                 -37.005
REMARK INTRA:                  -1.327
REMARK CONF_INDEPENDENT:        2.088
REMARK UNBOUND:                -1.327
REMARK  7 active torsions:
REMARK  status: ('A' for Active; 'I' for Inactive)
REMARK    1  A    between atoms: N1_1  and  C1_2 
REMARK    2  A    between atoms: C6_7  and  N2_8 
REMARK       I    between atoms: N2_8  and  C7_9 
REMARK    3  A    between atoms: C7_9  and  C8_11 
REMARK    4  A    between atoms: C11_14  and  C12_15 
REMARK    5  A    between atoms: N3_16  and  C12_15 
REMARK    6  A    between atoms: N3_16  and  C13_17 
REMARK    7  A    between atoms: C16_21  and  C17_22 
ROOT
ATOM      1  C8  NON d   1     -43.948  17.730  -4.906  0.00  0.00     0.032 A 
ATOM      2  C9  NON d   1     -42.793  17.150  -4.363  0.00  0.00     0.017 A 
ATOM      3  C10 NON d   1     -41.581  17.841  -4.345  0.00  0.00     0.009 A 
ATOM      4  C11 NON d   1     -41.472  19.135  -4.881  0.00  0.00    -0.045 A 
ATOM      5  C23 NON d   1     -42.626  19.719  -5.419  0.00  0.00     0.009 A 
ATOM      6  C24 NON d   1     -43.853  19.024  -5.436  0.00  0.00     0.017 A 
ENDROOT
BRANCH   4   7
ATOM      7  C12 NON d   1     -40.108  19.798  -4.797  0.00  0.00     0.134 C 
BRANCH   7   8
ATOM      8  N3  NON d   1     -39.857  20.527  -3.565  0.00  0.00    -0.257 NA
ATOM      9  H12 NON d   1     -38.947  20.385  -3.148  0.00  0.00     0.131 HD
BRANCH   8  10
ATOM     10  C13 NON d   1     -40.009  21.908  -3.710  0.00  0.00     0.202 A 
ATOM     11  N4  NON d   1     -39.910  22.467  -4.923  0.00  0.00    -0.231 NA
ATOM     12  C14 NON d   1     -40.055  23.797  -5.006  0.00  0.00     0.122 A 
ATOM     13  C15 NON d   1     -40.314  24.590  -3.921  0.00  0.00     0.053 A 
ATOM     14  C16 NON d   1     -40.414  23.941  -2.707  0.00  0.00     0.090 A 
ATOM     15  N8  NON d   1     -40.239  22.609  -2.589  0.00  0.00    -0.216 NA
BRANCH  14  16
ATOM     16  C17 NON d   1     -40.726  24.686  -1.482  0.00  0.00     0.103 A 
ATOM     17  C18 NON d   1     -41.063  26.026  -1.343  0.00  0.00     0.169 A 
ATOM     18  N5  NON d   1     -41.308  26.377  -0.051  0.00  0.00    -0.072 NA
ATOM     19  C19 NON d   1     -41.140  25.281   0.653  0.00  0.00     0.733 A 
ATOM     20  N6  NON d   1     -41.282  25.131   2.002  0.00  0.00    -0.074 NA
ATOM     21  N7  NON d   1     -40.782  24.207  -0.176  0.00  0.00    -0.151 N 
ATOM     22  C20 NON d   1     -41.069  23.942   2.471  0.00  0.00     0.138 A 
ATOM     23  C21 NON d   1     -40.687  22.742   1.686  0.00  0.00     0.038 A 
ATOM     24  C22 NON d   1     -40.561  22.940   0.367  0.00  0.00     0.117 A 
ENDBRANCH  14  16
ENDBRANCH   8  10
ENDBRANCH   7   8
ENDBRANCH   4   7
BRANCH   1  25
ATOM     25  C7  NON d   1     -45.194  16.892  -4.897  0.00  0.00     0.256 C 
ATOM     26  N2  NON d   1     -46.176  17.217  -3.982  0.00  0.00    -0.321 N 
ATOM     27  H7  NON d   1     -46.045  17.991  -3.343  0.00  0.00     0.169 HD
ATOM     28  O1  NON d   1     -45.263  15.964  -5.701  0.00  0.00    -0.267 OA
BRANCH  26  29
ATOM     29  C6  NON d   1     -47.398  16.535  -3.758  0.00  0.00     0.056 A 
ATOM     30  C5  NON d   1     -47.958  16.317  -2.497  0.00  0.00     0.031 A 
ATOM     31  C4  NON d   1     -49.176  15.643  -2.370  0.00  0.00     0.002 A 
ATOM     32  C3  NON d   1     -49.837  15.172  -3.501  0.00  0.00     0.002 A 
ATOM     33  C2  NON d   1     -49.283  15.374  -4.766  0.00  0.00     0.025 A 
ATOM     34  C1  NON d   1     -48.084  16.083  -4.906  0.00  0.00     0.033 A 
BRANCH  34  35
ATOM     35  N1  NON d   1     -47.440  16.138  -6.174  0.00  0.00    -0.301 NA
ATOM     36  H1  NON d   1     -46.698  15.443  -6.232  0.00  0.00     0.124 HD
ATOM     37  H2  NON d   1     -47.022  17.064  -6.278  0.00  0.00     0.124 HD
ENDBRANCH  34  35
ENDBRANCH  26  29
ENDBRANCH   1  25
TORSDOF 7
ENDMDL
MODEL 5
REMARK VINA RESULT:   -34.751      4.506      6.972
REMARK INTER + INTRA:         -38.176
REMARK INTER:                 -36.839
REMARK INTRA:                  -1.337
REMARK CONF_INDEPENDENT:        2.088
REMARK UNBOUND:                -1.337
REMARK  7 active torsions:
REMARK  status: ('A' for Active; 'I' for Inactive)
REMARK    1  A    between atoms: N1_1  and  C1_2 
REMARK    2  A    between atoms: C6_7  and  N2_8 
REMARK       I    between atoms: N2_8  and  C7_9 
REMARK    3  A    between atoms: C7_9  and  C8_11 
REMARK    4  A    between atoms: C11_14  and  C12_15 
REMARK    5  A    between atoms: N3_16  and  C12_15 
REMARK    6  A    between atoms: N3_16  and  C13_17 
REMARK    7  A    between atoms: C16_21  and  C17_22 
ROOT
ATOM      1  C8  NON d   1     -43.878  17.708  -5.063  0.00  0.00     0.032 A 
ATOM      2  C9  NON d   1     -42.671  17.008  -4.927  0.00  0.00     0.017 A 
ATOM      3  C10 NON d   1     -41.444  17.670  -4.993  0.00  0.00     0.009 A 
ATOM      4  C11 NON d   1     -41.374  19.055  -5.209  0.00  0.00    -0.045 A 
ATOM      5  C23 NON d   1     -42.579  19.759  -5.340  0.00  0.00     0.009 A 
ATOM      6  C24 NON d   1     -43.820  19.093  -5.271  0.00  0.00     0.017 A 
ENDROOT
BRANCH   4   7
ATOM      7  C12 NON d   1     -39.987  19.673  -5.251  0.00  0.00     0.134 C 
BRANCH   7   8
ATOM      8  N3  NON d   1     -39.495  20.156  -3.971  0.00  0.00    -0.257 NA
ATOM      9  H12 NON d   1     -38.501  20.337  -3.922  0.00  0.00     0.131 HD
BRANCH   8  10
ATOM     10  C13 NON d   1     -40.126  21.331  -3.556  0.00  0.00     0.202 A 
ATOM     11  N4  NON d   1     -40.840  22.052  -4.431  0.00  0.00    -0.231 NA
ATOM     12  C14 NON d   1     -41.418  23.175  -3.983  0.00  0.00     0.122 A 
ATOM     13  C15 NON d   1     -41.324  23.598  -2.685  0.00  0.00     0.053 A 
ATOM     14  C16 NON d   1     -40.581  22.798  -1.840  0.00  0.00     0.090 A 
ATOM     15  N8  NON d   1     -39.961  21.681  -2.271  0.00  0.00    -0.216 NA
BRANCH  14  16
ATOM     16  C17 NON d   1     -40.443  23.134  -0.418  0.00  0.00     0.103 A 
ATOM     17  C18 NON d   1     -41.434  23.476   0.493  0.00  0.00     0.169 A 
ATOM     18  N5  NON d   1     -40.945  23.708   1.742  0.00  0.00    -0.072 NA
ATOM     19  C19 NON d   1     -39.649  23.515   1.657  0.00  0.00     0.733 A 
ATOM     20  N6  NON d   1     -38.725  23.623   2.656  0.00  0.00    -0.074 NA
ATOM     21  N7  NON d   1     -39.282  23.158   0.350  0.00  0.00    -0.151 N 
ATOM     22  C20 NON d   1     -37.497  23.375   2.330  0.00  0.00     0.138 A 
ATOM     23  C21 NON d   1     -37.004  22.991   0.984  0.00  0.00     0.038 A 
ATOM     24  C22 NON d   1     -37.947  22.898   0.037  0.00  0.00     0.117 A 
ENDBRANCH  14  16
ENDBRANCH   8  10
ENDBRANCH   7   8
ENDBRANCH   4   7
BRANCH   1  25
ATOM     25  C7  NON d   1     -45.140  16.898  -5.000  0.00  0.00     0.256 C 
ATOM     26  N2  NON d   1     -46.080  17.251  -4.052  0.00  0.00    -0.321 N 
ATOM     27  H7  NON d   1     -45.908  18.027  -3.425  0.00  0.00     0.169 HD
ATOM     28  O1  NON d   1     -45.260  15.966  -5.794  0.00  0.00    -0.267 OA
BRANCH  26  29
ATOM     29  C6  NON d   1     -47.307  16.598  -3.777  0.00  0.00     0.056 A 
ATOM     30  C5  NON d   1     -47.828  16.409  -2.494  0.00  0.00     0.031 A 
ATOM     31  C4  NON d   1     -49.055  15.762  -2.317  0.00  0.00     0.002 A 
ATOM     32  C3  NON d   1     -49.763  15.289  -3.418  0.00  0.00     0.002 A 
ATOM     33  C2  NON d   1     -49.249  15.462  -4.704  0.00  0.00     0.025 A 
ATOM     34  C1  NON d   1     -48.041  16.145  -4.894  0.00  0.00     0.033 A 
BRANCH  34  35
ATOM     35  N1  NON d   1     -47.440  16.168  -6.184  0.00  0.00    -0.301 NA
ATOM     36  H1  NON d   1     -46.785  15.395  -6.291  0.00  0.00     0.124 HD
ATOM     37  H2  NON d   1     -46.921  17.043  -6.277  0.00  0.00     0.124 HD
ENDBRANCH  34  35
ENDBRANCH  26  29
ENDBRANCH   1  25
TORSDOF 7
ENDMDL
MODEL 6
REMARK VINA RESULT:   -34.605      1.320      2.215
REMARK INTER + INTRA:         -37.796
REMARK INTER:                 -36.693
REMARK INTRA:                  -1.102
REMARK CONF_INDEPENDENT:        2.088
REMARK UNBOUND:                -1.102
REMARK  7 active torsions:
REMARK  status: ('A' for Active; 'I' for Inactive)
REMARK    1  A    between atoms: N1_1  and  C1_2 
REMARK    2  A    between atoms: C6_7  and  N2_8 
REMARK       I    between atoms: N2_8  and  C7_9 
REMARK    3  A    between atoms: C7_9  and  C8_11 
REMARK    4  A    between atoms: C11_14  and  C12_15 
REMARK    5  A    between atoms: N3_16  and  C12_15 
REMARK    6  A    between atoms: N3_16  and  C13_17 
REMARK    7  A    between atoms: C16_21  and  C17_22 
ROOT
ATOM      1  C8  NON d   1     -43.890  17.699  -5.060  0.00  0.00     0.032 A 
ATOM      2  C9  NON d   1     -42.683  16.987  -5.088  0.00  0.00     0.017 A 
ATOM      3  C10 NON d   1     -41.458  17.651  -5.170  0.00  0.00     0.009 A 
ATOM      4  C11 NON d   1     -41.391  19.052  -5.239  0.00  0.00    -0.045 A 
ATOM      5  C23 NON d   1     -42.596  19.767  -5.204  0.00  0.00     0.009 A 
ATOM      6  C24 NON d   1     -43.835  19.099  -5.119  0.00  0.00     0.017 A 
ENDROOT
BRANCH   4   7
ATOM      7  C12 NON d   1     -40.005  19.669  -5.313  0.00  0.00     0.134 C 
BRANCH   7   8
ATOM      8  N3  NON d   1     -39.324  19.489  -6.584  0.00  0.00    -0.257 NA
ATOM      9  H12 NON d   1     -39.665  18.733  -7.162  0.00  0.00     0.131 HD
BRANCH   8  10
ATOM     10  C13 NON d   1     -39.353  20.635  -7.382  0.00  0.00     0.202 A 
ATOM     11  N4  NON d   1     -39.933  21.753  -6.925  0.00  0.00    -0.231 NA
ATOM     12  C14 NON d   1     -39.942  22.822  -7.734  0.00  0.00     0.122 A 
ATOM     13  C15 NON d   1     -39.377  22.821  -8.981  0.00  0.00     0.053 A 
ATOM     14  C16 NON d   1     -38.789  21.636  -9.378  0.00  0.00     0.090 A 
ATOM     15  N8  NON d   1     -38.795  20.536  -8.598  0.00  0.00    -0.216 NA
BRANCH  14  16
ATOM     16  C17 NON d   1     -38.120  21.531 -10.680  0.00  0.00     0.103 A 
ATOM     17  C18 NON d   1     -36.980  20.812 -11.014  0.00  0.00     0.169 A 
ATOM     18  N5  NON d   1     -36.650  20.929 -12.330  0.00  0.00    -0.072 NA
ATOM     19  C19 NON d   1     -37.565  21.709 -12.857  0.00  0.00     0.733 A 
ATOM     20  N6  NON d   1     -37.664  22.113 -14.158  0.00  0.00    -0.074 NA
ATOM     21  N7  NON d   1     -38.498  22.110 -11.889  0.00  0.00    -0.151 N 
ATOM     22  C20 NON d   1     -38.665  22.883 -14.445  0.00  0.00     0.138 A 
ATOM     23  C21 NON d   1     -39.703  23.364 -13.499  0.00  0.00     0.038 A 
ATOM     24  C22 NON d   1     -39.564  22.941 -12.237  0.00  0.00     0.117 A 
ENDBRANCH  14  16
ENDBRANCH   8  10
ENDBRANCH   7   8
ENDBRANCH   4   7
BRANCH   1  25
ATOM     25  C7  NON d   1     -45.151  16.888  -4.994  0.00  0.00     0.256 C 
ATOM     26  N2  NON d   1     -46.087  17.238  -4.042  0.00  0.00    -0.321 N 
ATOM     27  H7  NON d   1     -45.914  18.012  -3.412  0.00  0.00     0.169 HD
ATOM     28  O1  NON d   1     -45.273  15.959  -5.790  0.00  0.00    -0.267 OA
BRANCH  26  29
ATOM     29  C6  NON d   1     -47.314  16.584  -3.763  0.00  0.00     0.056 A 
ATOM     30  C5  NON d   1     -47.837  16.404  -2.480  0.00  0.00     0.031 A 
ATOM     31  C4  NON d   1     -49.062  15.755  -2.300  0.00  0.00     0.002 A 
ATOM     32  C3  NON d   1     -49.766  15.271  -3.399  0.00  0.00     0.002 A 
ATOM     33  C2  NON d   1     -49.250  15.435  -4.685  0.00  0.00     0.025 A 
ATOM     34  C1  NON d   1     -48.043  16.119  -4.879  0.00  0.00     0.033 A 
BRANCH  34  35
ATOM     35  N1  NON d   1     -47.440  16.134  -6.167  0.00  0.00    -0.301 NA
ATOM     36  H1  NON d   1     -46.734  15.403  -6.243  0.00  0.00     0.124 HD
ATOM     37  H2  NON d   1     -46.981  17.038  -6.292  0.00  0.00     0.124 HD
ENDBRANCH  34  35
ENDBRANCH  26  29
ENDBRANCH   1  25
TORSDOF 7
ENDMDL
MODEL 7
REMARK VINA RESULT:   -34.603      1.039      1.763
REMARK INTER + INTRA:         -38.025
REMARK INTER:                 -36.691
REMARK INTRA:                  -1.334
REMARK CONF_INDEPENDENT:        2.088
REMARK UNBOUND:                -1.334
REMARK  7 active torsions:
REMARK  status: ('A' for Active; 'I' for Inactive)
REMARK    1  A    between atoms: N1_1  and  C1_2 
REMARK    2  A    between atoms: C6_7  and  N2_8 
REMARK       I    between atoms: N2_8  and  C7_9 
REMARK    3  A    between atoms: C7_9  and  C8_11 
REMARK    4  A    between atoms: C11_14  and  C12_15 
REMARK    5  A    between atoms: N3_16  and  C12_15 
REMARK    6  A    between atoms: N3_16  and  C13_17 
REMARK    7  A    between atoms: C16_21  and  C17_22 
ROOT
ATOM      1  C8  NON d   1     -44.031  17.741  -4.701  0.00  0.00     0.032 A 
ATOM      2  C9  NON d   1     -43.007  17.298  -3.852  0.00  0.00     0.017 A 
ATOM      3  C10 NON d   1     -41.817  18.015  -3.726  0.00  0.00     0.009 A 
ATOM      4  C11 NON d   1     -41.597  19.197  -4.452  0.00  0.00    -0.045 A 
ATOM      5  C23 NON d   1     -42.621  19.646  -5.296  0.00  0.00     0.009 A 
ATOM      6  C24 NON d   1     -43.826  18.925  -5.424  0.00  0.00     0.017 A 
ENDROOT
BRANCH   4   7
ATOM      7  C12 NON d   1     -40.270  19.902  -4.227  0.00  0.00     0.134 C 
BRANCH   7   8
ATOM      8  N3  NON d   1     -40.006  21.009  -5.132  0.00  0.00    -0.257 NA
ATOM      9  H12 NON d   1     -39.302  21.667  -4.827  0.00  0.00     0.131 HD
BRANCH   8  10
ATOM     10  C13 NON d   1     -39.620  20.587  -6.406  0.00  0.00     0.202 A 
ATOM     11  N4  NON d   1     -39.246  19.316  -6.606  0.00  0.00    -0.231 NA
ATOM     12  C14 NON d   1     -38.877  18.966  -7.845  0.00  0.00     0.122 A 
ATOM     13  C15 NON d   1     -38.884  19.836  -8.901  0.00  0.00     0.053 A 
ATOM     14  C16 NON d   1     -39.292  21.125  -8.621  0.00  0.00     0.090 A 
ATOM     15  N8  NON d   1     -39.636  21.514  -7.377  0.00  0.00    -0.216 NA
BRANCH  14  16
ATOM     16  C17 NON d   1     -39.374  22.133  -9.685  0.00  0.00     0.103 A 
ATOM     17  C18 NON d   1     -39.183  21.971 -11.051  0.00  0.00     0.169 A 
ATOM     18  N5  NON d   1     -39.358  23.127 -11.748  0.00  0.00    -0.072 NA
ATOM     19  C19 NON d   1     -39.666  24.038 -10.854  0.00  0.00     0.733 A 
ATOM     20  N6  NON d   1     -39.941  25.357 -11.072  0.00  0.00    -0.074 NA
ATOM     21  N7  NON d   1     -39.692  23.484  -9.565  0.00  0.00    -0.151 N 
ATOM     22  C20 NON d   1     -40.228  26.064 -10.026  0.00  0.00     0.138 A 
ATOM     23  C21 NON d   1     -40.283  25.577  -8.624  0.00  0.00     0.038 A 
ATOM     24  C22 NON d   1     -40.007  24.278  -8.461  0.00  0.00     0.117 A 
ENDBRANCH  14  16
ENDBRANCH   8  10
ENDBRANCH   7   8
ENDBRANCH   4   7
BRANCH   1  25
ATOM     25  C7  NON d   1     -45.261  16.884  -4.782  0.00  0.00     0.256 C 
ATOM     26  N2  NON d   1     -46.275  17.134  -3.879  0.00  0.00    -0.321 N 
ATOM     27  H7  NON d   1     -46.177  17.869  -3.189  0.00  0.00     0.169 HD
ATOM     28  O1  NON d   1     -45.289  16.008  -5.645  0.00  0.00    -0.267 OA
BRANCH  26  29
ATOM     29  C6  NON d   1     -47.490  16.420  -3.735  0.00  0.00     0.056 A 
ATOM     30  C5  NON d   1     -48.090  16.124  -2.508  0.00  0.00     0.031 A 
ATOM     31  C4  NON d   1     -49.298  15.422  -2.461  0.00  0.00     0.002 A 
ATOM     32  C3  NON d   1     -49.909  15.000  -3.639  0.00  0.00     0.002 A 
ATOM     33  C2  NON d   1     -49.315  15.280  -4.871  0.00  0.00     0.025 A 
ATOM     34  C1  NON d   1     -48.126  16.017  -4.929  0.00  0.00     0.033 A 
BRANCH  34  35
ATOM     35  N1  NON d   1     -47.440  16.151  -6.169  0.00  0.00    -0.301 NA
ATOM     36  H1  NON d   1     -46.692  15.463  -6.243  0.00  0.00     0.124 HD
ATOM     37  H2  NON d   1     -47.023  17.083  -6.202  0.00  0.00     0.124 HD
ENDBRANCH  34  35
ENDBRANCH  26  29
ENDBRANCH   1  25
TORSDOF 7
ENDMDL
MODEL 8
REMARK VINA RESULT:   -34.295      4.777      7.266
REMARK INTER + INTRA:         -37.327
REMARK INTER:                 -36.383
REMARK INTRA:                  -0.944
REMARK CONF_INDEPENDENT:        2.088
REMARK UNBOUND:                -0.944
REMARK  7 active torsions:
REMARK  status: ('A' for Active; 'I' for Inactive)
REMARK    1  A    between atoms: N1_1  and  C1_2 
REMARK    2  A    between atoms: C6_7  and  N2_8 
REMARK       I    between atoms: N2_8  and  C7_9 
REMARK    3  A    between atoms: C7_9  and  C8_11 
REMARK    4  A    between atoms: C11_14  and  C12_15 
REMARK    5  A    between atoms: N3_16  and  C12_15 
REMARK    6  A    between atoms: N3_16  and  C13_17 
REMARK    7  A    between atoms: C16_21  and  C17_22 
ROOT
ATOM      1  C8  NON d   1     -43.763  17.977  -4.581  0.00  0.00     0.032 A 
ATOM      2  C9  NON d   1     -43.011  17.305  -3.607  0.00  0.00     0.017 A 
ATOM      3  C10 NON d   1     -41.638  17.518  -3.485  0.00  0.00     0.009 A 
ATOM      4  C11 NON d   1     -40.959  18.402  -4.339  0.00  0.00    -0.045 A 
ATOM      5  C23 NON d   1     -41.708  19.079  -5.310  0.00  0.00     0.009 A 
ATOM      6  C24 NON d   1     -43.097  18.868  -5.434  0.00  0.00     0.017 A 
ENDROOT
BRANCH   4   7
ATOM      7  C12 NON d   1     -39.466  18.566  -4.109  0.00  0.00     0.134 C 
BRANCH   7   8
ATOM      8  N3  NON d   1     -39.071  19.850  -3.553  0.00  0.00    -0.257 NA
ATOM      9  H12 NON d   1     -39.822  20.420  -3.188  0.00  0.00     0.131 HD
BRANCH   8  10
ATOM     10  C13 NON d   1     -38.135  19.730  -2.522  0.00  0.00     0.202 A 
ATOM     11  N4  NON d   1     -37.175  18.799  -2.596  0.00  0.00    -0.231 NA
ATOM     12  C14 NON d   1     -36.309  18.720  -1.577  0.00  0.00     0.122 A 
ATOM     13  C15 NON d   1     -36.355  19.551  -0.490  0.00  0.00     0.053 A 
ATOM     14  C16 NON d   1     -37.365  20.492  -0.490  0.00  0.00     0.090 A 
ATOM     15  N8  NON d   1     -38.271  20.572  -1.486  0.00  0.00    -0.216 NA
BRANCH  14  16
ATOM     16  C17 NON d   1     -37.489  21.460   0.607  0.00  0.00     0.103 A 
ATOM     17  C18 NON d   1     -36.560  21.783   1.587  0.00  0.00     0.169 A 
ATOM     18  N5  NON d   1     -37.007  22.746   2.439  0.00  0.00    -0.072 NA
ATOM     19  C19 NON d   1     -38.212  23.057   2.023  0.00  0.00     0.733 A 
ATOM     20  N6  NON d   1     -39.062  23.982   2.556  0.00  0.00    -0.074 NA
ATOM     21  N7  NON d   1     -38.562  22.298   0.896  0.00  0.00    -0.151 N 
ATOM     22  C20 NON d   1     -40.205  24.120   1.962  0.00  0.00     0.138 A 
ATOM     23  C21 NON d   1     -40.673  23.370   0.770  0.00  0.00     0.038 A 
ATOM     24  C22 NON d   1     -39.804  22.474   0.283  0.00  0.00     0.117 A 
ENDBRANCH  14  16
ENDBRANCH   8  10
ENDBRANCH   7   8
ENDBRANCH   4   7
BRANCH   1  25
ATOM     25  C7  NON d   1     -45.229  17.658  -4.643  0.00  0.00     0.256 C 
ATOM     26  N2  NON d   1     -45.795  17.039  -3.546  0.00  0.00    -0.321 N 
ATOM     27  H7  NON d   1     -45.229  16.808  -2.738  0.00  0.00     0.169 HD
ATOM     28  O1  NON d   1     -45.836  17.964  -5.667  0.00  0.00    -0.267 OA
BRANCH  26  29
ATOM     29  C6  NON d   1     -47.134  16.597  -3.407  0.00  0.00     0.056 A 
ATOM     30  C5  NON d   1     -47.819  16.527  -2.191  0.00  0.00     0.031 A 
ATOM     31  C4  NON d   1     -49.145  16.088  -2.150  0.00  0.00     0.002 A 
ATOM     32  C3  NON d   1     -49.793  15.705  -3.320  0.00  0.00     0.002 A 
ATOM     33  C2  NON d   1     -49.118  15.760  -4.541  0.00  0.00     0.025 A 
ATOM     34  C1  NON d   1     -47.802  16.236  -4.597  0.00  0.00     0.033 A 
BRANCH  34  35
ATOM     35  N1  NON d   1     -47.065  16.130  -5.810  0.00  0.00    -0.301 NA
ATOM     36  H1  NON d   1     -46.065  16.080  -5.621  0.00  0.00     0.124 HD
ATOM     37  H2  NON d   1     -47.246  16.968  -6.366  0.00  0.00     0.124 HD
ENDBRANCH  34  35
ENDBRANCH  26  29
ENDBRANCH   1  25
TORSDOF 7
ENDMDL
MODEL 9
REMARK VINA RESULT:   -34.294      4.197      6.423
REMARK INTER + INTRA:         -37.813
REMARK INTER:                 -36.382
REMARK INTRA:                  -1.430
REMARK CONF_INDEPENDENT:        2.088
REMARK UNBOUND:                -1.430
REMARK  7 active torsions:
REMARK  status: ('A' for Active; 'I' for Inactive)
REMARK    1  A    between atoms: N1_1  and  C1_2 
REMARK    2  A    between atoms: C6_7  and  N2_8 
REMARK       I    between atoms: N2_8  and  C7_9 
REMARK    3  A    between atoms: C7_9  and  C8_11 
REMARK    4  A    between atoms: C11_14  and  C12_15 
REMARK    5  A    between atoms: N3_16  and  C12_15 
REMARK    6  A    between atoms: N3_16  and  C13_17 
REMARK    7  A    between atoms: C16_21  and  C17_22 
ROOT
ATOM      1  C8  NON d   1     -43.874  17.678  -5.062  0.00  0.00     0.032 A 
ATOM      2  C9  NON d   1     -42.676  17.017  -4.758  0.00  0.00     0.017 A 
ATOM      3  C10 NON d   1     -41.452  17.685  -4.817  0.00  0.00     0.009 A 
ATOM      4  C11 NON d   1     -41.376  19.036  -5.193  0.00  0.00    -0.045 A 
ATOM      5  C23 NON d   1     -42.572  19.700  -5.491  0.00  0.00     0.009 A 
ATOM      6  C24 NON d   1     -43.811  19.029  -5.429  0.00  0.00     0.017 A 
ENDROOT
BRANCH   4   7
ATOM      7  C12 NON d   1     -39.993  19.665  -5.211  0.00  0.00     0.134 C 
BRANCH   7   8
ATOM      8  N3  NON d   1     -39.001  18.982  -4.397  0.00  0.00    -0.257 NA
ATOM      9  H12 NON d   1     -38.133  18.751  -4.863  0.00  0.00     0.131 HD
BRANCH   8  10
ATOM     10  C13 NON d   1     -38.650  19.703  -3.253  0.00  0.00     0.202 A 
ATOM     11  N4  NON d   1     -37.573  19.345  -2.542  0.00  0.00    -0.231 NA
ATOM     12  C14 NON d   1     -37.285  20.064  -1.448  0.00  0.00     0.122 A 
ATOM     13  C15 NON d   1     -38.027  21.142  -1.046  0.00  0.00     0.053 A 
ATOM     14  C16 NON d   1     -39.116  21.456  -1.834  0.00  0.00     0.090 A 
ATOM     15  N8  NON d   1     -39.447  20.730  -2.921  0.00  0.00    -0.216 NA
BRANCH  14  16
ATOM     16  C17 NON d   1     -39.961  22.614  -1.519  0.00  0.00     0.103 A 
ATOM     17  C18 NON d   1     -40.739  23.380  -2.377  0.00  0.00     0.169 A 
ATOM     18  N5  NON d   1     -41.412  24.373  -1.734  0.00  0.00    -0.072 NA
ATOM     19  C19 NON d   1     -41.087  24.259  -0.467  0.00  0.00     0.733 A 
ATOM     20  N6  NON d   1     -41.518  25.029   0.574  0.00  0.00    -0.074 NA
ATOM     21  N7  NON d   1     -40.196  23.192  -0.274  0.00  0.00    -0.151 N 
ATOM     22  C20 NON d   1     -41.061  24.718   1.745  0.00  0.00     0.138 A 
ATOM     23  C21 NON d   1     -40.119  23.614   2.057  0.00  0.00     0.038 A 
ATOM     24  C22 NON d   1     -39.726  22.887   1.004  0.00  0.00     0.117 A 
ENDBRANCH  14  16
ENDBRANCH   8  10
ENDBRANCH   7   8
ENDBRANCH   4   7
BRANCH   1  25
ATOM     25  C7  NON d   1     -45.133  16.862  -4.990  0.00  0.00     0.256 C 
ATOM     26  N2  NON d   1     -46.083  17.234  -4.061  0.00  0.00    -0.321 N 
ATOM     27  H7  NON d   1     -45.923  18.027  -3.452  0.00  0.00     0.169 HD
ATOM     28  O1  NON d   1     -45.239  15.909  -5.761  0.00  0.00    -0.267 OA
BRANCH  26  29
ATOM     29  C6  NON d   1     -47.310  16.581  -3.780  0.00  0.00     0.056 A 
ATOM     30  C5  NON d   1     -47.832  16.402  -2.497  0.00  0.00     0.031 A 
ATOM     31  C4  NON d   1     -49.057  15.755  -2.315  0.00  0.00     0.002 A 
ATOM     32  C3  NON d   1     -49.764  15.271  -3.412  0.00  0.00     0.002 A 
ATOM     33  C2  NON d   1     -49.249  15.433  -4.699  0.00  0.00     0.025 A 
ATOM     34  C1  NON d   1     -48.042  16.116  -4.895  0.00  0.00     0.033 A 
BRANCH  34  35
ATOM     35  N1  NON d   1     -47.440  16.130  -6.184  0.00  0.00    -0.301 NA
ATOM     36  H1  NON d   1     -46.709  15.423  -6.248  0.00  0.00     0.124 HD
ATOM     37  H2  NON d   1     -47.013  17.047  -6.325  0.00  0.00     0.124 HD
ENDBRANCH  34  35
ENDBRANCH  26  29
ENDBRANCH   1  25
TORSDOF 7
ENDMDL
