MODEL 1
REMARK VINA RESULT:   -35.136      0.000      0.000
REMARK INTER + INTRA:         -37.820
REMARK INTER:                 -36.628
REMARK INTRA:                  -1.192
REMARK CONF_INDEPENDENT:        1.492
REMARK UNBOUND:                -1.192
REMARK  5 active torsions:
REMARK  status: ('A' for Active; 'I' for Inactive)
REMARK    1  A    between atoms: N1_1  and  C1_2 
REMARK    2  A    between atoms: C6_7  and  N2_8 
REMARK       I    between atoms: N2_8  and  C7_9 
REMARK    3  A    between atoms: C7_9  and  C8_11 
REMARK    4  A    between atoms: C11_14  and  C12_15 
REMARK    5  A    between atoms: C12_15  and  C13_16 
ROOT
ATOM      1  C8  NON d   1     -43.968  17.625  -4.935  0.00  0.00     0.032 A 
ATOM      2  C9  NON d   1     -42.823  16.972  -4.480  0.00  0.00     0.017 A 
ATOM      3  C10 NON d   1     -41.576  17.591  -4.587  0.00  0.00     0.008 A 
ATOM      4  C11 NON d   1     -41.435  18.882  -5.137  0.00  0.00    -0.054 A 
ATOM      5  C22 NON d   1     -42.599  19.554  -5.520  0.00  0.00     0.008 A 
ATOM      6  C23 NON d   1     -43.854  18.926  -5.441  0.00  0.00     0.017 A 
ENDROOT
BRANCH   1   7
ATOM      7  C7  NON d   1     -45.273  16.909  -4.817  0.00  0.00     0.256 C 
ATOM      8  N2  NON d   1     -46.059  17.280  -3.744  0.00  0.00    -0.321 N 
ATOM      9  H7  NON d   1     -45.764  18.069  -3.183  0.00  0.00     0.169 HD
ATOM     10  O1  NON d   1     -45.549  16.071  -5.667  0.00  0.00    -0.267 OA
BRANCH   8  11
ATOM     11  C6  NON d   1     -47.345  16.798  -3.401  0.00  0.00     0.056 A 
ATOM     12  C5  NON d   1     -47.804  16.676  -2.086  0.00  0.00     0.031 A 
ATOM     13  C4  NON d   1     -49.054  16.110  -1.824  0.00  0.00     0.002 A 
ATOM     14  C3  NON d   1     -49.849  15.648  -2.870  0.00  0.00     0.002 A 
ATOM     15  C2  NON d   1     -49.405  15.773  -4.186  0.00  0.00     0.025 A 
ATOM     16  C1  NON d   1     -48.181  16.392  -4.465  0.00  0.00     0.033 A 
BRANCH  16  17
ATOM     17  N1  NON d   1     -47.746  16.504  -5.809  0.00  0.00    -0.301 NA
ATOM     18  H1  NON d   1     -47.257  17.378  -5.984  0.00  0.00     0.124 HD
ATOM     19  H2  NON d   1     -47.153  15.717  -6.059  0.00  0.00     0.124 HD
ENDBRANCH  16  17
ENDBRANCH   8  11
ENDBRANCH   1   7
BRANCH   4  20
ATOM     20  C12 NON d   1     -40.019  19.422  -5.208  0.00  0.00     0.083 C 
BRANCH  20  21
ATOM     21  C13 NON d   1     -39.247  19.657  -6.477  0.00  0.00     0.019 C 
ATOM     22  C14 NON d   1     -38.082  19.005  -6.671  0.00  0.00     0.154 C 
ATOM     23  O2  NON d   1     -37.306  19.002  -7.800  0.00  0.00    -0.321 OA
ATOM     24  C15 NON d   1     -37.657  19.861  -8.807  0.00  0.00     0.089 A 
ATOM     25  C16 NON d   1     -36.789  19.955  -9.896  0.00  0.00     0.038 A 
ATOM     26  C20 NON d   1     -38.818  20.627  -8.764  0.00  0.00     0.048 A 
ATOM     27  C17 NON d   1     -37.063  20.858 -10.922  0.00  0.00     0.003 A 
ATOM     28  C18 NON d   1     -38.204  21.659 -10.862  0.00  0.00     0.001 A 
ATOM     29  C19 NON d   1     -39.091  21.538  -9.789  0.00  0.00     0.018 A 
ATOM     30  C21 NON d   1     -39.751  20.443  -7.632  0.00  0.00     0.193 C 
ATOM     31  O3  NON d   1     -40.879  20.915  -7.680  0.00  0.00    -0.287 OA
ENDBRANCH  20  21
ENDBRANCH   4  20
TORSDOF 5
ENDMDL
MODEL 2
REMARK VINA RESULT:   -35.064      1.322      1.673
REMARK INTER + INTRA:         -37.619
REMARK INTER:                 -36.555
REMARK INTRA:                  -1.063
REMARK CONF_INDEPENDENT:        1.492
REMARK UNBOUND:                -1.063
REMARK  5 active torsions:
REMARK  status: ('A' for Active; 'I' for Inactive)
REMARK    1  A    between atoms: N1_1  and  C1_2 
REMARK    2  A    between atoms: C6_7  and  N2_8 
REMARK       I    between atoms: N2_8  and  C7_9 
REMARK    3  A    between atoms: C7_9  and  C8_11 
REMARK    4  A    between atoms: C11_14  and  C12_15 
REMARK    5  A    between atoms: C12_15  and  C13_16 
ROOT
ATOM      1  C8  NON d   1     -43.879  17.660  -5.061  0.00  0.00     0.032 A 
ATOM      2  C9  NON d   1     -42.656  16.988  -5.075  0.00  0.00     0.017 A 
ATOM      3  C10 NON d   1     -41.463  17.709  -5.145  0.00  0.00     0.008 A 
ATOM      4  C11 NON d   1     -41.451  19.119  -5.190  0.00  0.00    -0.054 A 
ATOM      5  C22 NON d   1     -42.678  19.781  -5.101  0.00  0.00     0.008 A 
ATOM      6  C23 NON d   1     -43.885  19.061  -5.058  0.00  0.00     0.017 A 
ENDROOT
BRANCH   1   7
ATOM      7  C7  NON d   1     -45.125  16.840  -5.007  0.00  0.00     0.256 C 
ATOM      8  N2  NON d   1     -46.041  17.214  -4.043  0.00  0.00    -0.321 N 
ATOM      9  H7  NON d   1     -45.869  18.064  -3.522  0.00  0.00     0.169 HD
ATOM     10  O1  NON d   1     -45.246  15.922  -5.810  0.00  0.00    -0.267 OA
BRANCH   8  11
ATOM     11  C6  NON d   1     -47.310  16.643  -3.782  0.00  0.00     0.056 A 
ATOM     12  C5  NON d   1     -47.887  16.581  -2.511  0.00  0.00     0.031 A 
ATOM     13  C4  NON d   1     -49.106  15.924  -2.320  0.00  0.00     0.002 A 
ATOM     14  C3  NON d   1     -49.750  15.313  -3.393  0.00  0.00     0.002 A 
ATOM     15  C2  NON d   1     -49.187  15.377  -4.668  0.00  0.00     0.025 A 
ATOM     16  C1  NON d   1     -47.997  16.082  -4.882  0.00  0.00     0.033 A 
BRANCH  16  17
ATOM     17  N1  NON d   1     -47.440  16.130  -6.184  0.00  0.00    -0.301 NA
ATOM     18  H1  NON d   1     -47.081  17.053  -6.415  0.00  0.00     0.124 HD
ATOM     19  H2  NON d   1     -46.704  15.435  -6.284  0.00  0.00     0.124 HD
ENDBRANCH  16  17
ENDBRANCH   8  11
ENDBRANCH   1   7
BRANCH   4  20
ATOM     20  C12 NON d   1     -40.083  19.768  -5.285  0.00  0.00     0.083 C 
BRANCH  20  21
ATOM     21  C13 NON d   1     -39.670  20.762  -6.335  0.00  0.00     0.019 C 
ATOM     22  C14 NON d   1     -39.084  21.916  -5.958  0.00  0.00     0.154 C 
ATOM     23  O2  NON d   1     -38.541  22.880  -6.767  0.00  0.00    -0.321 OA
ATOM     24  C15 NON d   1     -38.727  22.747  -8.116  0.00  0.00     0.089 A 
ATOM     25  C16 NON d   1     -38.293  23.797  -8.926  0.00  0.00     0.038 A 
ATOM     26  C20 NON d   1     -39.332  21.627  -8.679  0.00  0.00     0.048 A 
ATOM     27  C17 NON d   1     -38.513  23.745 -10.302  0.00  0.00     0.003 A 
ATOM     28  C18 NON d   1     -39.157  22.643 -10.866  0.00  0.00     0.001 A 
ATOM     29  C19 NON d   1     -39.559  21.576 -10.058  0.00  0.00     0.018 A 
ATOM     30  C21 NON d   1     -39.708  20.501  -7.797  0.00  0.00     0.193 C 
ATOM     31  O3  NON d   1     -40.017  19.419  -8.277  0.00  0.00    -0.287 OA
ENDBRANCH  20  21
ENDBRANCH   4  20
TORSDOF 5
ENDMDL
MODEL 3
REMARK VINA RESULT:   -34.809      3.497      5.135
REMARK INTER + INTRA:         -36.332
REMARK INTER:                 -36.300
REMARK INTRA:                  -0.031
REMARK CONF_INDEPENDENT:        1.492
REMARK UNBOUND:                -0.031
REMARK  5 active torsions:
REMARK  status: ('A' for Active; 'I' for Inactive)
REMARK    1  A    between atoms: N1_1  and  C1_2 
REMARK    2  A    between atoms: C6_7  and  N2_8 
REMARK       I    between atoms: N2_8  and  C7_9 
REMARK    3  A    between atoms: C7_9  and  C8_11 
REMARK    4  A    between atoms: C11_14  and  C12_15 
REMARK    5  A    between atoms: C12_15  and  C13_16 
ROOT
ATOM      1  C8  NON d   1     -43.952  17.608  -4.794  0.00  0.00     0.032 A 
ATOM      2  C9  NON d   1     -44.012  18.943  -5.194  0.00  0.00     0.017 A 
ATOM      3  C10 NON d   1     -42.875  19.748  -5.117  0.00  0.00     0.008 A 
ATOM      4  C11 NON d   1     -41.642  19.246  -4.651  0.00  0.00    -0.054 A 
ATOM      5  C22 NON d   1     -41.577  17.889  -4.324  0.00  0.00     0.008 A 
ATOM      6  C23 NON d   1     -42.725  17.079  -4.373  0.00  0.00     0.017 A 
ENDROOT
BRANCH   1   7
ATOM      7  C7  NON d   1     -45.203  16.797  -4.878  0.00  0.00     0.256 C 
ATOM      8  N2  NON d   1     -46.137  17.043  -3.892  0.00  0.00    -0.321 N 
ATOM      9  H7  NON d   1     -45.974  17.812  -3.255  0.00  0.00     0.169 HD
ATOM     10  O1  NON d   1     -45.310  15.999  -5.802  0.00  0.00    -0.267 OA
BRANCH   8  11
ATOM     11  C6  NON d   1     -47.414  16.450  -3.738  0.00  0.00     0.056 A 
ATOM     12  C5  NON d   1     -48.045  16.274  -2.503  0.00  0.00     0.031 A 
ATOM     13  C4  NON d   1     -49.268  15.602  -2.424  0.00  0.00     0.002 A 
ATOM     14  C3  NON d   1     -49.863  15.090  -3.574  0.00  0.00     0.002 A 
ATOM     15  C2  NON d   1     -49.246  15.268  -4.813  0.00  0.00     0.025 A 
ATOM     16  C1  NON d   1     -48.051  15.990  -4.912  0.00  0.00     0.033 A 
BRANCH  16  17
ATOM     17  N1  NON d   1     -47.439  16.155  -6.179  0.00  0.00    -0.301 NA
ATOM     18  H1  NON d   1     -47.282  15.267  -6.649  0.00  0.00     0.124 HD
ATOM     19  H2  NON d   1     -47.998  16.766  -6.769  0.00  0.00     0.124 HD
ENDBRANCH  16  17
ENDBRANCH   8  11
ENDBRANCH   1   7
BRANCH   4  20
ATOM     20  C12 NON d   1     -40.496  20.239  -4.602  0.00  0.00     0.083 C 
BRANCH  20  21
ATOM     21  C13 NON d   1     -40.563  21.605  -3.976  0.00  0.00     0.019 C 
ATOM     22  C14 NON d   1     -41.065  22.634  -4.689  0.00  0.00     0.154 C 
ATOM     23  O2  NON d   1     -41.310  23.910  -4.253  0.00  0.00    -0.321 OA
ATOM     24  C15 NON d   1     -40.872  24.241  -2.999  0.00  0.00     0.089 A 
ATOM     25  C16 NON d   1     -41.000  25.575  -2.611  0.00  0.00     0.038 A 
ATOM     26  C20 NON d   1     -40.310  23.307  -2.133  0.00  0.00     0.048 A 
ATOM     27  C17 NON d   1     -40.516  25.983  -1.369  0.00  0.00     0.003 A 
ATOM     28  C18 NON d   1     -39.912  25.059  -0.515  0.00  0.00     0.001 A 
ATOM     29  C19 NON d   1     -39.818  23.716  -0.890  0.00  0.00     0.018 A 
ATOM     30  C21 NON d   1     -40.263  21.889  -2.549  0.00  0.00     0.193 C 
ATOM     31  O3  NON d   1     -40.000  21.016  -1.733  0.00  0.00    -0.287 OA
ENDBRANCH  20  21
ENDBRANCH   4  20
TORSDOF 5
ENDMDL
MODEL 4
REMARK VINA RESULT:   -34.705      3.582      5.349
REMARK INTER + INTRA:         -37.246
REMARK INTER:                 -36.196
REMARK INTRA:                  -1.050
REMARK CONF_INDEPENDENT:        1.492
REMARK UNBOUND:                -1.050
REMARK  5 active torsions:
REMARK  status: ('A' for Active; 'I' for Inactive)
REMARK    1  A    between atoms: N1_1  and  C1_2 
REMARK    2  A    between atoms: C6_7  and  N2_8 
REMARK       I    between atoms: N2_8  and  C7_9 
REMARK    3  A    between atoms: C7_9  and  C8_11 
REMARK    4  A    between atoms: C11_14  and  C12_15 
REMARK    5  A    between atoms: C12_15  and  C13_16 
ROOT
ATOM      1  C8  NON d   1     -43.944  17.721  -4.731  0.00  0.00     0.032 A 
ATOM      2  C9  NON d   1     -42.951  17.294  -3.849  0.00  0.00     0.017 A 
ATOM      3  C10 NON d   1     -41.770  18.026  -3.717  0.00  0.00     0.008 A 
ATOM      4  C11 NON d   1     -41.548  19.211  -4.449  0.00  0.00    -0.054 A 
ATOM      5  C22 NON d   1     -42.581  19.667  -5.273  0.00  0.00     0.008 A 
ATOM      6  C23 NON d   1     -43.761  18.920  -5.431  0.00  0.00     0.017 A 
ENDROOT
BRANCH   1   7
ATOM      7  C7  NON d   1     -45.178  16.889  -4.848  0.00  0.00     0.256 C 
ATOM      8  N2  NON d   1     -46.120  17.081  -3.857  0.00  0.00    -0.321 N 
ATOM      9  H7  NON d   1     -45.973  17.830  -3.193  0.00  0.00     0.169 HD
ATOM     10  O1  NON d   1     -45.267  16.123  -5.800  0.00  0.00    -0.267 OA
BRANCH   8  11
ATOM     11  C6  NON d   1     -47.385  16.459  -3.729  0.00  0.00     0.056 A 
ATOM     12  C5  NON d   1     -47.997  16.186  -2.502  0.00  0.00     0.031 A 
ATOM     13  C4  NON d   1     -49.208  15.491  -2.456  0.00  0.00     0.002 A 
ATOM     14  C3  NON d   1     -49.811  15.051  -3.631  0.00  0.00     0.002 A 
ATOM     15  C2  NON d   1     -49.215  15.326  -4.862  0.00  0.00     0.025 A 
ATOM     16  C1  NON d   1     -48.032  16.072  -4.925  0.00  0.00     0.033 A 
BRANCH  16  17
ATOM     17  N1  NON d   1     -47.440  16.335  -6.185  0.00  0.00    -0.301 NA
ATOM     18  H1  NON d   1     -47.044  17.270  -6.236  0.00  0.00     0.124 HD
ATOM     19  H2  NON d   1     -46.726  15.643  -6.396  0.00  0.00     0.124 HD
ENDBRANCH  16  17
ENDBRANCH   8  11
ENDBRANCH   1   7
BRANCH   4  20
ATOM     20  C12 NON d   1     -40.212  19.892  -4.221  0.00  0.00     0.083 C 
BRANCH  20  21
ATOM     21  C13 NON d   1     -39.741  20.455  -2.909  0.00  0.00     0.019 C 
ATOM     22  C14 NON d   1     -38.676  19.900  -2.296  0.00  0.00     0.154 C 
ATOM     23  O2  NON d   1     -38.039  20.343  -1.166  0.00  0.00    -0.321 OA
ATOM     24  C15 NON d   1     -38.615  21.381  -0.485  0.00  0.00     0.089 A 
ATOM     25  C16 NON d   1     -38.041  21.739   0.735  0.00  0.00     0.038 A 
ATOM     26  C20 NON d   1     -39.733  22.059  -0.964  0.00  0.00     0.048 A 
ATOM     27  C17 NON d   1     -38.621  22.749   1.502  0.00  0.00     0.003 A 
ATOM     28  C18 NON d   1     -39.767  23.401   1.047  0.00  0.00     0.001 A 
ATOM     29  C19 NON d   1     -40.320  23.066  -0.192  0.00  0.00     0.018 A 
ATOM     30  C21 NON d   1     -40.266  21.702  -2.296  0.00  0.00     0.193 C 
ATOM     31  O3  NON d   1     -41.086  22.426  -2.845  0.00  0.00    -0.287 OA
ENDBRANCH  20  21
ENDBRANCH   4  20
TORSDOF 5
ENDMDL
MODEL 5
REMARK VINA RESULT:   -34.673      2.122      2.851
REMARK INTER + INTRA:         -36.455
REMARK INTER:                 -36.165
REMARK INTRA:                  -0.290
REMARK CONF_INDEPENDENT:        1.492
REMARK UNBOUND:                -0.290
REMARK  5 active torsions:
REMARK  status: ('A' for Active; 'I' for Inactive)
REMARK    1  A    between atoms: N1_1  and  C1_2 
REMARK    2  A    between atoms: C6_7  and  N2_8 
REMARK       I    between atoms: N2_8  and  C7_9 
REMARK    3  A    between atoms: C7_9  and  C8_11 
REMARK    4  A    between atoms: C11_14  and  C12_15 
REMARK    5  A    between atoms: C12_15  and  C13_16 
ROOT
ATOM      1  C8  NON d   1     -43.922  17.646  -4.714  0.00  0.00     0.032 A 
ATOM      2  C9  NON d   1     -43.877  18.839  -5.435  0.00  0.00     0.017 A 
ATOM      3  C10 NON d   1     -42.732  19.637  -5.397  0.00  0.00     0.008 A 
ATOM      4  C11 NON d   1     -41.594  19.264  -4.652  0.00  0.00    -0.054 A 
ATOM      5  C22 NON d   1     -41.625  18.031  -3.994  0.00  0.00     0.008 A 
ATOM      6  C23 NON d   1     -42.785  17.236  -4.006  0.00  0.00     0.017 A 
ENDROOT
BRANCH   1   7
ATOM      7  C7  NON d   1     -45.178  16.842  -4.773  0.00  0.00     0.256 C 
ATOM      8  N2  NON d   1     -46.120  17.139  -3.808  0.00  0.00    -0.321 N 
ATOM      9  H7  NON d   1     -45.955  17.935  -3.205  0.00  0.00     0.169 HD
ATOM     10  O1  NON d   1     -45.284  16.003  -5.661  0.00  0.00    -0.267 OA
BRANCH   8  11
ATOM     11  C6  NON d   1     -47.402  16.563  -3.639  0.00  0.00     0.056 A 
ATOM     12  C5  NON d   1     -48.031  16.416  -2.399  0.00  0.00     0.031 A 
ATOM     13  C4  NON d   1     -49.261  15.760  -2.305  0.00  0.00     0.002 A 
ATOM     14  C3  NON d   1     -49.866  15.234  -3.443  0.00  0.00     0.002 A 
ATOM     15  C2  NON d   1     -49.252  15.384  -4.687  0.00  0.00     0.025 A 
ATOM     16  C1  NON d   1     -48.049  16.090  -4.803  0.00  0.00     0.033 A 
BRANCH  16  17
ATOM     17  N1  NON d   1     -47.440  16.226  -6.075  0.00  0.00    -0.301 NA
ATOM     18  H1  NON d   1     -48.091  16.045  -6.834  0.00  0.00     0.124 HD
ATOM     19  H2  NON d   1     -47.033  17.153  -6.179  0.00  0.00     0.124 HD
ENDBRANCH  16  17
ENDBRANCH   8  11
ENDBRANCH   1   7
BRANCH   4  20
ATOM     20  C12 NON d   1     -40.430  20.237  -4.685  0.00  0.00     0.083 C 
BRANCH  20  21
ATOM     21  C13 NON d   1     -40.230  21.309  -5.720  0.00  0.00     0.019 C 
ATOM     22  C14 NON d   1     -40.316  20.990  -7.027  0.00  0.00     0.154 C 
ATOM     23  O2  NON d   1     -40.279  21.843  -8.099  0.00  0.00    -0.321 OA
ATOM     24  C15 NON d   1     -39.978  23.155  -7.848  0.00  0.00     0.089 A 
ATOM     25  C16 NON d   1     -39.806  23.991  -8.952  0.00  0.00     0.038 A 
ATOM     26  C20 NON d   1     -39.834  23.654  -6.557  0.00  0.00     0.048 A 
ATOM     27  C17 NON d   1     -39.438  25.323  -8.759  0.00  0.00     0.003 A 
ATOM     28  C18 NON d   1     -39.251  25.816  -7.468  0.00  0.00     0.001 A 
ATOM     29  C19 NON d   1     -39.458  24.987  -6.363  0.00  0.00     0.018 A 
ATOM     30  C21 NON d   1     -40.100  22.757  -5.413  0.00  0.00     0.193 C 
ATOM     31  O3  NON d   1     -40.216  23.215  -4.284  0.00  0.00    -0.287 OA
ENDBRANCH  20  21
ENDBRANCH   4  20
TORSDOF 5
ENDMDL
MODEL 6
REMARK VINA RESULT:   -34.352      3.546      5.379
REMARK INTER + INTRA:         -36.929
REMARK INTER:                 -35.843
REMARK INTRA:                  -1.085
REMARK CONF_INDEPENDENT:        1.492
REMARK UNBOUND:                -1.085
REMARK  5 active torsions:
REMARK  status: ('A' for Active; 'I' for Inactive)
REMARK    1  A    between atoms: N1_1  and  C1_2 
REMARK    2  A    between atoms: C6_7  and  N2_8 
REMARK       I    between atoms: N2_8  and  C7_9 
REMARK    3  A    between atoms: C7_9  and  C8_11 
REMARK    4  A    between atoms: C11_14  and  C12_15 
REMARK    5  A    between atoms: C12_15  and  C13_16 
ROOT
ATOM      1  C8  NON d   1     -43.968  17.681  -4.729  0.00  0.00     0.032 A 
ATOM      2  C9  NON d   1     -42.893  17.181  -3.995  0.00  0.00     0.017 A 
ATOM      3  C10 NON d   1     -41.715  17.922  -3.886  0.00  0.00     0.008 A 
ATOM      4  C11 NON d   1     -41.577  19.187  -4.494  0.00  0.00    -0.054 A 
ATOM      5  C22 NON d   1     -42.687  19.709  -5.164  0.00  0.00     0.008 A 
ATOM      6  C23 NON d   1     -43.867  18.956  -5.300  0.00  0.00     0.017 A 
ENDROOT
BRANCH   1   7
ATOM      7  C7  NON d   1     -45.197  16.839  -4.830  0.00  0.00     0.256 C 
ATOM      8  N2  NON d   1     -46.159  17.074  -3.868  0.00  0.00    -0.321 N 
ATOM      9  H7  NON d   1     -46.028  17.855  -3.238  0.00  0.00     0.169 HD
ATOM     10  O1  NON d   1     -45.264  16.027  -5.746  0.00  0.00    -0.267 OA
BRANCH   8  11
ATOM     11  C6  NON d   1     -47.424  16.453  -3.735  0.00  0.00     0.056 A 
ATOM     12  C5  NON d   1     -48.054  16.227  -2.507  0.00  0.00     0.031 A 
ATOM     13  C4  NON d   1     -49.263  15.530  -2.451  0.00  0.00     0.002 A 
ATOM     14  C3  NON d   1     -49.846  15.041  -3.617  0.00  0.00     0.002 A 
ATOM     15  C2  NON d   1     -49.231  15.268  -4.849  0.00  0.00     0.025 A 
ATOM     16  C1  NON d   1     -48.050  16.016  -4.923  0.00  0.00     0.033 A 
BRANCH  16  17
ATOM     17  N1  NON d   1     -47.440  16.230  -6.184  0.00  0.00    -0.301 NA
ATOM     18  H1  NON d   1     -47.080  17.176  -6.280  0.00  0.00     0.124 HD
ATOM     19  H2  NON d   1     -46.694  15.556  -6.339  0.00  0.00     0.124 HD
ENDBRANCH  16  17
ENDBRANCH   8  11
ENDBRANCH   1   7
BRANCH   4  20
ATOM     20  C12 NON d   1     -40.235  19.869  -4.310  0.00  0.00     0.083 C 
BRANCH  20  21
ATOM     21  C13 NON d   1     -39.916  20.874  -3.238  0.00  0.00     0.019 C 
ATOM     22  C14 NON d   1     -39.546  22.122  -3.591  0.00  0.00     0.154 C 
ATOM     23  O2  NON d   1     -39.331  23.194  -2.765  0.00  0.00    -0.321 OA
ATOM     24  C15 NON d   1     -39.349  22.962  -1.416  0.00  0.00     0.089 A 
ATOM     25  C16 NON d   1     -38.995  24.023  -0.582  0.00  0.00     0.038 A 
ATOM     26  C20 NON d   1     -39.691  21.725  -0.876  0.00  0.00     0.048 A 
ATOM     27  C17 NON d   1     -38.936  23.828   0.797  0.00  0.00     0.003 A 
ATOM     28  C18 NON d   1     -39.236  22.579   1.341  0.00  0.00     0.001 A 
ATOM     29  C19 NON d   1     -39.625  21.527   0.507  0.00  0.00     0.018 A 
ATOM     30  C21 NON d   1     -40.135  20.649  -1.786  0.00  0.00     0.193 C 
ATOM     31  O3  NON d   1     -40.664  19.641  -1.336  0.00  0.00    -0.287 OA
ENDBRANCH  20  21
ENDBRANCH   4  20
TORSDOF 5
ENDMDL
MODEL 7
REMARK VINA RESULT:   -33.890      2.604      3.319
REMARK INTER + INTRA:         -36.297
REMARK INTER:                 -35.382
REMARK INTRA:                  -0.915
REMARK CONF_INDEPENDENT:        1.492
REMARK UNBOUND:                -0.915
REMARK  5 active torsions:
REMARK  status: ('A' for Active; 'I' for Inactive)
REMARK    1  A    between atoms: N1_1  and  C1_2 
REMARK    2  A    between atoms: C6_7  and  N2_8 
REMARK       I    between atoms: N2_8  and  C7_9 
REMARK    3  A    between atoms: C7_9  and  C8_11 
REMARK    4  A    between atoms: C11_14  and  C12_15 
REMARK    5  A    between atoms: C12_15  and  C13_16 
ROOT
ATOM      1  C8  NON d   1     -43.965  17.998  -4.674  0.00  0.00     0.032 A 
ATOM      2  C9  NON d   1     -43.528  19.081  -5.437  0.00  0.00     0.017 A 
ATOM      3  C10 NON d   1     -42.195  19.488  -5.374  0.00  0.00     0.008 A 
ATOM      4  C11 NON d   1     -41.255  18.824  -4.559  0.00  0.00    -0.054 A 
ATOM      5  C22 NON d   1     -41.689  17.696  -3.857  0.00  0.00     0.008 A 
ATOM      6  C23 NON d   1     -43.036  17.296  -3.895  0.00  0.00     0.017 A 
ENDROOT
BRANCH   1   7
ATOM      7  C7  NON d   1     -45.406  17.617  -4.763  0.00  0.00     0.256 C 
ATOM      8  N2  NON d   1     -45.946  17.063  -3.619  0.00  0.00    -0.321 N 
ATOM      9  H7  NON d   1     -45.382  17.051  -2.779  0.00  0.00     0.169 HD
ATOM     10  O1  NON d   1     -45.993  17.829  -5.818  0.00  0.00    -0.267 OA
BRANCH   8  11
ATOM     11  C6  NON d   1     -47.279  16.638  -3.406  0.00  0.00     0.056 A 
ATOM     12  C5  NON d   1     -47.908  16.647  -2.158  0.00  0.00     0.031 A 
ATOM     13  C4  NON d   1     -49.198  16.132  -2.012  0.00  0.00     0.002 A 
ATOM     14  C3  NON d   1     -49.865  15.590  -3.108  0.00  0.00     0.002 A 
ATOM     15  C2  NON d   1     -49.252  15.584  -4.360  0.00  0.00     0.025 A 
ATOM     16  C1  NON d   1     -47.983  16.151  -4.531  0.00  0.00     0.033 A 
BRANCH  16  17
ATOM     17  N1  NON d   1     -47.376  16.130  -5.811  0.00  0.00    -0.301 NA
ATOM     18  H1  NON d   1     -47.419  17.035  -6.271  0.00  0.00     0.124 HD
ATOM     19  H2  NON d   1     -46.410  15.819  -5.742  0.00  0.00     0.124 HD
ENDBRANCH  16  17
ENDBRANCH   8  11
ENDBRANCH   1   7
BRANCH   4  20
ATOM     20  C12 NON d   1     -39.847  19.388  -4.573  0.00  0.00     0.083 C 
BRANCH  20  21
ATOM     21  C13 NON d   1     -39.480  20.786  -4.989  0.00  0.00     0.019 C 
ATOM     22  C14 NON d   1     -38.780  20.974  -6.126  0.00  0.00     0.154 C 
ATOM     23  O2  NON d   1     -38.458  22.167  -6.720  0.00  0.00    -0.321 OA
ATOM     24  C15 NON d   1     -38.745  23.312  -6.028  0.00  0.00     0.089 A 
ATOM     25  C16 NON d   1     -38.294  24.516  -6.571  0.00  0.00     0.038 A 
ATOM     26  C20 NON d   1     -39.446  23.301  -4.825  0.00  0.00     0.048 A 
ATOM     27  C17 NON d   1     -38.504  25.708  -5.880  0.00  0.00     0.003 A 
ATOM     28  C18 NON d   1     -39.168  25.697  -4.653  0.00  0.00     0.001 A 
ATOM     29  C19 NON d   1     -39.651  24.496  -4.127  0.00  0.00     0.018 A 
ATOM     30  C21 NON d   1     -39.976  22.017  -4.321  0.00  0.00     0.193 C 
ATOM     31  O3  NON d   1     -40.789  22.002  -3.406  0.00  0.00    -0.287 OA
ENDBRANCH  20  21
ENDBRANCH   4  20
TORSDOF 5
ENDMDL
