MODEL 1
REMARK VINA RESULT:   -17.640      0.000      0.000
REMARK INTER + INTRA:         -21.755
REMARK INTER:                 -20.623
REMARK INTRA:                  -1.132
REMARK CONF_INDEPENDENT:        2.983
REMARK UNBOUND:                -1.132
REMARK  10 active torsions:
REMARK  status: ('A' for Active; 'I' for Inactive)
REMARK    1  A    between atoms: C1_2  and  C2_3 
REMARK       I    between atoms: C1_2  and  N2_23 
REMARK    2  A    between atoms: C2_3  and  C3_4 
REMARK    3  A    between atoms: C3_4  and  C4_5 
REMARK    4  A    between atoms: C4_5  and  C5_6 
REMARK    5  A    between atoms: C5_6  and  C6_7 
REMARK    6  A    between atoms: C6_7  and  C7_8 
REMARK    7  A    between atoms: C7_8  and  C8_9 
REMARK    8  A    between atoms: C8_9  and  C9_11 
REMARK    9  A    between atoms: C12_14  and  N1_15 
REMARK   10  A    between atoms: N2_23  and  O3_24 
ROOT
ATOM      1  C8  NON d   1     -45.197  16.749  -4.646  0.00  0.00     0.159 C 
ATOM      2  O2  NON d   1     -45.551  16.570  -5.810  0.00  0.00    -0.292 OA
ENDROOT
BRANCH   1   3
ATOM      3  C7  NON d   1     -45.996  16.229  -3.460  0.00  0.00     0.084 C 
BRANCH   3   4
ATOM      4  C6  NON d   1     -46.933  17.253  -2.804  0.00  0.00     0.008 C 
BRANCH   4   5
ATOM      5  C5  NON d   1     -48.063  16.660  -1.947  0.00  0.00     0.000 C 
BRANCH   5   6
ATOM      6  C4  NON d   1     -49.454  16.838  -2.552  0.00  0.00     0.000 C 
BRANCH   6   7
ATOM      7  C3  NON d   1     -49.875  15.678  -3.469  0.00  0.00     0.009 C 
BRANCH   7   8
ATOM      8  C2  NON d   1     -48.708  14.921  -4.103  0.00  0.00     0.105 C 
BRANCH   8   9
ATOM      9  C1  NON d   1     -48.062  15.591  -5.303  0.00  0.00     0.240 C 
ATOM     10  O1  NON d   1     -47.440  15.005  -6.186  0.00  0.00    -0.271 OA
ATOM     11  N2  NON d   1     -48.186  16.963  -5.267  0.00  0.00    -0.237 N 
ATOM     12  H27 NON d   1     -48.562  17.485  -4.480  0.00  0.00     0.197 HD
BRANCH  11  13
ATOM     13  O3  NON d   1     -47.470  17.698  -6.234  0.00  0.00    -0.287 OA
ATOM     14  H28 NON d   1     -47.343  17.038  -6.949  0.00  0.00     0.244 HD
ENDBRANCH  11  13
ENDBRANCH   8   9
ENDBRANCH   7   8
ENDBRANCH   6   7
ENDBRANCH   5   6
ENDBRANCH   4   5
ENDBRANCH   3   4
ENDBRANCH   1   3
BRANCH   1  15
ATOM     15  C9  NON d   1     -43.924  17.500  -4.387  0.00  0.00     0.010 A 
ATOM     16  C10 NON d   1     -42.972  16.938  -3.537  0.00  0.00     0.017 A 
ATOM     17  C11 NON d   1     -41.754  17.593  -3.283  0.00  0.00     0.030 A 
ATOM     18  C12 NON d   1     -41.428  18.843  -3.843  0.00  0.00     0.030 A 
ATOM     19  C18 NON d   1     -42.400  19.370  -4.717  0.00  0.00     0.030 A 
ATOM     20  C19 NON d   1     -43.626  18.727  -4.975  0.00  0.00     0.017 A 
BRANCH  18  21
ATOM     21  N1  NON d   1     -40.181  19.480  -3.596  0.00  0.00    -0.381 N 
ATOM     22  C13 NON d   1     -38.998  18.594  -3.618  0.00  0.00     0.123 C 
ATOM     23  C14 NON d   1     -37.654  19.311  -3.466  0.00  0.00     0.020 C 
ATOM     24  C15 NON d   1     -37.625  20.514  -2.540  0.00  0.00     0.003 C 
ATOM     25  C16 NON d   1     -38.884  21.351  -2.634  0.00  0.00     0.020 C 
ATOM     26  C17 NON d   1     -40.148  20.505  -2.538  0.00  0.00     0.123 C 
ENDBRANCH  18  21
ENDBRANCH   1  15
TORSDOF 10
ENDMDL
MODEL 2
REMARK VINA RESULT:   -16.668      1.980      2.305
REMARK INTER + INTRA:         -21.019
REMARK INTER:                 -19.651
REMARK INTRA:                  -1.368
REMARK CONF_INDEPENDENT:        2.983
REMARK UNBOUND:                -1.368
REMARK  10 active torsions:
REMARK  status: ('A' for Active; 'I' for Inactive)
REMARK    1  A    between atoms: C1_2  and  C2_3 
REMARK       I    between atoms: C1_2  and  N2_23 
REMARK    2  A    between atoms: C2_3  and  C3_4 
REMARK    3  A    between atoms: C3_4  and  C4_5 
REMARK    4  A    between atoms: C4_5  and  C5_6 
REMARK    5  A    between atoms: C5_6  and  C6_7 
REMARK    6  A    between atoms: C6_7  and  C7_8 
REMARK    7  A    between atoms: C7_8  and  C8_9 
REMARK    8  A    between atoms: C8_9  and  C9_11 
REMARK    9  A    between atoms: C12_14  and  N1_15 
REMARK   10  A    between atoms: N2_23  and  O3_24 
ROOT
ATOM      1  C8  NON d   1     -44.766  17.068  -4.795  0.00  0.00     0.159 C 
ATOM      2  O2  NON d   1     -45.235  16.332  -5.661  0.00  0.00    -0.292 OA
ENDROOT
BRANCH   1   3
ATOM      3  C7  NON d   1     -45.423  17.255  -3.435  0.00  0.00     0.084 C 
BRANCH   3   4
ATOM      4  C6  NON d   1     -46.664  16.385  -3.184  0.00  0.00     0.008 C 
BRANCH   4   5
ATOM      5  C5  NON d   1     -47.706  16.983  -2.226  0.00  0.00     0.000 C 
BRANCH   5   6
ATOM      6  C4  NON d   1     -49.005  16.182  -2.152  0.00  0.00     0.000 C 
BRANCH   6   7
ATOM      7  C3  NON d   1     -49.691  15.999  -3.515  0.00  0.00     0.009 C 
BRANCH   7   8
ATOM      8  C2  NON d   1     -48.984  15.017  -4.449  0.00  0.00     0.105 C 
BRANCH   8   9
ATOM      9  C1  NON d   1     -48.039  15.636  -5.464  0.00  0.00     0.240 C 
ATOM     10  O1  NON d   1     -47.283  15.005  -6.199  0.00  0.00    -0.271 OA
ATOM     11  N2  NON d   1     -48.066  17.014  -5.432  0.00  0.00    -0.237 N 
ATOM     12  H27 NON d   1     -48.567  17.563  -4.739  0.00  0.00     0.197 HD
BRANCH  11  13
ATOM     13  O3  NON d   1     -47.100  17.692  -6.204  0.00  0.00    -0.287 OA
ATOM     14  H28 NON d   1     -46.776  16.986  -6.803  0.00  0.00     0.244 HD
ENDBRANCH  11  13
ENDBRANCH   8   9
ENDBRANCH   7   8
ENDBRANCH   6   7
ENDBRANCH   5   6
ENDBRANCH   4   5
ENDBRANCH   3   4
ENDBRANCH   1   3
BRANCH   1  15
ATOM     15  C9  NON d   1     -43.490  17.803  -5.088  0.00  0.00     0.010 A 
ATOM     16  C10 NON d   1     -42.356  17.069  -5.433  0.00  0.00     0.017 A 
ATOM     17  C11 NON d   1     -41.144  17.714  -5.740  0.00  0.00     0.030 A 
ATOM     18  C12 NON d   1     -40.993  19.112  -5.702  0.00  0.00     0.030 A 
ATOM     19  C18 NON d   1     -42.165  19.824  -5.375  0.00  0.00     0.030 A 
ATOM     20  C19 NON d   1     -43.382  19.190  -5.060  0.00  0.00     0.017 A 
BRANCH  18  21
ATOM     21  N1  NON d   1     -39.768  19.750  -6.040  0.00  0.00    -0.381 N 
ATOM     22  C13 NON d   1     -39.804  21.228  -6.059  0.00  0.00     0.123 C 
ATOM     23  C14 NON d   1     -38.453  21.902  -6.310  0.00  0.00     0.020 C 
ATOM     24  C15 NON d   1     -37.510  21.200  -7.272  0.00  0.00     0.003 C 
ATOM     25  C16 NON d   1     -37.551  19.692  -7.131  0.00  0.00     0.020 C 
ATOM     26  C17 NON d   1     -38.975  19.151  -7.129  0.00  0.00     0.123 C 
ENDBRANCH  18  21
ENDBRANCH   1  15
TORSDOF 10
ENDMDL
