MODEL 1
REMARK VINA RESULT:   -35.211      0.000      0.000
REMARK INTER + INTRA:         -39.067
REMARK INTER:                 -37.597
REMARK INTRA:                  -1.470
REMARK CONF_INDEPENDENT:        2.386
REMARK UNBOUND:                -1.470
REMARK  8 active torsions:
REMARK  status: ('A' for Active; 'I' for Inactive)
REMARK    1  A    between atoms: N1_1  and  C1_2 
REMARK    2  A    between atoms: C6_7  and  N2_8 
REMARK       I    between atoms: N2_8  and  C7_9 
REMARK    3  A    between atoms: C7_9  and  C8_11 
REMARK    4  A    between atoms: C11_14  and  C12_15 
REMARK    5  A    between atoms: C13_16  and  C14_17 
REMARK       I    between atoms: C14_17  and  N3_19 
REMARK    6  A    between atoms: N3_19  and  C15_20 
REMARK    7  A    between atoms: C15_20  and  C16_21 
REMARK    8  A    between atoms: C16_21  and  C17_22 
ROOT
ATOM      1  C8  NON d   1     -43.933  17.574  -4.489  0.00  0.00     0.032 A 
ATOM      2  C9  NON d   1     -42.998  17.056  -3.582  0.00  0.00     0.018 A 
ATOM      3  C10 NON d   1     -41.813  17.741  -3.289  0.00  0.00     0.012 A 
ATOM      4  C11 NON d   1     -41.517  18.971  -3.892  0.00  0.00    -0.036 A 
ATOM      5  C25 NON d   1     -42.448  19.487  -4.803  0.00  0.00     0.012 A 
ATOM      6  C26 NON d   1     -43.644  18.801  -5.100  0.00  0.00     0.018 A 
ENDROOT
BRANCH   4   7
ATOM      7  C12 NON d   1     -40.255  19.639  -3.512  0.00  0.00     0.017 C 
ATOM      8  C13 NON d   1     -39.024  19.103  -3.446  0.00  0.00     0.075 C 
BRANCH   8   9
ATOM      9  C14 NON d   1     -37.872  19.967  -3.050  0.00  0.00     0.241 C 
ATOM     10  O2  NON d   1     -37.214  20.601  -3.864  0.00  0.00    -0.269 OA
ATOM     11  N3  NON d   1     -37.635  19.981  -1.695  0.00  0.00    -0.357 N 
ATOM     12  H12 NON d   1     -38.285  19.545  -1.057  0.00  0.00     0.162 HD
BRANCH  11  13
ATOM     13  C15 NON d   1     -36.609  20.850  -1.134  0.00  0.00     0.127 C 
BRANCH  13  14
ATOM     14  C16 NON d   1     -36.502  20.773   0.394  0.00  0.00     0.060 C 
BRANCH  14  15
ATOM     15  C17 NON d   1     -37.109  21.917   1.161  0.00  0.00    -0.029 A 
ATOM     16  C18 NON d   1     -36.503  22.759   2.074  0.00  0.00     0.096 A 
ATOM     17  N4  NON d   1     -37.434  23.651   2.534  0.00  0.00    -0.365 N 
ATOM     18  C19 NON d   1     -38.652  23.417   1.942  0.00  0.00     0.042 A 
ATOM     19  H18 NON d   1     -37.262  24.374   3.219  0.00  0.00     0.165 HD
ATOM     20  C20 NON d   1     -39.877  24.074   2.112  0.00  0.00     0.030 A 
ATOM     21  C24 NON d   1     -38.484  22.334   1.078  0.00  0.00    -0.002 A 
ATOM     22  C21 NON d   1     -40.972  23.607   1.380  0.00  0.00     0.002 A 
ATOM     23  C22 NON d   1     -40.842  22.525   0.513  0.00  0.00     0.001 A 
ATOM     24  C23 NON d   1     -39.607  21.882   0.353  0.00  0.00     0.014 A 
ENDBRANCH  14  15
ENDBRANCH  13  14
ENDBRANCH  11  13
ENDBRANCH   8   9
ENDBRANCH   4   7
BRANCH   1  25
ATOM     25  C7  NON d   1     -45.198  16.784  -4.700  0.00  0.00     0.256 C 
ATOM     26  N2  NON d   1     -46.188  16.876  -3.736  0.00  0.00    -0.321 N 
ATOM     27  H7  NON d   1     -46.084  17.528  -2.971  0.00  0.00     0.169 HD
ATOM     28  O1  NON d   1     -45.267  16.092  -5.712  0.00  0.00    -0.267 OA
BRANCH  26  29
ATOM     29  C6  NON d   1     -47.445  16.213  -3.727  0.00  0.00     0.056 A 
ATOM     30  C5  NON d   1     -48.098  15.796  -2.565  0.00  0.00     0.031 A 
ATOM     31  C4  NON d   1     -49.305  15.094  -2.636  0.00  0.00     0.002 A 
ATOM     32  C3  NON d   1     -49.868  14.794  -3.872  0.00  0.00     0.002 A 
ATOM     33  C2  NON d   1     -49.235  15.211  -5.042  0.00  0.00     0.025 A 
ATOM     34  C1  NON d   1     -48.045  15.950  -4.980  0.00  0.00     0.033 A 
BRANCH  34  35
ATOM     35  N1  NON d   1     -47.436  16.395  -6.181  0.00  0.00    -0.301 NA
ATOM     36  H1  NON d   1     -47.029  17.322  -6.075  0.00  0.00     0.124 HD
ATOM     37  H2  NON d   1     -46.712  15.739  -6.464  0.00  0.00     0.124 HD
ENDBRANCH  34  35
ENDBRANCH  26  29
ENDBRANCH   1  25
TORSDOF 8
ENDMDL
MODEL 2
REMARK VINA RESULT:   -34.989      1.104      1.358
REMARK INTER + INTRA:         -39.063
REMARK INTER:                 -37.375
REMARK INTRA:                  -1.687
REMARK CONF_INDEPENDENT:        2.386
REMARK UNBOUND:                -1.687
REMARK  8 active torsions:
REMARK  status: ('A' for Active; 'I' for Inactive)
REMARK    1  A    between atoms: N1_1  and  C1_2 
REMARK    2  A    between atoms: C6_7  and  N2_8 
REMARK       I    between atoms: N2_8  and  C7_9 
REMARK    3  A    between atoms: C7_9  and  C8_11 
REMARK    4  A    between atoms: C11_14  and  C12_15 
REMARK    5  A    between atoms: C13_16  and  C14_17 
REMARK       I    between atoms: C14_17  and  N3_19 
REMARK    6  A    between atoms: N3_19  and  C15_20 
REMARK    7  A    between atoms: C15_20  and  C16_21 
REMARK    8  A    between atoms: C16_21  and  C17_22 
ROOT
ATOM      1  C8  NON d   1     -43.908  17.663  -4.620  0.00  0.00     0.032 A 
ATOM      2  C9  NON d   1     -42.941  17.161  -3.738  0.00  0.00     0.018 A 
ATOM      3  C10 NON d   1     -41.736  17.840  -3.518  0.00  0.00     0.012 A 
ATOM      4  C11 NON d   1     -41.452  19.046  -4.171  0.00  0.00    -0.036 A 
ATOM      5  C25 NON d   1     -42.415  19.546  -5.058  0.00  0.00     0.012 A 
ATOM      6  C26 NON d   1     -43.631  18.866  -5.281  0.00  0.00     0.018 A 
ENDROOT
BRANCH   4   7
ATOM      7  C12 NON d   1     -40.167  19.710  -3.867  0.00  0.00     0.017 C 
ATOM      8  C13 NON d   1     -39.321  19.447  -2.856  0.00  0.00     0.075 C 
BRANCH   8   9
ATOM      9  C14 NON d   1     -38.058  20.235  -2.739  0.00  0.00     0.241 C 
ATOM     10  O2  NON d   1     -37.566  20.835  -3.686  0.00  0.00    -0.269 OA
ATOM     11  N3  NON d   1     -37.515  20.220  -1.475  0.00  0.00    -0.357 N 
ATOM     12  H12 NON d   1     -38.027  19.819  -0.703  0.00  0.00     0.162 HD
BRANCH  11  13
ATOM     13  C15 NON d   1     -36.335  21.019  -1.169  0.00  0.00     0.127 C 
BRANCH  13  14
ATOM     14  C16 NON d   1     -36.549  22.026  -0.032  0.00  0.00     0.060 C 
BRANCH  14  15
ATOM     15  C17 NON d   1     -37.972  22.237   0.409  0.00  0.00    -0.029 A 
ATOM     16  C18 NON d   1     -38.548  21.938   1.630  0.00  0.00     0.096 A 
ATOM     17  N4  NON d   1     -39.871  22.289   1.589  0.00  0.00    -0.365 N 
ATOM     18  C19 NON d   1     -40.187  22.816   0.360  0.00  0.00     0.042 A 
ATOM     19  H18 NON d   1     -40.530  22.170   2.345  0.00  0.00     0.165 HD
ATOM     20  C20 NON d   1     -41.408  23.299  -0.126  0.00  0.00     0.030 A 
ATOM     21  C24 NON d   1     -39.020  22.794  -0.405  0.00  0.00    -0.002 A 
ATOM     22  C21 NON d   1     -41.444  23.771  -1.441  0.00  0.00     0.002 A 
ATOM     23  C22 NON d   1     -40.300  23.759  -2.235  0.00  0.00     0.001 A 
ATOM     24  C23 NON d   1     -39.085  23.275  -1.730  0.00  0.00     0.014 A 
ENDBRANCH  14  15
ENDBRANCH  13  14
ENDBRANCH  11  13
ENDBRANCH   8   9
ENDBRANCH   4   7
BRANCH   1  25
ATOM     25  C7  NON d   1     -45.189  16.883  -4.752  0.00  0.00     0.256 C 
ATOM     26  N2  NON d   1     -46.158  17.060  -3.779  0.00  0.00    -0.321 N 
ATOM     27  H7  NON d   1     -46.029  17.762  -3.064  0.00  0.00     0.169 HD
ATOM     28  O1  NON d   1     -45.290  16.123  -5.712  0.00  0.00    -0.267 OA
BRANCH  26  29
ATOM     29  C6  NON d   1     -47.426  16.422  -3.701  0.00  0.00     0.056 A 
ATOM     30  C5  NON d   1     -48.073  16.120  -2.500  0.00  0.00     0.031 A 
ATOM     31  C4  NON d   1     -49.293  15.436  -2.498  0.00  0.00     0.002 A 
ATOM     32  C3  NON d   1     -49.873  15.037  -3.698  0.00  0.00     0.002 A 
ATOM     33  C2  NON d   1     -49.246  15.339  -4.906  0.00  0.00     0.025 A 
ATOM     34  C1  NON d   1     -48.043  16.060  -4.920  0.00  0.00     0.033 A 
BRANCH  34  35
ATOM     35  N1  NON d   1     -47.440  16.387  -6.161  0.00  0.00    -0.301 NA
ATOM     36  H1  NON d   1     -46.823  17.193  -6.078  0.00  0.00     0.124 HD
ATOM     37  H2  NON d   1     -46.909  15.591  -6.506  0.00  0.00     0.124 HD
ENDBRANCH  34  35
ENDBRANCH  26  29
ENDBRANCH   1  25
TORSDOF 8
ENDMDL
MODEL 3
REMARK VINA RESULT:   -34.861      1.504      1.920
REMARK INTER + INTRA:         -38.118
REMARK INTER:                 -37.247
REMARK INTRA:                  -0.871
REMARK CONF_INDEPENDENT:        2.386
REMARK UNBOUND:                -0.871
REMARK  8 active torsions:
REMARK  status: ('A' for Active; 'I' for Inactive)
REMARK    1  A    between atoms: N1_1  and  C1_2 
REMARK    2  A    between atoms: C6_7  and  N2_8 
REMARK       I    between atoms: N2_8  and  C7_9 
REMARK    3  A    between atoms: C7_9  and  C8_11 
REMARK    4  A    between atoms: C11_14  and  C12_15 
REMARK    5  A    between atoms: C13_16  and  C14_17 
REMARK       I    between atoms: C14_17  and  N3_19 
REMARK    6  A    between atoms: N3_19  and  C15_20 
REMARK    7  A    between atoms: C15_20  and  C16_21 
REMARK    8  A    between atoms: C16_21  and  C17_22 
ROOT
ATOM      1  C8  NON d   1     -43.908  17.769  -4.844  0.00  0.00     0.032 A 
ATOM      2  C9  NON d   1     -42.773  17.167  -4.283  0.00  0.00     0.018 A 
ATOM      3  C10 NON d   1     -41.560  17.859  -4.177  0.00  0.00     0.012 A 
ATOM      4  C11 NON d   1     -41.435  19.179  -4.630  0.00  0.00    -0.036 A 
ATOM      5  C25 NON d   1     -42.568  19.780  -5.197  0.00  0.00     0.012 A 
ATOM      6  C26 NON d   1     -43.792  19.087  -5.303  0.00  0.00     0.018 A 
ENDROOT
BRANCH   4   7
ATOM      7  C12 NON d   1     -40.126  19.845  -4.462  0.00  0.00     0.017 C 
ATOM      8  C13 NON d   1     -39.095  19.866  -5.324  0.00  0.00     0.075 C 
BRANCH   8   9
ATOM      9  C14 NON d   1     -37.857  20.618  -4.960  0.00  0.00     0.241 C 
ATOM     10  O2  NON d   1     -36.739  20.244  -5.290  0.00  0.00    -0.269 OA
ATOM     11  N3  NON d   1     -38.099  21.760  -4.232  0.00  0.00    -0.357 N 
ATOM     12  H12 NON d   1     -39.044  22.090  -4.099  0.00  0.00     0.162 HD
BRANCH  11  13
ATOM     13  C15 NON d   1     -37.007  22.658  -3.881  0.00  0.00     0.127 C 
BRANCH  13  14
ATOM     14  C16 NON d   1     -37.222  23.406  -2.560  0.00  0.00     0.060 C 
BRANCH  14  15
ATOM     15  C17 NON d   1     -38.015  22.679  -1.508  0.00  0.00    -0.029 A 
ATOM     16  C18 NON d   1     -37.864  21.380  -1.060  0.00  0.00     0.096 A 
ATOM     17  N4  NON d   1     -38.810  21.134  -0.100  0.00  0.00    -0.365 N 
ATOM     18  C19 NON d   1     -39.589  22.249   0.099  0.00  0.00     0.042 A 
ATOM     19  H18 NON d   1     -38.931  20.259   0.389  0.00  0.00     0.165 HD
ATOM     20  C20 NON d   1     -40.666  22.450   0.971  0.00  0.00     0.030 A 
ATOM     21  C24 NON d   1     -39.120  23.235  -0.770  0.00  0.00    -0.002 A 
ATOM     22  C21 NON d   1     -41.292  23.700   0.952  0.00  0.00     0.002 A 
ATOM     23  C22 NON d   1     -40.854  24.705   0.093  0.00  0.00     0.001 A 
ATOM     24  C23 NON d   1     -39.772  24.486  -0.770  0.00  0.00     0.014 A 
ENDBRANCH  14  15
ENDBRANCH  13  14
ENDBRANCH  11  13
ENDBRANCH   8   9
ENDBRANCH   4   7
BRANCH   1  25
ATOM     25  C7  NON d   1     -45.176  16.957  -4.869  0.00  0.00     0.256 C 
ATOM     26  N2  NON d   1     -46.138  17.231  -3.911  0.00  0.00    -0.321 N 
ATOM     27  H7  NON d   1     -46.015  18.013  -3.284  0.00  0.00     0.169 HD
ATOM     28  O1  NON d   1     -45.272  16.089  -5.732  0.00  0.00    -0.267 OA
BRANCH  26  29
ATOM     29  C6  NON d   1     -47.393  16.585  -3.744  0.00  0.00     0.056 A 
ATOM     30  C5  NON d   1     -48.019  16.406  -2.508  0.00  0.00     0.031 A 
ATOM     31  C4  NON d   1     -49.226  15.706  -2.412  0.00  0.00     0.002 A 
ATOM     32  C3  NON d   1     -49.815  15.169  -3.552  0.00  0.00     0.002 A 
ATOM     33  C2  NON d   1     -49.209  15.346  -4.794  0.00  0.00     0.025 A 
ATOM     34  C1  NON d   1     -48.020  16.080  -4.907  0.00  0.00     0.033 A 
BRANCH  34  35
ATOM     35  N1  NON d   1     -47.440  16.278  -6.185  0.00  0.00    -0.301 NA
ATOM     36  H1  NON d   1     -46.845  15.495  -6.453  0.00  0.00     0.124 HD
ATOM     37  H2  NON d   1     -48.171  16.399  -6.881  0.00  0.00     0.124 HD
ENDBRANCH  34  35
ENDBRANCH  26  29
ENDBRANCH   1  25
TORSDOF 8
ENDMDL
MODEL 4
REMARK VINA RESULT:   -34.462      3.517      5.781
REMARK INTER + INTRA:         -39.046
REMARK INTER:                 -36.849
REMARK INTRA:                  -2.198
REMARK CONF_INDEPENDENT:        2.386
REMARK UNBOUND:                -2.198
REMARK  8 active torsions:
REMARK  status: ('A' for Active; 'I' for Inactive)
REMARK    1  A    between atoms: N1_1  and  C1_2 
REMARK    2  A    between atoms: C6_7  and  N2_8 
REMARK       I    between atoms: N2_8  and  C7_9 
REMARK    3  A    between atoms: C7_9  and  C8_11 
REMARK    4  A    between atoms: C11_14  and  C12_15 
REMARK    5  A    between atoms: C13_16  and  C14_17 
REMARK       I    between atoms: C14_17  and  N3_19 
REMARK    6  A    between atoms: N3_19  and  C15_20 
REMARK    7  A    between atoms: C15_20  and  C16_21 
REMARK    8  A    between atoms: C16_21  and  C17_22 
ROOT
ATOM      1  C8  NON d   1     -43.941  17.617  -4.695  0.00  0.00     0.032 A 
ATOM      2  C9  NON d   1     -43.893  18.820  -5.415  0.00  0.00     0.018 A 
ATOM      3  C10 NON d   1     -42.741  19.616  -5.424  0.00  0.00     0.012 A 
ATOM      4  C11 NON d   1     -41.593  19.241  -4.713  0.00  0.00    -0.036 A 
ATOM      5  C25 NON d   1     -41.642  18.042  -3.989  0.00  0.00     0.012 A 
ATOM      6  C26 NON d   1     -42.800  17.236  -3.978  0.00  0.00     0.018 A 
ENDROOT
BRANCH   4   7
ATOM      7  C12 NON d   1     -40.413  20.127  -4.792  0.00  0.00     0.017 C 
ATOM      8  C13 NON d   1     -39.933  20.949  -3.844  0.00  0.00     0.075 C 
BRANCH   8   9
ATOM      9  C14 NON d   1     -38.707  21.753  -4.128  0.00  0.00     0.241 C 
ATOM     10  O2  NON d   1     -37.589  21.392  -3.785  0.00  0.00    -0.269 OA
ATOM     11  N3  NON d   1     -38.960  22.921  -4.810  0.00  0.00    -0.357 N 
ATOM     12  H12 NON d   1     -39.881  23.107  -5.181  0.00  0.00     0.162 HD
BRANCH  11  13
ATOM     13  C15 NON d   1     -37.862  23.772  -5.250  0.00  0.00     0.127 C 
BRANCH  13  14
ATOM     14  C16 NON d   1     -37.573  23.678  -6.753  0.00  0.00     0.060 C 
BRANCH  14  15
ATOM     15  C17 NON d   1     -38.587  22.934  -7.579  0.00  0.00    -0.029 A 
ATOM     16  C18 NON d   1     -39.574  23.449  -8.399  0.00  0.00     0.096 A 
ATOM     17  N4  NON d   1     -40.274  22.409  -8.949  0.00  0.00    -0.365 N 
ATOM     18  C19 NON d   1     -39.771  21.209  -8.509  0.00  0.00     0.042 A 
ATOM     19  H18 NON d   1     -41.057  22.503  -9.581  0.00  0.00     0.165 HD
ATOM     20  C20 NON d   1     -40.174  19.901  -8.805  0.00  0.00     0.030 A 
ATOM     21  C24 NON d   1     -38.715  21.502  -7.646  0.00  0.00    -0.002 A 
ATOM     22  C21 NON d   1     -39.479  18.853  -8.194  0.00  0.00     0.002 A 
ATOM     23  C22 NON d   1     -38.424  19.109  -7.322  0.00  0.00     0.001 A 
ATOM     24  C23 NON d   1     -38.032  20.425  -7.041  0.00  0.00     0.014 A 
ENDBRANCH  14  15
ENDBRANCH  13  14
ENDBRANCH  11  13
ENDBRANCH   8   9
ENDBRANCH   4   7
BRANCH   1  25
ATOM     25  C7  NON d   1     -45.209  16.811  -4.788  0.00  0.00     0.256 C 
ATOM     26  N2  NON d   1     -46.192  17.039  -3.839  0.00  0.00    -0.321 N 
ATOM     27  H7  NON d   1     -46.081  17.788  -3.171  0.00  0.00     0.169 HD
ATOM     28  O1  NON d   1     -45.288  15.987  -5.695  0.00  0.00    -0.267 OA
BRANCH  26  29
ATOM     29  C6  NON d   1     -47.451  16.388  -3.732  0.00  0.00     0.056 A 
ATOM     30  C5  NON d   1     -48.106  16.154  -2.520  0.00  0.00     0.031 A 
ATOM     31  C4  NON d   1     -49.316  15.453  -2.486  0.00  0.00     0.002 A 
ATOM     32  C3  NON d   1     -49.879  14.971  -3.663  0.00  0.00     0.002 A 
ATOM     33  C2  NON d   1     -49.243  15.204  -4.881  0.00  0.00     0.025 A 
ATOM     34  C1  NON d   1     -48.051  15.940  -4.931  0.00  0.00     0.033 A 
BRANCH  34  35
ATOM     35  N1  NON d   1     -47.440  16.195  -6.185  0.00  0.00    -0.301 NA
ATOM     36  H1  NON d   1     -47.049  17.135  -6.227  0.00  0.00     0.124 HD
ATOM     37  H2  NON d   1     -46.703  15.515  -6.354  0.00  0.00     0.124 HD
ENDBRANCH  34  35
ENDBRANCH  26  29
ENDBRANCH   1  25
TORSDOF 8
ENDMDL
MODEL 5
REMARK VINA RESULT:   -34.057      1.268      1.787
REMARK INTER + INTRA:         -38.060
REMARK INTER:                 -36.443
REMARK INTRA:                  -1.617
REMARK CONF_INDEPENDENT:        2.386
REMARK UNBOUND:                -1.617
REMARK  8 active torsions:
REMARK  status: ('A' for Active; 'I' for Inactive)
REMARK    1  A    between atoms: N1_1  and  C1_2 
REMARK    2  A    between atoms: C6_7  and  N2_8 
REMARK       I    between atoms: N2_8  and  C7_9 
REMARK    3  A    between atoms: C7_9  and  C8_11 
REMARK    4  A    between atoms: C11_14  and  C12_15 
REMARK    5  A    between atoms: C13_16  and  C14_17 
REMARK       I    between atoms: C14_17  and  N3_19 
REMARK    6  A    between atoms: N3_19  and  C15_20 
REMARK    7  A    between atoms: C15_20  and  C16_21 
REMARK    8  A    between atoms: C16_21  and  C17_22 
ROOT
ATOM      1  C8  NON d   1     -43.875  17.558  -4.558  0.00  0.00     0.032 A 
ATOM      2  C9  NON d   1     -42.899  16.953  -3.754  0.00  0.00     0.018 A 
ATOM      3  C10 NON d   1     -41.679  17.588  -3.490  0.00  0.00     0.012 A 
ATOM      4  C11 NON d   1     -41.388  18.852  -4.021  0.00  0.00    -0.036 A 
ATOM      5  C25 NON d   1     -42.361  19.455  -4.831  0.00  0.00     0.012 A 
ATOM      6  C26 NON d   1     -43.592  18.819  -5.097  0.00  0.00     0.018 A 
ENDROOT
BRANCH   4   7
ATOM      7  C12 NON d   1     -40.087  19.462  -3.677  0.00  0.00     0.017 C 
ATOM      8  C13 NON d   1     -39.016  18.866  -3.124  0.00  0.00     0.075 C 
BRANCH   8   9
ATOM      9  C14 NON d   1     -37.784  19.671  -2.870  0.00  0.00     0.241 C 
ATOM     10  O2  NON d   1     -37.015  19.997  -3.766  0.00  0.00    -0.269 OA
ATOM     11  N3  NON d   1     -37.608  20.007  -1.548  0.00  0.00    -0.357 N 
ATOM     12  H12 NON d   1     -38.336  19.824  -0.873  0.00  0.00     0.162 HD
BRANCH  11  13
ATOM     13  C15 NON d   1     -36.507  20.873  -1.147  0.00  0.00     0.127 C 
BRANCH  13  14
ATOM     14  C16 NON d   1     -36.738  22.355  -1.469  0.00  0.00     0.060 C 
BRANCH  14  15
ATOM     15  C17 NON d   1     -38.172  22.801  -1.546  0.00  0.00    -0.029 A 
ATOM     16  C18 NON d   1     -38.939  23.046  -2.671  0.00  0.00     0.096 A 
ATOM     17  N4  NON d   1     -40.187  23.443  -2.273  0.00  0.00    -0.365 N 
ATOM     18  C19 NON d   1     -40.266  23.468  -0.901  0.00  0.00     0.042 A 
ATOM     19  H18 NON d   1     -40.945  23.694  -2.893  0.00  0.00     0.165 HD
ATOM     20  C20 NON d   1     -41.337  23.812  -0.067  0.00  0.00     0.030 A 
ATOM     21  C24 NON d   1     -39.019  23.075  -0.414  0.00  0.00    -0.002 A 
ATOM     22  C21 NON d   1     -41.128  23.760   1.314  0.00  0.00     0.002 A 
ATOM     23  C22 NON d   1     -39.894  23.378   1.835  0.00  0.00     0.001 A 
ATOM     24  C23 NON d   1     -38.835  23.033   0.985  0.00  0.00     0.014 A 
ENDBRANCH  14  15
ENDBRANCH  13  14
ENDBRANCH  11  13
ENDBRANCH   8   9
ENDBRANCH   4   7
BRANCH   1  25
ATOM     25  C7  NON d   1     -45.171  16.814  -4.743  0.00  0.00     0.256 C 
ATOM     26  N2  NON d   1     -46.141  16.950  -3.763  0.00  0.00    -0.321 N 
ATOM     27  H7  NON d   1     -46.000  17.602  -3.005  0.00  0.00     0.169 HD
ATOM     28  O1  NON d   1     -45.283  16.118  -5.748  0.00  0.00    -0.267 OA
BRANCH  26  29
ATOM     29  C6  NON d   1     -47.421  16.334  -3.729  0.00  0.00     0.056 A 
ATOM     30  C5  NON d   1     -48.074  15.957  -2.552  0.00  0.00     0.031 A 
ATOM     31  C4  NON d   1     -49.307  15.300  -2.598  0.00  0.00     0.002 A 
ATOM     32  C3  NON d   1     -49.897  15.003  -3.823  0.00  0.00     0.002 A 
ATOM     33  C2  NON d   1     -49.264  15.380  -5.006  0.00  0.00     0.025 A 
ATOM     34  C1  NON d   1     -48.047  16.075  -4.971  0.00  0.00     0.033 A 
BRANCH  34  35
ATOM     35  N1  NON d   1     -47.438  16.480  -6.185  0.00  0.00    -0.301 NA
ATOM     36  H1  NON d   1     -46.824  17.281  -6.049  0.00  0.00     0.124 HD
ATOM     37  H2  NON d   1     -46.904  15.708  -6.576  0.00  0.00     0.124 HD
ENDBRANCH  34  35
ENDBRANCH  26  29
ENDBRANCH   1  25
TORSDOF 8
ENDMDL
MODEL 6
REMARK VINA RESULT:   -33.771      4.463      6.451
REMARK INTER + INTRA:         -37.096
REMARK INTER:                 -36.157
REMARK INTRA:                  -0.939
REMARK CONF_INDEPENDENT:        2.386
REMARK UNBOUND:                -0.939
REMARK  8 active torsions:
REMARK  status: ('A' for Active; 'I' for Inactive)
REMARK    1  A    between atoms: N1_1  and  C1_2 
REMARK    2  A    between atoms: C6_7  and  N2_8 
REMARK       I    between atoms: N2_8  and  C7_9 
REMARK    3  A    between atoms: C7_9  and  C8_11 
REMARK    4  A    between atoms: C11_14  and  C12_15 
REMARK    5  A    between atoms: C13_16  and  C14_17 
REMARK       I    between atoms: C14_17  and  N3_19 
REMARK    6  A    between atoms: N3_19  and  C15_20 
REMARK    7  A    between atoms: C15_20  and  C16_21 
REMARK    8  A    between atoms: C16_21  and  C17_22 
ROOT
ATOM      1  C8  NON d   1     -43.949  17.609  -4.710  0.00  0.00     0.032 A 
ATOM      2  C9  NON d   1     -43.896  18.811  -5.430  0.00  0.00     0.018 A 
ATOM      3  C10 NON d   1     -42.742  19.604  -5.437  0.00  0.00     0.012 A 
ATOM      4  C11 NON d   1     -41.597  19.225  -4.725  0.00  0.00    -0.036 A 
ATOM      5  C25 NON d   1     -41.650  18.026  -4.000  0.00  0.00     0.012 A 
ATOM      6  C26 NON d   1     -42.810  17.224  -3.992  0.00  0.00     0.018 A 
ENDROOT
BRANCH   4   7
ATOM      7  C12 NON d   1     -40.413  20.107  -4.802  0.00  0.00     0.017 C 
ATOM      8  C13 NON d   1     -39.193  19.898  -4.280  0.00  0.00     0.075 C 
BRANCH   8   9
ATOM      9  C14 NON d   1     -38.125  20.922  -4.489  0.00  0.00     0.241 C 
ATOM     10  O2  NON d   1     -37.067  20.904  -3.874  0.00  0.00    -0.269 OA
ATOM     11  N3  NON d   1     -38.448  21.868  -5.434  0.00  0.00    -0.357 N 
ATOM     12  H12 NON d   1     -39.275  21.762  -6.002  0.00  0.00     0.162 HD
BRANCH  11  13
ATOM     13  C15 NON d   1     -37.475  22.880  -5.827  0.00  0.00     0.127 C 
BRANCH  13  14
ATOM     14  C16 NON d   1     -38.079  24.037  -6.633  0.00  0.00     0.060 C 
BRANCH  14  15
ATOM     15  C17 NON d   1     -38.854  23.655  -7.864  0.00  0.00    -0.029 A 
ATOM     16  C18 NON d   1     -39.427  22.436  -8.177  0.00  0.00     0.096 A 
ATOM     17  N4  NON d   1     -40.027  22.535  -9.404  0.00  0.00    -0.365 N 
ATOM     18  C19 NON d   1     -39.863  23.800  -9.914  0.00  0.00     0.042 A 
ATOM     19  H18 NON d   1     -40.513  21.787  -9.878  0.00  0.00     0.165 HD
ATOM     20  C20 NON d   1     -40.302  24.345 -11.128  0.00  0.00     0.030 A 
ATOM     21  C24 NON d   1     -39.129  24.527  -8.976  0.00  0.00    -0.002 A 
ATOM     22  C21 NON d   1     -39.974  25.677 -11.397  0.00  0.00     0.002 A 
ATOM     23  C22 NON d   1     -39.238  26.430 -10.486  0.00  0.00     0.001 A 
ATOM     24  C23 NON d   1     -38.811  25.869  -9.275  0.00  0.00     0.014 A 
ENDBRANCH  14  15
ENDBRANCH  13  14
ENDBRANCH  11  13
ENDBRANCH   8   9
ENDBRANCH   4   7
BRANCH   1  25
ATOM     25  C7  NON d   1     -45.220  16.806  -4.805  0.00  0.00     0.256 C 
ATOM     26  N2  NON d   1     -46.191  17.016  -3.841  0.00  0.00    -0.321 N 
ATOM     27  H7  NON d   1     -46.072  17.751  -3.159  0.00  0.00     0.169 HD
ATOM     28  O1  NON d   1     -45.310  16.001  -5.728  0.00  0.00    -0.267 OA
BRANCH  26  29
ATOM     29  C6  NON d   1     -47.450  16.365  -3.732  0.00  0.00     0.056 A 
ATOM     30  C5  NON d   1     -48.105  16.132  -2.520  0.00  0.00     0.031 A 
ATOM     31  C4  NON d   1     -49.314  15.431  -2.484  0.00  0.00     0.002 A 
ATOM     32  C3  NON d   1     -49.877  14.947  -3.661  0.00  0.00     0.002 A 
ATOM     33  C2  NON d   1     -49.243  15.179  -4.880  0.00  0.00     0.025 A 
ATOM     34  C1  NON d   1     -48.051  15.915  -4.931  0.00  0.00     0.033 A 
BRANCH  34  35
ATOM     35  N1  NON d   1     -47.440  16.170  -6.185  0.00  0.00    -0.301 NA
ATOM     36  H1  NON d   1     -46.967  17.072  -6.197  0.00  0.00     0.124 HD
ATOM     37  H2  NON d   1     -46.769  15.435  -6.397  0.00  0.00     0.124 HD
ENDBRANCH  34  35
ENDBRANCH  26  29
ENDBRANCH   1  25
TORSDOF 8
ENDMDL
MODEL 7
REMARK VINA RESULT:   -33.252      2.548      3.503
REMARK INTER + INTRA:         -35.965
REMARK INTER:                 -35.638
REMARK INTRA:                  -0.326
REMARK CONF_INDEPENDENT:        2.386
REMARK UNBOUND:                -0.326
REMARK  8 active torsions:
REMARK  status: ('A' for Active; 'I' for Inactive)
REMARK    1  A    between atoms: N1_1  and  C1_2 
REMARK    2  A    between atoms: C6_7  and  N2_8 
REMARK       I    between atoms: N2_8  and  C7_9 
REMARK    3  A    between atoms: C7_9  and  C8_11 
REMARK    4  A    between atoms: C11_14  and  C12_15 
REMARK    5  A    between atoms: C13_16  and  C14_17 
REMARK       I    between atoms: C14_17  and  N3_19 
REMARK    6  A    between atoms: N3_19  and  C15_20 
REMARK    7  A    between atoms: C15_20  and  C16_21 
REMARK    8  A    between atoms: C16_21  and  C17_22 
ROOT
ATOM      1  C8  NON d   1     -44.144  18.054  -4.703  0.00  0.00     0.032 A 
ATOM      2  C9  NON d   1     -43.209  17.166  -4.153  0.00  0.00     0.018 A 
ATOM      3  C10 NON d   1     -41.866  17.533  -3.991  0.00  0.00     0.012 A 
ATOM      4  C11 NON d   1     -41.409  18.800  -4.374  0.00  0.00    -0.036 A 
ATOM      5  C25 NON d   1     -42.342  19.686  -4.930  0.00  0.00     0.012 A 
ATOM      6  C26 NON d   1     -43.695  19.322  -5.093  0.00  0.00     0.018 A 
ENDROOT
BRANCH   4   7
ATOM      7  C12 NON d   1     -39.982  19.115  -4.150  0.00  0.00     0.017 C 
ATOM      8  C13 NON d   1     -39.010  18.288  -3.730  0.00  0.00     0.075 C 
BRANCH   8   9
ATOM      9  C14 NON d   1     -37.620  18.812  -3.583  0.00  0.00     0.241 C 
ATOM     10  O2  NON d   1     -36.671  18.342  -4.199  0.00  0.00    -0.269 OA
ATOM     11  N3  NON d   1     -37.518  19.864  -2.703  0.00  0.00    -0.357 N 
ATOM     12  H12 NON d   1     -38.348  20.294  -2.322  0.00  0.00     0.162 HD
BRANCH  11  13
ATOM     13  C15 NON d   1     -36.247  20.553  -2.520  0.00  0.00     0.127 C 
BRANCH  13  14
ATOM     14  C16 NON d   1     -36.260  22.010  -2.997  0.00  0.00     0.060 C 
BRANCH  14  15
ATOM     15  C17 NON d   1     -37.615  22.616  -3.242  0.00  0.00    -0.029 A 
ATOM     16  C18 NON d   1     -38.362  23.424  -2.404  0.00  0.00     0.096 A 
ATOM     17  N4  NON d   1     -39.539  23.736  -3.030  0.00  0.00    -0.365 N 
ATOM     18  C19 NON d   1     -39.590  23.149  -4.271  0.00  0.00     0.042 A 
ATOM     19  H18 NON d   1     -40.275  24.307  -2.638  0.00  0.00     0.165 HD
ATOM     20  C20 NON d   1     -40.594  23.192  -5.247  0.00  0.00     0.030 A 
ATOM     21  C24 NON d   1     -38.402  22.436  -4.435  0.00  0.00    -0.002 A 
ATOM     22  C21 NON d   1     -40.382  22.477  -6.429  0.00  0.00     0.002 A 
ATOM     23  C22 NON d   1     -39.210  21.751  -6.624  0.00  0.00     0.001 A 
ATOM     24  C23 NON d   1     -38.214  21.722  -5.638  0.00  0.00     0.014 A 
ENDBRANCH  14  15
ENDBRANCH  13  14
ENDBRANCH  11  13
ENDBRANCH   8   9
ENDBRANCH   4   7
BRANCH   1  25
ATOM     25  C7  NON d   1     -45.571  17.581  -4.791  0.00  0.00     0.256 C 
ATOM     26  N2  NON d   1     -46.126  16.985  -3.671  0.00  0.00    -0.321 N 
ATOM     27  H7  NON d   1     -45.606  16.961  -2.805  0.00  0.00     0.169 HD
ATOM     28  O1  NON d   1     -46.153  17.741  -5.861  0.00  0.00    -0.267 OA
BRANCH  26  29
ATOM     29  C6  NON d   1     -47.440  16.460  -3.537  0.00  0.00     0.056 A 
ATOM     30  C5  NON d   1     -48.117  16.355  -2.320  0.00  0.00     0.031 A 
ATOM     31  C4  NON d   1     -49.386  15.772  -2.256  0.00  0.00     0.002 A 
ATOM     32  C3  NON d   1     -49.988  15.278  -3.409  0.00  0.00     0.002 A 
ATOM     33  C2  NON d   1     -49.331  15.383  -4.633  0.00  0.00     0.025 A 
ATOM     34  C1  NON d   1     -48.076  16.002  -4.715  0.00  0.00     0.033 A 
BRANCH  34  35
ATOM     35  N1  NON d   1     -47.440  16.130  -5.976  0.00  0.00    -0.301 NA
ATOM     36  H1  NON d   1     -47.413  15.242  -6.475  0.00  0.00     0.124 HD
ATOM     37  H2  NON d   1     -47.930  16.820  -6.540  0.00  0.00     0.124 HD
ENDBRANCH  34  35
ENDBRANCH  26  29
ENDBRANCH   1  25
TORSDOF 8
ENDMDL
MODEL 8
REMARK VINA RESULT:   -32.766      2.476      3.306
REMARK INTER + INTRA:         -37.040
REMARK INTER:                 -35.152
REMARK INTRA:                  -1.888
REMARK CONF_INDEPENDENT:        2.386
REMARK UNBOUND:                -1.888
REMARK  8 active torsions:
REMARK  status: ('A' for Active; 'I' for Inactive)
REMARK    1  A    between atoms: N1_1  and  C1_2 
REMARK    2  A    between atoms: C6_7  and  N2_8 
REMARK       I    between atoms: N2_8  and  C7_9 
REMARK    3  A    between atoms: C7_9  and  C8_11 
REMARK    4  A    between atoms: C11_14  and  C12_15 
REMARK    5  A    between atoms: C13_16  and  C14_17 
REMARK       I    between atoms: C14_17  and  N3_19 
REMARK    6  A    between atoms: N3_19  and  C15_20 
REMARK    7  A    between atoms: C15_20  and  C16_21 
REMARK    8  A    between atoms: C16_21  and  C17_22 
ROOT
ATOM      1  C8  NON d   1     -43.899  17.615  -4.639  0.00  0.00     0.032 A 
ATOM      2  C9  NON d   1     -43.772  18.768  -5.427  0.00  0.00     0.018 A 
ATOM      3  C10 NON d   1     -42.600  19.534  -5.412  0.00  0.00     0.012 A 
ATOM      4  C11 NON d   1     -41.510  19.177  -4.607  0.00  0.00    -0.036 A 
ATOM      5  C25 NON d   1     -41.638  18.028  -3.814  0.00  0.00     0.012 A 
ATOM      6  C26 NON d   1     -42.816  17.253  -3.828  0.00  0.00     0.018 A 
ENDROOT
BRANCH   4   7
ATOM      7  C12 NON d   1     -40.302  20.027  -4.664  0.00  0.00     0.017 C 
ATOM      8  C13 NON d   1     -39.039  19.688  -4.356  0.00  0.00     0.075 C 
BRANCH   8   9
ATOM      9  C14 NON d   1     -37.955  20.705  -4.499  0.00  0.00     0.241 C 
ATOM     10  O2  NON d   1     -36.884  20.613  -3.914  0.00  0.00    -0.269 OA
ATOM     11  N3  NON d   1     -38.279  21.739  -5.348  0.00  0.00    -0.357 N 
ATOM     12  H12 NON d   1     -39.121  21.699  -5.903  0.00  0.00     0.162 HD
BRANCH  11  13
ATOM     13  C15 NON d   1     -37.294  22.763  -5.673  0.00  0.00     0.127 C 
BRANCH  13  14
ATOM     14  C16 NON d   1     -37.608  24.136  -5.067  0.00  0.00     0.060 C 
BRANCH  14  15
ATOM     15  C17 NON d   1     -38.923  24.259  -4.347  0.00  0.00    -0.029 A 
ATOM     16  C18 NON d   1     -40.082  24.883  -4.771  0.00  0.00     0.096 A 
ATOM     17  N4  NON d   1     -41.030  24.760  -3.792  0.00  0.00    -0.365 N 
ATOM     18  C19 NON d   1     -40.523  24.064  -2.721  0.00  0.00     0.042 A 
ATOM     19  H18 NON d   1     -41.968  25.133  -3.837  0.00  0.00     0.165 HD
ATOM     20  C20 NON d   1     -41.129  23.709  -1.509  0.00  0.00     0.030 A 
ATOM     21  C24 NON d   1     -39.203  23.739  -3.034  0.00  0.00    -0.002 A 
ATOM     22  C21 NON d   1     -40.359  23.003  -0.580  0.00  0.00     0.002 A 
ATOM     23  C22 NON d   1     -39.036  22.667  -0.857  0.00  0.00     0.001 A 
ATOM     24  C23 NON d   1     -38.448  23.027  -2.078  0.00  0.00     0.014 A 
ENDBRANCH  14  15
ENDBRANCH  13  14
ENDBRANCH  11  13
ENDBRANCH   8   9
ENDBRANCH   4   7
BRANCH   1  25
ATOM     25  C7  NON d   1     -45.181  16.836  -4.763  0.00  0.00     0.256 C 
ATOM     26  N2  NON d   1     -46.161  17.045  -3.807  0.00  0.00    -0.321 N 
ATOM     27  H7  NON d   1     -46.038  17.766  -3.111  0.00  0.00     0.169 HD
ATOM     28  O1  NON d   1     -45.273  16.049  -5.701  0.00  0.00    -0.267 OA
BRANCH  26  29
ATOM     29  C6  NON d   1     -47.432  16.413  -3.725  0.00  0.00     0.056 A 
ATOM     30  C5  NON d   1     -48.084  16.127  -2.523  0.00  0.00     0.031 A 
ATOM     31  C4  NON d   1     -49.306  15.448  -2.517  0.00  0.00     0.002 A 
ATOM     32  C3  NON d   1     -49.885  15.040  -3.714  0.00  0.00     0.002 A 
ATOM     33  C2  NON d   1     -49.254  15.325  -4.923  0.00  0.00     0.025 A 
ATOM     34  C1  NON d   1     -48.048  16.041  -4.942  0.00  0.00     0.033 A 
BRANCH  34  35
ATOM     35  N1  NON d   1     -47.440  16.351  -6.185  0.00  0.00    -0.301 NA
ATOM     36  H1  NON d   1     -46.762  17.106  -6.093  0.00  0.00     0.124 HD
ATOM     37  H2  NON d   1     -46.977  15.526  -6.558  0.00  0.00     0.124 HD
ENDBRANCH  34  35
ENDBRANCH  26  29
ENDBRANCH   1  25
TORSDOF 8
ENDMDL
MODEL 9
REMARK VINA RESULT:   -32.553      5.891      8.179
REMARK INTER + INTRA:         -36.174
REMARK INTER:                 -34.939
REMARK INTRA:                  -1.235
REMARK CONF_INDEPENDENT:        2.386
REMARK UNBOUND:                -1.235
REMARK  8 active torsions:
REMARK  status: ('A' for Active; 'I' for Inactive)
REMARK    1  A    between atoms: N1_1  and  C1_2 
REMARK    2  A    between atoms: C6_7  and  N2_8 
REMARK       I    between atoms: N2_8  and  C7_9 
REMARK    3  A    between atoms: C7_9  and  C8_11 
REMARK    4  A    between atoms: C11_14  and  C12_15 
REMARK    5  A    between atoms: C13_16  and  C14_17 
REMARK       I    between atoms: C14_17  and  N3_19 
REMARK    6  A    between atoms: N3_19  and  C15_20 
REMARK    7  A    between atoms: C15_20  and  C16_21 
REMARK    8  A    between atoms: C16_21  and  C17_22 
ROOT
ATOM      1  C8  NON d   1     -43.264  17.976  -4.858  0.00  0.00     0.032 A 
ATOM      2  C9  NON d   1     -42.036  17.316  -5.004  0.00  0.00     0.018 A 
ATOM      3  C10 NON d   1     -40.956  17.926  -5.653  0.00  0.00     0.012 A 
ATOM      4  C11 NON d   1     -41.062  19.219  -6.181  0.00  0.00    -0.036 A 
ATOM      5  C25 NON d   1     -42.292  19.878  -6.041  0.00  0.00     0.012 A 
ATOM      6  C26 NON d   1     -43.382  19.268  -5.387  0.00  0.00     0.018 A 
ENDROOT
BRANCH   4   7
ATOM      7  C12 NON d   1     -39.869  19.799  -6.832  0.00  0.00     0.017 C 
ATOM      8  C13 NON d   1     -39.146  19.283  -7.841  0.00  0.00     0.075 C 
BRANCH   8   9
ATOM      9  C14 NON d   1     -37.974  20.047  -8.364  0.00  0.00     0.241 C 
ATOM     10  O2  NON d   1     -36.862  19.549  -8.479  0.00  0.00    -0.269 OA
ATOM     11  N3  NON d   1     -38.272  21.347  -8.703  0.00  0.00    -0.357 N 
ATOM     12  H12 NON d   1     -39.229  21.667  -8.711  0.00  0.00     0.162 HD
BRANCH  11  13
ATOM     13  C15 NON d   1     -37.263  22.198  -9.321  0.00  0.00     0.127 C 
BRANCH  13  14
ATOM     14  C16 NON d   1     -37.599  22.610 -10.759  0.00  0.00     0.060 C 
BRANCH  14  15
ATOM     15  C17 NON d   1     -38.832  23.454 -10.937  0.00  0.00    -0.029 A 
ATOM     16  C18 NON d   1     -39.624  24.036  -9.965  0.00  0.00     0.096 A 
ATOM     17  N4  NON d   1     -40.648  24.708 -10.577  0.00  0.00    -0.365 N 
ATOM     18  C19 NON d   1     -40.552  24.583 -11.943  0.00  0.00     0.042 A 
ATOM     19  H18 NON d   1     -41.380  25.216 -10.101  0.00  0.00     0.165 HD
ATOM     20  C20 NON d   1     -41.373  25.097 -12.954  0.00  0.00     0.030 A 
ATOM     21  C24 NON d   1     -39.426  23.800 -12.202  0.00  0.00    -0.002 A 
ATOM     22  C21 NON d   1     -41.040  24.795 -14.277  0.00  0.00     0.002 A 
ATOM     23  C22 NON d   1     -39.927  24.011 -14.573  0.00  0.00     0.001 A 
ATOM     24  C23 NON d   1     -39.114  23.510 -13.547  0.00  0.00     0.014 A 
ENDBRANCH  14  15
ENDBRANCH  13  14
ENDBRANCH  11  13
ENDBRANCH   8   9
ENDBRANCH   4   7
BRANCH   1  25
ATOM     25  C7  NON d   1     -44.348  17.253  -4.103  0.00  0.00     0.256 C 
ATOM     26  N2  NON d   1     -45.660  17.456  -4.499  0.00  0.00    -0.321 N 
ATOM     27  H7  NON d   1     -45.856  18.003  -5.325  0.00  0.00     0.169 HD
ATOM     28  O1  NON d   1     -44.001  16.534  -3.170  0.00  0.00    -0.267 OA
BRANCH  26  29
ATOM     29  C6  NON d   1     -46.829  16.889  -3.925  0.00  0.00     0.056 A 
ATOM     30  C5  NON d   1     -47.146  16.964  -2.566  0.00  0.00     0.031 A 
ATOM     31  C4  NON d   1     -48.285  16.329  -2.062  0.00  0.00     0.002 A 
ATOM     32  C3  NON d   1     -49.115  15.603  -2.910  0.00  0.00     0.002 A 
ATOM     33  C2  NON d   1     -48.820  15.526  -4.270  0.00  0.00     0.025 A 
ATOM     34  C1  NON d   1     -47.703  16.193  -4.792  0.00  0.00     0.033 A 
BRANCH  34  35
ATOM     35  N1  NON d   1     -47.440  16.130  -6.185  0.00  0.00    -0.301 NA
ATOM     36  H1  NON d   1     -47.296  15.171  -6.497  0.00  0.00     0.124 HD
ATOM     37  H2  NON d   1     -48.215  16.540  -6.700  0.00  0.00     0.124 HD
ENDBRANCH  34  35
ENDBRANCH  26  29
ENDBRANCH   1  25
TORSDOF 8
ENDMDL
