MODEL 1
REMARK VINA RESULT:   -29.013      0.000      0.000
REMARK INTER + INTRA:         -32.614
REMARK INTER:                 -30.803
REMARK INTRA:                  -1.812
REMARK CONF_INDEPENDENT:        1.790
REMARK UNBOUND:                -1.812
REMARK  6 active torsions:
REMARK  status: ('A' for Active; 'I' for Inactive)
REMARK    1  A    between atoms: O1_2  and  C2_3 
REMARK    2  A    between atoms: C7_8  and  N1_9 
REMARK       I    between atoms: N1_9  and  C8_10 
REMARK       I    between atoms: C8_10  and  N2_12 
REMARK    3  A    between atoms: N2_12  and  C9_13 
REMARK    4  A    between atoms: C9_13  and  C10_14 
REMARK    5  A    between atoms: C13_17  and  C14_18 
REMARK       I    between atoms: C14_18  and  N3_20 
REMARK    6  A    between atoms: N3_20  and  O4_21 
ROOT
ATOM      1  N1  NON d   1     -45.852  18.126  -5.407  0.00  0.00    -0.311 N 
ATOM      2  C8  NON d   1     -46.905  17.470  -5.952  0.00  0.00     0.299 C 
ATOM      3  O2  NON d   1     -47.754  18.089  -6.594  0.00  0.00    -0.254 OA
ATOM      4  N2  NON d   1     -47.065  16.130  -5.810  0.00  0.00    -0.240 NA
ATOM      5  H8  NON d   1     -45.956  19.136  -5.436  0.00  0.00     0.170 HD
ATOM      6  H9  NON d   1     -47.811  15.854  -6.434  0.00  0.00     0.132 HD
ENDROOT
BRANCH   4   7
ATOM      7  C9  NON d   1     -47.217  15.509  -4.502  0.00  0.00     0.135 C 
BRANCH   7   8
ATOM      8  C10 NON d   1     -48.601  15.743  -3.930  0.00  0.00    -0.045 A 
ATOM      9  C11 NON d   1     -49.048  17.037  -3.635  0.00  0.00     0.009 A 
ATOM     10  C12 NON d   1     -50.337  17.253  -3.131  0.00  0.00     0.017 A 
ATOM     11  C13 NON d   1     -51.209  16.176  -2.907  0.00  0.00     0.034 A 
ATOM     12  C15 NON d   1     -50.762  14.880  -3.185  0.00  0.00     0.017 A 
ATOM     13  C16 NON d   1     -49.472  14.668  -3.694  0.00  0.00     0.009 A 
BRANCH  11  14
ATOM     14  C14 NON d   1     -52.583  16.485  -2.403  0.00  0.00     0.275 C 
ATOM     15  O3  NON d   1     -53.551  15.796  -2.724  0.00  0.00    -0.265 OA
ATOM     16  N3  NON d   1     -52.733  17.556  -1.553  0.00  0.00    -0.233 N 
ATOM     17  H14 NON d   1     -52.010  18.165  -1.200  0.00  0.00     0.197 HD
BRANCH  16  18
ATOM     18  O4  NON d   1     -54.039  17.769  -1.051  0.00  0.00    -0.287 OA
ATOM     19  H15 NON d   1     -54.400  16.855  -1.023  0.00  0.00     0.244 HD
ENDBRANCH  16  18
ENDBRANCH  11  14
ENDBRANCH   7   8
ENDBRANCH   4   7
BRANCH   1  20
ATOM     20  C7  NON d   1     -44.600  17.691  -4.928  0.00  0.00     0.069 C 
ATOM     21  C6  NON d   1     -44.442  16.505  -4.197  0.00  0.00     0.032 C 
ATOM     22  C5  NON d   1     -43.215  16.160  -3.631  0.00  0.00     0.002 C 
ATOM     23  C4  NON d   1     -42.120  16.990  -3.810  0.00  0.00     0.003 C 
ATOM     24  C3  NON d   1     -42.238  18.130  -4.608  0.00  0.00     0.039 C 
ATOM     25  C2  NON d   1     -43.461  18.471  -5.219  0.00  0.00     0.095 C 
BRANCH  25  26
ATOM     26  O1  NON d   1     -43.598  19.534  -6.121  0.00  0.00    -0.354 OA
ATOM     27  C1  NON d   1     -42.187  19.875  -6.635  0.00  0.00     0.210 C 
ENDBRANCH  25  26
ENDBRANCH   1  20
TORSDOF 6
ENDMDL
MODEL 2
REMARK VINA RESULT:   -27.218      2.622      7.668
REMARK INTER + INTRA:         -28.711
REMARK INTER:                 -29.008
REMARK INTRA:                   0.297
REMARK CONF_INDEPENDENT:        1.790
REMARK UNBOUND:                 0.297
REMARK  6 active torsions:
REMARK  status: ('A' for Active; 'I' for Inactive)
REMARK    1  A    between atoms: O1_2  and  C2_3 
REMARK    2  A    between atoms: C7_8  and  N1_9 
REMARK       I    between atoms: N1_9  and  C8_10 
REMARK       I    between atoms: C8_10  and  N2_12 
REMARK    3  A    between atoms: N2_12  and  C9_13 
REMARK    4  A    between atoms: C9_13  and  C10_14 
REMARK    5  A    between atoms: C13_17  and  C14_18 
REMARK       I    between atoms: C14_18  and  N3_20 
REMARK    6  A    between atoms: N3_20  and  O4_21 
ROOT
ATOM      1  N1  NON d   1     -47.078  15.330  -4.180  0.00  0.00    -0.311 N 
ATOM      2  C8  NON d   1     -46.928  15.475  -5.518  0.00  0.00     0.299 C 
ATOM      3  O2  NON d   1     -46.309  14.630  -6.167  0.00  0.00    -0.254 OA
ATOM      4  N2  NON d   1     -47.440  16.540  -6.185  0.00  0.00    -0.240 NA
ATOM      5  H8  NON d   1     -46.495  14.594  -3.792  0.00  0.00     0.170 HD
ATOM      6  H9  NON d   1     -47.349  16.342  -7.172  0.00  0.00     0.132 HD
ENDROOT
BRANCH   4   7
ATOM      7  C9  NON d   1     -47.031  17.904  -5.883  0.00  0.00     0.135 C 
BRANCH   7   8
ATOM      8  C10 NON d   1     -45.583  17.969  -5.441  0.00  0.00    -0.045 A 
ATOM      9  C11 NON d   1     -44.776  19.062  -5.780  0.00  0.00     0.009 A 
ATOM     10  C12 NON d   1     -43.445  19.132  -5.347  0.00  0.00     0.017 A 
ATOM     11  C13 NON d   1     -42.890  18.106  -4.566  0.00  0.00     0.034 A 
ATOM     12  C15 NON d   1     -43.688  17.006  -4.238  0.00  0.00     0.017 A 
ATOM     13  C16 NON d   1     -45.022  16.940  -4.669  0.00  0.00     0.009 A 
BRANCH  11  14
ATOM     14  C14 NON d   1     -41.475  18.267  -4.109  0.00  0.00     0.275 C 
ATOM     15  O3  NON d   1     -40.547  18.331  -4.914  0.00  0.00    -0.265 OA
ATOM     16  N3  NON d   1     -41.241  18.358  -2.756  0.00  0.00    -0.233 N 
ATOM     17  H14 NON d   1     -41.924  18.351  -2.014  0.00  0.00     0.197 HD
BRANCH  16  18
ATOM     18  O4  NON d   1     -39.895  18.575  -2.375  0.00  0.00    -0.287 OA
ATOM     19  H15 NON d   1     -39.880  18.211  -1.461  0.00  0.00     0.244 HD
ENDBRANCH  16  18
ENDBRANCH  11  14
ENDBRANCH   7   8
ENDBRANCH   4   7
BRANCH   1  20
ATOM     20  C7  NON d   1     -47.965  15.909  -3.250  0.00  0.00     0.069 C 
ATOM     21  C6  NON d   1     -47.522  16.603  -2.115  0.00  0.00     0.032 C 
ATOM     22  C5  NON d   1     -48.419  17.060  -1.149  0.00  0.00     0.002 C 
ATOM     23  C4  NON d   1     -49.777  16.848  -1.319  0.00  0.00     0.003 C 
ATOM     24  C3  NON d   1     -50.241  16.236  -2.485  0.00  0.00     0.039 C 
ATOM     25  C2  NON d   1     -49.352  15.804  -3.488  0.00  0.00     0.095 C 
BRANCH  25  26
ATOM     26  O1  NON d   1     -49.776  15.296  -4.723  0.00  0.00    -0.354 OA
ATOM     27  C1  NON d   1     -50.322  13.879  -4.466  0.00  0.00     0.210 C 
ENDBRANCH  25  26
ENDBRANCH   1  20
TORSDOF 6
ENDMDL
MODEL 3
REMARK VINA RESULT:   -26.672      2.894      7.717
REMARK INTER + INTRA:         -29.582
REMARK INTER:                 -28.461
REMARK INTRA:                  -1.120
REMARK CONF_INDEPENDENT:        1.790
REMARK UNBOUND:                -1.120
REMARK  6 active torsions:
REMARK  status: ('A' for Active; 'I' for Inactive)
REMARK    1  A    between atoms: O1_2  and  C2_3 
REMARK    2  A    between atoms: C7_8  and  N1_9 
REMARK       I    between atoms: N1_9  and  C8_10 
REMARK       I    between atoms: C8_10  and  N2_12 
REMARK    3  A    between atoms: N2_12  and  C9_13 
REMARK    4  A    between atoms: C9_13  and  C10_14 
REMARK    5  A    between atoms: C13_17  and  C14_18 
REMARK       I    between atoms: C14_18  and  N3_20 
REMARK    6  A    between atoms: N3_20  and  O4_21 
ROOT
ATOM      1  N1  NON d   1     -47.379  14.637  -4.761  0.00  0.00    -0.311 N 
ATOM      2  C8  NON d   1     -46.797  15.222  -5.834  0.00  0.00     0.299 C 
ATOM      3  O2  NON d   1     -45.994  14.590  -6.524  0.00  0.00    -0.254 OA
ATOM      4  N2  NON d   1     -47.065  16.505  -6.185  0.00  0.00    -0.240 NA
ATOM      5  H8  NON d   1     -46.953  13.749  -4.512  0.00  0.00     0.170 HD
ATOM      6  H9  NON d   1     -46.652  16.655  -7.096  0.00  0.00     0.132 HD
ENDROOT
BRANCH   4   7
ATOM      7  C9  NON d   1     -46.785  17.620  -5.291  0.00  0.00     0.135 C 
BRANCH   7   8
ATOM      8  C10 NON d   1     -45.313  17.700  -4.941  0.00  0.00    -0.045 A 
ATOM      9  C11 NON d   1     -44.519  18.755  -5.408  0.00  0.00     0.009 A 
ATOM     10  C12 NON d   1     -43.164  18.841  -5.060  0.00  0.00     0.017 A 
ATOM     11  C13 NON d   1     -42.571  17.869  -4.240  0.00  0.00     0.034 A 
ATOM     12  C15 NON d   1     -43.356  16.805  -3.784  0.00  0.00     0.017 A 
ATOM     13  C16 NON d   1     -44.714  16.724  -4.130  0.00  0.00     0.009 A 
BRANCH  11  14
ATOM     14  C14 NON d   1     -41.130  18.046  -3.880  0.00  0.00     0.275 C 
ATOM     15  O3  NON d   1     -40.330  18.539  -4.674  0.00  0.00    -0.265 OA
ATOM     16  N3  NON d   1     -40.726  17.656  -2.624  0.00  0.00    -0.233 N 
ATOM     17  H14 NON d   1     -41.299  17.273  -1.887  0.00  0.00     0.197 HD
BRANCH  16  18
ATOM     18  O4  NON d   1     -39.370  17.902  -2.306  0.00  0.00    -0.287 OA
ATOM     19  H15 NON d   1     -39.399  17.974  -1.326  0.00  0.00     0.244 HD
ENDBRANCH  16  18
ENDBRANCH  11  14
ENDBRANCH   7   8
ENDBRANCH   4   7
BRANCH   1  20
ATOM     20  C7  NON d   1     -48.527  14.954  -4.005  0.00  0.00     0.069 C 
ATOM     21  C6  NON d   1     -49.732  14.250  -4.132  0.00  0.00     0.032 C 
ATOM     22  C5  NON d   1     -50.886  14.660  -3.463  0.00  0.00     0.002 C 
ATOM     23  C4  NON d   1     -50.840  15.771  -2.637  0.00  0.00     0.003 C 
ATOM     24  C3  NON d   1     -49.627  16.431  -2.431  0.00  0.00     0.039 C 
ATOM     25  C2  NON d   1     -48.445  16.005  -3.068  0.00  0.00     0.095 C 
BRANCH  25  26
ATOM     26  O1  NON d   1     -47.187  16.560  -2.801  0.00  0.00    -0.354 OA
ATOM     27  C1  NON d   1     -47.425  17.888  -2.060  0.00  0.00     0.210 C 
ENDBRANCH  25  26
ENDBRANCH   1  20
TORSDOF 6
ENDMDL
