MODEL 1
REMARK VINA RESULT:   -16.356      0.000      0.000
REMARK INTER + INTRA:         -21.661
REMARK INTER:                 -19.339
REMARK INTRA:                  -2.322
REMARK CONF_INDEPENDENT:        2.983
REMARK UNBOUND:                -2.322
REMARK  10 active torsions:
REMARK  status: ('A' for Active; 'I' for Inactive)
REMARK    1  A    between atoms: N3_3  and  C1_4 
REMARK    2  A    between atoms: C5_8  and  C6_9 
REMARK    3  A    between atoms: C6_9  and  O1_10 
REMARK    4  A    between atoms: O1_10  and  C7_11 
REMARK       I    between atoms: C7_11  and  N4_13 
REMARK    5  A    between atoms: N4_13  and  C8_14 
REMARK    6  A    between atoms: C8_14  and  C9_15 
REMARK    7  A    between atoms: C12_18  and  C13_19 
REMARK       I    between atoms: C13_19  and  N5_21 
REMARK    8  A    between atoms: N5_21  and  C14_22 
REMARK    9  A    between atoms: C16_24  and  C17_25 
REMARK   10  A    between atoms: C25_33  and  N6_34 
ROOT
ATOM      1  N1  NON d   1     -53.348  17.254  -2.126  0.00  0.00     0.068 N 
ATOM      2  N2  NON d   1     -52.583  16.424  -2.297  0.00  0.00    -0.162 NA
ATOM      3  N3  NON d   1     -51.758  15.506  -2.481  0.00  0.00    -0.073 NA
ENDROOT
BRANCH   3   4
ATOM      4  C1  NON d   1     -50.415  15.894  -2.670  0.00  0.00     0.093 A 
ATOM      5  C2  NON d   1     -49.613  16.498  -1.686  0.00  0.00     0.034 A 
ATOM      6  C3  NON d   1     -48.289  16.842  -1.957  0.00  0.00     0.003 A 
ATOM      7  C4  NON d   1     -47.749  16.588  -3.215  0.00  0.00     0.009 A 
ATOM      8  C5  NON d   1     -48.516  15.984  -4.224  0.00  0.00    -0.032 A 
ATOM      9  C28 NON d   1     -49.845  15.643  -3.935  0.00  0.00     0.043 A 
BRANCH   8  10
ATOM     10  C6  NON d   1     -47.841  15.747  -5.562  0.00  0.00     0.219 C 
BRANCH  10  11
ATOM     11  O1  NON d   1     -46.419  15.547  -5.530  0.00  0.00    -0.299 OA
BRANCH  11  12
ATOM     12  C7  NON d   1     -45.757  16.739  -5.435  0.00  0.00     0.361 C 
ATOM     13  O2  NON d   1     -45.941  17.697  -6.175  0.00  0.00    -0.239 OA
ATOM     14  N4  NON d   1     -44.875  16.746  -4.385  0.00  0.00    -0.333 N 
ATOM     15  H6  NON d   1     -44.969  15.984  -3.731  0.00  0.00     0.165 HD
BRANCH  14  16
ATOM     16  C8  NON d   1     -44.210  17.987  -4.034  0.00  0.00     0.163 C 
BRANCH  16  17
ATOM     17  C9  NON d   1     -43.042  18.439  -4.889  0.00  0.00    -0.040 A 
ATOM     18  C10 NON d   1     -41.834  17.708  -4.813  0.00  0.00     0.010 A 
ATOM     19  C11 NON d   1     -40.724  18.005  -5.628  0.00  0.00     0.017 A 
ATOM     20  C12 NON d   1     -40.800  19.052  -6.546  0.00  0.00     0.032 A 
ATOM     21  C26 NON d   1     -41.990  19.801  -6.602  0.00  0.00     0.017 A 
ATOM     22  C27 NON d   1     -43.092  19.505  -5.788  0.00  0.00     0.010 A 
BRANCH  20  23
ATOM     23  C13 NON d   1     -39.734  19.393  -7.544  0.00  0.00     0.256 C 
ATOM     24  O3  NON d   1     -38.848  18.552  -7.694  0.00  0.00    -0.267 OA
ATOM     25  N5  NON d   1     -39.787  20.614  -8.205  0.00  0.00    -0.321 N 
ATOM     26  H11 NON d   1     -40.449  21.298  -7.873  0.00  0.00     0.169 HD
BRANCH  25  27
ATOM     27  C14 NON d   1     -38.918  21.060  -9.262  0.00  0.00     0.057 A 
ATOM     28  C15 NON d   1     -39.515  21.844 -10.290  0.00  0.00     0.043 A 
ATOM     29  C16 NON d   1     -38.793  22.369 -11.396  0.00  0.00    -0.024 A 
ATOM     30  C23 NON d   1     -37.428  22.044 -11.432  0.00  0.00     0.014 A 
ATOM     31  C24 NON d   1     -36.830  21.243 -10.462  0.00  0.00     0.026 A 
ATOM     32  C25 NON d   1     -37.542  20.766  -9.358  0.00  0.00     0.033 A 
BRANCH  29  33
ATOM     33  C17 NON d   1     -39.412  23.206 -12.485  0.00  0.00    -0.026 A 
ATOM     34  C18 NON d   1     -40.554  24.005 -12.278  0.00  0.00     0.012 A 
ATOM     35  C19 NON d   1     -41.130  24.771 -13.305  0.00  0.00     0.001 A 
ATOM     36  C20 NON d   1     -40.581  24.767 -14.581  0.00  0.00     0.000 A 
ATOM     37  C21 NON d   1     -39.455  24.000 -14.829  0.00  0.00     0.001 A 
ATOM     38  C22 NON d   1     -38.887  23.238 -13.799  0.00  0.00     0.012 A 
ENDBRANCH  29  33
BRANCH  32  39
ATOM     39  N6  NON d   1     -36.887  19.787  -8.582  0.00  0.00    -0.301 NA
ATOM     40  H20 NON d   1     -37.144  18.851  -8.912  0.00  0.00     0.124 HD
ATOM     41  H21 NON d   1     -37.101  19.857  -7.595  0.00  0.00     0.124 HD
ENDBRANCH  32  39
ENDBRANCH  25  27
ENDBRANCH  20  23
ENDBRANCH  16  17
ENDBRANCH  14  16
ENDBRANCH  11  12
ENDBRANCH  10  11
ENDBRANCH   8  10
ENDBRANCH   3   4
TORSDOF 10
ENDMDL
MODEL 2
REMARK VINA RESULT:   -15.357      5.735      8.361
REMARK INTER + INTRA:         -20.253
REMARK INTER:                 -18.340
REMARK INTRA:                  -1.913
REMARK CONF_INDEPENDENT:        2.983
REMARK UNBOUND:                -1.913
REMARK  10 active torsions:
REMARK  status: ('A' for Active; 'I' for Inactive)
REMARK    1  A    between atoms: N3_3  and  C1_4 
REMARK    2  A    between atoms: C5_8  and  C6_9 
REMARK    3  A    between atoms: C6_9  and  O1_10 
REMARK    4  A    between atoms: O1_10  and  C7_11 
REMARK       I    between atoms: C7_11  and  N4_13 
REMARK    5  A    between atoms: N4_13  and  C8_14 
REMARK    6  A    between atoms: C8_14  and  C9_15 
REMARK    7  A    between atoms: C12_18  and  C13_19 
REMARK       I    between atoms: C13_19  and  N5_21 
REMARK    8  A    between atoms: N5_21  and  C14_22 
REMARK    9  A    between atoms: C16_24  and  C17_25 
REMARK   10  A    between atoms: C25_33  and  N6_34 
ROOT
ATOM      1  N1  NON d   1     -51.395  18.376   0.115  0.00  0.00     0.068 N 
ATOM      2  N2  NON d   1     -51.768  17.776  -0.783  0.00  0.00    -0.162 NA
ATOM      3  N3  NON d   1     -52.189  17.125  -1.759  0.00  0.00    -0.073 NA
ENDROOT
BRANCH   3   4
ATOM      4  C1  NON d   1     -51.243  16.340  -2.450  0.00  0.00     0.093 A 
ATOM      5  C2  NON d   1     -51.449  15.009  -2.850  0.00  0.00     0.034 A 
ATOM      6  C3  NON d   1     -50.458  14.309  -3.538  0.00  0.00     0.003 A 
ATOM      7  C4  NON d   1     -49.247  14.929  -3.834  0.00  0.00     0.009 A 
ATOM      8  C5  NON d   1     -49.003  16.259  -3.453  0.00  0.00    -0.032 A 
ATOM      9  C28 NON d   1     -50.010  16.949  -2.763  0.00  0.00     0.043 A 
BRANCH   8  10
ATOM     10  C6  NON d   1     -47.654  16.849  -3.819  0.00  0.00     0.219 C 
BRANCH  10  11
ATOM     11  O1  NON d   1     -47.355  16.928  -5.222  0.00  0.00    -0.299 OA
BRANCH  11  12
ATOM     12  C7  NON d   1     -46.129  16.391  -5.494  0.00  0.00     0.361 C 
ATOM     13  O2  NON d   1     -45.943  15.398  -6.186  0.00  0.00    -0.239 OA
ATOM     14  N4  NON d   1     -45.118  17.119  -4.919  0.00  0.00    -0.333 N 
ATOM     15  H6  NON d   1     -45.382  18.021  -4.557  0.00  0.00     0.165 HD
BRANCH  14  16
ATOM     16  C8  NON d   1     -43.743  16.788  -5.244  0.00  0.00     0.163 C 
BRANCH  16  17
ATOM     17  C9  NON d   1     -42.639  17.515  -4.501  0.00  0.00    -0.040 A 
ATOM     18  C10 NON d   1     -42.017  18.616  -5.133  0.00  0.00     0.010 A 
ATOM     19  C11 NON d   1     -41.040  19.399  -4.488  0.00  0.00     0.017 A 
ATOM     20  C12 NON d   1     -40.659  19.094  -3.182  0.00  0.00     0.032 A 
ATOM     21  C26 NON d   1     -41.253  17.979  -2.561  0.00  0.00     0.017 A 
ATOM     22  C27 NON d   1     -42.223  17.200  -3.206  0.00  0.00     0.010 A 
BRANCH  20  23
ATOM     23  C13 NON d   1     -39.718  19.914  -2.351  0.00  0.00     0.256 C 
ATOM     24  O3  NON d   1     -38.601  20.103  -2.832  0.00  0.00    -0.267 OA
ATOM     25  N5  NON d   1     -40.135  20.378  -1.110  0.00  0.00    -0.321 N 
ATOM     26  H11 NON d   1     -40.998  20.011  -0.738  0.00  0.00     0.169 HD
BRANCH  25  27
ATOM     27  C14 NON d   1     -39.411  21.260  -0.232  0.00  0.00     0.057 A 
ATOM     28  C15 NON d   1     -40.134  22.366   0.297  0.00  0.00     0.043 A 
ATOM     29  C16 NON d   1     -39.568  23.322   1.185  0.00  0.00    -0.024 A 
ATOM     30  C23 NON d   1     -38.215  23.121   1.501  0.00  0.00     0.014 A 
ATOM     31  C24 NON d   1     -37.475  22.070   0.963  0.00  0.00     0.026 A 
ATOM     32  C25 NON d   1     -38.054  21.115   0.122  0.00  0.00     0.033 A 
BRANCH  29  33
ATOM     33  C17 NON d   1     -40.325  24.492   1.757  0.00  0.00    -0.026 A 
ATOM     34  C18 NON d   1     -40.862  25.518   0.956  0.00  0.00     0.012 A 
ATOM     35  C19 NON d   1     -41.554  26.611   1.503  0.00  0.00     0.001 A 
ATOM     36  C20 NON d   1     -41.738  26.716   2.875  0.00  0.00     0.000 A 
ATOM     37  C21 NON d   1     -41.232  25.725   3.701  0.00  0.00     0.001 A 
ATOM     38  C22 NON d   1     -40.541  24.639   3.148  0.00  0.00     0.012 A 
ENDBRANCH  29  33
BRANCH  32  39
ATOM     39  N6  NON d   1     -37.154  20.249  -0.533  0.00  0.00    -0.301 NA
ATOM     40  H20 NON d   1     -36.761  20.713  -1.358  0.00  0.00     0.124 HD
ATOM     41  H21 NON d   1     -37.583  19.378  -0.821  0.00  0.00     0.124 HD
ENDBRANCH  32  39
ENDBRANCH  25  27
ENDBRANCH  20  23
ENDBRANCH  16  17
ENDBRANCH  14  16
ENDBRANCH  11  12
ENDBRANCH  10  11
ENDBRANCH   8  10
ENDBRANCH   3   4
TORSDOF 10
ENDMDL
MODEL 3
REMARK VINA RESULT:   -15.117      3.350     12.273
REMARK INTER + INTRA:         -20.203
REMARK INTER:                 -18.100
REMARK INTRA:                  -2.103
REMARK CONF_INDEPENDENT:        2.983
REMARK UNBOUND:                -2.103
REMARK  10 active torsions:
REMARK  status: ('A' for Active; 'I' for Inactive)
REMARK    1  A    between atoms: N3_3  and  C1_4 
REMARK    2  A    between atoms: C5_8  and  C6_9 
REMARK    3  A    between atoms: C6_9  and  O1_10 
REMARK    4  A    between atoms: O1_10  and  C7_11 
REMARK       I    between atoms: C7_11  and  N4_13 
REMARK    5  A    between atoms: N4_13  and  C8_14 
REMARK    6  A    between atoms: C8_14  and  C9_15 
REMARK    7  A    between atoms: C12_18  and  C13_19 
REMARK       I    between atoms: C13_19  and  N5_21 
REMARK    8  A    between atoms: N5_21  and  C14_22 
REMARK    9  A    between atoms: C16_24  and  C17_25 
REMARK   10  A    between atoms: C25_33  and  N6_34 
ROOT
ATOM      1  N1  NON d   1     -42.038  20.270  -7.747  0.00  0.00     0.068 N 
ATOM      2  N2  NON d   1     -41.158  20.071  -8.447  0.00  0.00    -0.162 NA
ATOM      3  N3  NON d   1     -40.206  19.846  -9.221  0.00  0.00    -0.073 NA
ENDROOT
BRANCH   3   4
ATOM      4  C1  NON d   1     -38.924  20.222  -8.770  0.00  0.00     0.093 A 
ATOM      5  C2  NON d   1     -37.895  20.699  -9.599  0.00  0.00     0.034 A 
ATOM      6  C3  NON d   1     -36.657  21.057  -9.066  0.00  0.00     0.003 A 
ATOM      7  C4  NON d   1     -36.431  20.943  -7.697  0.00  0.00     0.009 A 
ATOM      8  C5  NON d   1     -37.435  20.473  -6.834  0.00  0.00    -0.032 A 
ATOM      9  C28 NON d   1     -38.674  20.118  -7.386  0.00  0.00     0.043 A 
BRANCH   8  10
ATOM     10  C6  NON d   1     -37.095  20.383  -5.358  0.00  0.00     0.219 C 
BRANCH  10  11
ATOM     11  O1  NON d   1     -37.918  21.154  -4.468  0.00  0.00    -0.299 OA
BRANCH  11  12
ATOM     12  C7  NON d   1     -38.691  20.342  -3.686  0.00  0.00     0.361 C 
ATOM     13  O2  NON d   1     -39.605  20.731  -2.970  0.00  0.00    -0.239 OA
ATOM     14  N4  NON d   1     -38.337  19.024  -3.820  0.00  0.00    -0.333 N 
ATOM     15  H6  NON d   1     -37.719  18.814  -4.589  0.00  0.00     0.165 HD
BRANCH  14  16
ATOM     16  C8  NON d   1     -39.161  18.008  -3.191  0.00  0.00     0.163 C 
BRANCH  16  17
ATOM     17  C9  NON d   1     -40.653  18.029  -3.462  0.00  0.00    -0.040 A 
ATOM     18  C10 NON d   1     -41.098  18.458  -4.733  0.00  0.00     0.010 A 
ATOM     19  C11 NON d   1     -42.458  18.434  -5.100  0.00  0.00     0.017 A 
ATOM     20  C12 NON d   1     -43.412  17.974  -4.193  0.00  0.00     0.032 A 
ATOM     21  C26 NON d   1     -42.976  17.576  -2.915  0.00  0.00     0.017 A 
ATOM     22  C27 NON d   1     -41.622  17.605  -2.552  0.00  0.00     0.010 A 
BRANCH  20  23
ATOM     23  C13 NON d   1     -44.868  17.794  -4.501  0.00  0.00     0.256 C 
ATOM     24  O3  NON d   1     -45.186  17.911  -5.684  0.00  0.00    -0.267 OA
ATOM     25  N5  NON d   1     -45.756  17.539  -3.463  0.00  0.00    -0.321 N 
ATOM     26  H11 NON d   1     -45.418  17.646  -2.520  0.00  0.00     0.169 HD
BRANCH  25  27
ATOM     27  C14 NON d   1     -47.158  17.236  -3.584  0.00  0.00     0.057 A 
ATOM     28  C15 NON d   1     -47.966  17.494  -2.441  0.00  0.00     0.043 A 
ATOM     29  C16 NON d   1     -49.368  17.260  -2.401  0.00  0.00    -0.024 A 
ATOM     30  C23 NON d   1     -49.921  16.722  -3.574  0.00  0.00     0.014 A 
ATOM     31  C24 NON d   1     -49.144  16.420  -4.690  0.00  0.00     0.026 A 
ATOM     32  C25 NON d   1     -47.774  16.693  -4.731  0.00  0.00     0.033 A 
BRANCH  29  33
ATOM     33  C17 NON d   1     -50.234  17.537  -1.200  0.00  0.00    -0.026 A 
ATOM     34  C18 NON d   1     -51.638  17.625  -1.277  0.00  0.00     0.012 A 
ATOM     35  C19 NON d   1     -52.434  17.898  -0.152  0.00  0.00     0.001 A 
ATOM     36  C20 NON d   1     -51.854  18.090   1.095  0.00  0.00     0.000 A 
ATOM     37  C21 NON d   1     -50.476  18.006   1.218  0.00  0.00     0.001 A 
ATOM     38  C22 NON d   1     -49.689  17.735   0.091  0.00  0.00     0.012 A 
ENDBRANCH  29  33
BRANCH  32  39
ATOM     39  N6  NON d   1     -47.069  16.132  -5.816  0.00  0.00    -0.301 NA
ATOM     40  H20 NON d   1     -46.104  15.929  -5.538  0.00  0.00     0.124 HD
ATOM     41  H21 NON d   1     -47.055  16.732  -6.631  0.00  0.00     0.124 HD
ENDBRANCH  32  39
ENDBRANCH  25  27
ENDBRANCH  20  23
ENDBRANCH  16  17
ENDBRANCH  14  16
ENDBRANCH  11  12
ENDBRANCH  10  11
ENDBRANCH   8  10
ENDBRANCH   3   4
TORSDOF 10
ENDMDL
MODEL 4
REMARK VINA RESULT:   -13.498      5.980     12.681
REMARK INTER + INTRA:         -18.150
REMARK INTER:                 -16.481
REMARK INTRA:                  -1.669
REMARK CONF_INDEPENDENT:        2.983
REMARK UNBOUND:                -1.669
REMARK  10 active torsions:
REMARK  status: ('A' for Active; 'I' for Inactive)
REMARK    1  A    between atoms: N3_3  and  C1_4 
REMARK    2  A    between atoms: C5_8  and  C6_9 
REMARK    3  A    between atoms: C6_9  and  O1_10 
REMARK    4  A    between atoms: O1_10  and  C7_11 
REMARK       I    between atoms: C7_11  and  N4_13 
REMARK    5  A    between atoms: N4_13  and  C8_14 
REMARK    6  A    between atoms: C8_14  and  C9_15 
REMARK    7  A    between atoms: C12_18  and  C13_19 
REMARK       I    between atoms: C13_19  and  N5_21 
REMARK    8  A    between atoms: N5_21  and  C14_22 
REMARK    9  A    between atoms: C16_24  and  C17_25 
REMARK   10  A    between atoms: C25_33  and  N6_34 
ROOT
ATOM      1  N1  NON d   1     -41.096  25.220   4.517  0.00  0.00     0.068 N 
ATOM      2  N2  NON d   1     -40.358  25.426   3.670  0.00  0.00    -0.162 NA
ATOM      3  N3  NON d   1     -39.559  25.665   2.743  0.00  0.00    -0.073 NA
ENDROOT
BRANCH   3   4
ATOM      4  C1  NON d   1     -38.738  24.596   2.326  0.00  0.00     0.093 A 
ATOM      5  C2  NON d   1     -37.452  24.335   2.827  0.00  0.00     0.034 A 
ATOM      6  C3  NON d   1     -36.711  23.248   2.363  0.00  0.00     0.003 A 
ATOM      7  C4  NON d   1     -37.247  22.407   1.392  0.00  0.00     0.009 A 
ATOM      8  C5  NON d   1     -38.531  22.632   0.867  0.00  0.00    -0.032 A 
ATOM      9  C28 NON d   1     -39.262  23.728   1.345  0.00  0.00     0.043 A 
BRANCH   8  10
ATOM     10  C6  NON d   1     -39.030  21.662  -0.188  0.00  0.00     0.219 C 
BRANCH  10  11
ATOM     11  O1  NON d   1     -39.666  22.244  -1.337  0.00  0.00    -0.299 OA
BRANCH  11  12
ATOM     12  C7  NON d   1     -40.028  21.282  -2.238  0.00  0.00     0.361 C 
ATOM     13  O2  NON d   1     -40.921  21.407  -3.065  0.00  0.00    -0.239 OA
ATOM     14  N4  NON d   1     -39.245  20.162  -2.124  0.00  0.00    -0.333 N 
ATOM     15  H6  NON d   1     -38.418  20.263  -1.556  0.00  0.00     0.165 HD
BRANCH  14  16
ATOM     16  C8  NON d   1     -39.380  19.108  -3.112  0.00  0.00     0.163 C 
BRANCH  16  17
ATOM     17  C9  NON d   1     -40.776  18.721  -3.560  0.00  0.00    -0.040 A 
ATOM     18  C10 NON d   1     -41.434  17.674  -2.876  0.00  0.00     0.010 A 
ATOM     19  C11 NON d   1     -42.760  17.301  -3.169  0.00  0.00     0.017 A 
ATOM     20  C12 NON d   1     -43.464  17.977  -4.166  0.00  0.00     0.032 A 
ATOM     21  C26 NON d   1     -42.802  18.999  -4.871  0.00  0.00     0.017 A 
ATOM     22  C27 NON d   1     -41.481  19.365  -4.579  0.00  0.00     0.010 A 
BRANCH  20  23
ATOM     23  C13 NON d   1     -44.910  17.752  -4.493  0.00  0.00     0.256 C 
ATOM     24  O3  NON d   1     -45.199  17.768  -5.690  0.00  0.00    -0.267 OA
ATOM     25  N5  NON d   1     -45.822  17.571  -3.460  0.00  0.00    -0.321 N 
ATOM     26  H11 NON d   1     -45.508  17.760  -2.521  0.00  0.00     0.169 HD
BRANCH  25  27
ATOM     27  C14 NON d   1     -47.217  17.241  -3.589  0.00  0.00     0.057 A 
ATOM     28  C15 NON d   1     -48.037  17.485  -2.452  0.00  0.00     0.043 A 
ATOM     29  C16 NON d   1     -49.434  17.223  -2.421  0.00  0.00    -0.024 A 
ATOM     30  C23 NON d   1     -49.969  16.674  -3.597  0.00  0.00     0.014 A 
ATOM     31  C24 NON d   1     -49.179  16.385  -4.708  0.00  0.00     0.026 A 
ATOM     32  C25 NON d   1     -47.814  16.685  -4.740  0.00  0.00     0.033 A 
BRANCH  29  33
ATOM     33  C17 NON d   1     -50.314  17.486  -1.227  0.00  0.00    -0.026 A 
ATOM     34  C18 NON d   1     -49.799  17.810   0.044  0.00  0.00     0.012 A 
ATOM     35  C19 NON d   1     -50.629  18.039   1.153  0.00  0.00     0.001 A 
ATOM     36  C20 NON d   1     -52.010  17.955   1.031  0.00  0.00     0.000 A 
ATOM     37  C21 NON d   1     -52.561  17.645  -0.202  0.00  0.00     0.001 A 
ATOM     38  C22 NON d   1     -51.725  17.416  -1.303  0.00  0.00     0.012 A 
ENDBRANCH  29  33
BRANCH  32  39
ATOM     39  N6  NON d   1     -47.091  16.136  -5.819  0.00  0.00    -0.301 NA
ATOM     40  H20 NON d   1     -46.217  15.723  -5.480  0.00  0.00     0.124 HD
ATOM     41  H21 NON d   1     -46.875  16.817  -6.537  0.00  0.00     0.124 HD
ENDBRANCH  32  39
ENDBRANCH  25  27
ENDBRANCH  20  23
ENDBRANCH  16  17
ENDBRANCH  14  16
ENDBRANCH  11  12
ENDBRANCH  10  11
ENDBRANCH   8  10
ENDBRANCH   3   4
TORSDOF 10
ENDMDL
MODEL 5
REMARK VINA RESULT:   -13.373      4.604     12.434
REMARK INTER + INTRA:         -18.312
REMARK INTER:                 -16.356
REMARK INTRA:                  -1.956
REMARK CONF_INDEPENDENT:        2.983
REMARK UNBOUND:                -1.956
REMARK  10 active torsions:
REMARK  status: ('A' for Active; 'I' for Inactive)
REMARK    1  A    between atoms: N3_3  and  C1_4 
REMARK    2  A    between atoms: C5_8  and  C6_9 
REMARK    3  A    between atoms: C6_9  and  O1_10 
REMARK    4  A    between atoms: O1_10  and  C7_11 
REMARK       I    between atoms: C7_11  and  N4_13 
REMARK    5  A    between atoms: N4_13  and  C8_14 
REMARK    6  A    between atoms: C8_14  and  C9_15 
REMARK    7  A    between atoms: C12_18  and  C13_19 
REMARK       I    between atoms: C13_19  and  N5_21 
REMARK    8  A    between atoms: N5_21  and  C14_22 
REMARK    9  A    between atoms: C16_24  and  C17_25 
REMARK   10  A    between atoms: C25_33  and  N6_34 
ROOT
ATOM      1  N1  NON d   1     -40.275  23.940  -8.649  0.00  0.00     0.068 N 
ATOM      2  N2  NON d   1     -39.428  23.712  -7.918  0.00  0.00    -0.162 NA
ATOM      3  N3  NON d   1     -38.494  23.457  -7.131  0.00  0.00    -0.073 NA
ENDROOT
BRANCH   3   4
ATOM      4  C1  NON d   1     -38.786  23.554  -5.754  0.00  0.00     0.093 A 
ATOM      5  C2  NON d   1     -39.801  24.357  -5.208  0.00  0.00     0.034 A 
ATOM      6  C3  NON d   1     -40.025  24.386  -3.832  0.00  0.00     0.003 A 
ATOM      7  C4  NON d   1     -39.238  23.612  -2.983  0.00  0.00     0.009 A 
ATOM      8  C5  NON d   1     -38.214  22.795  -3.490  0.00  0.00    -0.032 A 
ATOM      9  C28 NON d   1     -38.002  22.776  -4.876  0.00  0.00     0.043 A 
BRANCH   8  10
ATOM     10  C6  NON d   1     -37.409  21.989  -2.488  0.00  0.00     0.219 C 
BRANCH  10  11
ATOM     11  O1  NON d   1     -38.147  21.056  -1.683  0.00  0.00    -0.299 OA
BRANCH  11  12
ATOM     12  C7  NON d   1     -38.927  20.246  -2.459  0.00  0.00     0.361 C 
ATOM     13  O2  NON d   1     -39.836  20.639  -3.179  0.00  0.00    -0.239 OA
ATOM     14  N4  NON d   1     -38.550  18.932  -2.358  0.00  0.00    -0.333 N 
ATOM     15  H6  NON d   1     -37.665  18.765  -1.904  0.00  0.00     0.165 HD
BRANCH  14  16
ATOM     16  C8  NON d   1     -39.160  17.956  -3.241  0.00  0.00     0.163 C 
BRANCH  16  17
ATOM     17  C9  NON d   1     -40.656  18.042  -3.478  0.00  0.00    -0.040 A 
ATOM     18  C10 NON d   1     -41.110  18.494  -4.738  0.00  0.00     0.010 A 
ATOM     19  C11 NON d   1     -42.477  18.530  -5.075  0.00  0.00     0.017 A 
ATOM     20  C12 NON d   1     -43.430  18.109  -4.147  0.00  0.00     0.032 A 
ATOM     21  C26 NON d   1     -42.983  17.689  -2.880  0.00  0.00     0.017 A 
ATOM     22  C27 NON d   1     -41.622  17.657  -2.547  0.00  0.00     0.010 A 
BRANCH  20  23
ATOM     23  C13 NON d   1     -44.899  17.993  -4.423  0.00  0.00     0.256 C 
ATOM     24  O3  NON d   1     -45.272  18.389  -5.527  0.00  0.00    -0.267 OA
ATOM     25  N5  NON d   1     -45.738  17.486  -3.439  0.00  0.00    -0.321 N 
ATOM     26  H11 NON d   1     -45.355  17.365  -2.513  0.00  0.00     0.169 HD
BRANCH  25  27
ATOM     27  C14 NON d   1     -47.144  17.206  -3.565  0.00  0.00     0.057 A 
ATOM     28  C15 NON d   1     -47.950  17.462  -2.420  0.00  0.00     0.043 A 
ATOM     29  C16 NON d   1     -49.355  17.248  -2.384  0.00  0.00    -0.024 A 
ATOM     30  C23 NON d   1     -49.915  16.735  -3.565  0.00  0.00     0.014 A 
ATOM     31  C24 NON d   1     -49.141  16.436  -4.684  0.00  0.00     0.026 A 
ATOM     32  C25 NON d   1     -47.767  16.688  -4.720  0.00  0.00     0.033 A 
BRANCH  29  33
ATOM     33  C17 NON d   1     -50.219  17.523  -1.181  0.00  0.00    -0.026 A 
ATOM     34  C18 NON d   1     -51.624  17.599  -1.252  0.00  0.00     0.012 A 
ATOM     35  C19 NON d   1     -52.417  17.870  -0.125  0.00  0.00     0.001 A 
ATOM     36  C20 NON d   1     -51.833  18.071   1.119  0.00  0.00     0.000 A 
ATOM     37  C21 NON d   1     -50.454  18.000   1.236  0.00  0.00     0.001 A 
ATOM     38  C22 NON d   1     -49.670  17.731   0.107  0.00  0.00     0.012 A 
ENDBRANCH  29  33
BRANCH  32  39
ATOM     39  N6  NON d   1     -47.069  16.130  -5.811  0.00  0.00    -0.301 NA
ATOM     40  H20 NON d   1     -46.640  16.875  -6.369  0.00  0.00     0.124 HD
ATOM     41  H21 NON d   1     -47.660  15.568  -6.412  0.00  0.00     0.124 HD
ENDBRANCH  32  39
ENDBRANCH  25  27
ENDBRANCH  20  23
ENDBRANCH  16  17
ENDBRANCH  14  16
ENDBRANCH  11  12
ENDBRANCH  10  11
ENDBRANCH   8  10
ENDBRANCH   3   4
TORSDOF 10
ENDMDL
