MODEL 1
REMARK VINA RESULT:   -16.402      0.000      0.000
REMARK INTER + INTRA:         -22.465
REMARK INTER:                 -20.579
REMARK INTRA:                  -1.887
REMARK CONF_INDEPENDENT:        4.176
REMARK UNBOUND:                -1.887
REMARK  14 active torsions:
REMARK  status: ('A' for Active; 'I' for Inactive)
REMARK    1  A    between atoms: C2_2  and  C3_3 
REMARK    2  A    between atoms: C3_3  and  C6_6 
REMARK    3  A    between atoms: C6_6  and  O2_8 
REMARK    4  A    between atoms: C7_9  and  O2_8 
REMARK    5  A    between atoms: C17_19  and  C18_20 
REMARK    6  A    between atoms: C18_20  and  C19_21 
REMARK    7  A    between atoms: C20_22  and  C19_21 
REMARK    8  A    between atoms: C20_22  and  O3_23 
REMARK    9  A    between atoms: C20_22  and  C21_24 
REMARK   10  A    between atoms: C22_25  and  C21_24 
REMARK   11  A    between atoms: C22_25  and  O4_26 
REMARK   12  A    between atoms: C22_25  and  C23_27 
REMARK   13  A    between atoms: C23_27  and  C24_28 
REMARK       I    between atoms: C24_28  and  N1_30 
REMARK   14  A    between atoms: N1_30  and  O6_31 
ROOT
ATOM      1  C7  NON d   1     -39.987  19.462  -6.063  0.00  0.00     0.141 C 
ATOM      2  C8  NON d   1     -38.515  19.902  -6.019  0.00  0.00     0.041 C 
ATOM      3  C9  NON d   1     -37.534  19.117  -5.172  0.00  0.00     0.007 C 
ATOM      4  C10 NON d   1     -36.435  20.078  -4.688  0.00  0.00     0.014 C 
ATOM      5  C11 NON d   1     -38.180  18.440  -4.012  0.00  0.00    -0.015 C 
ATOM      6  C12 NON d   1     -39.500  18.403  -3.775  0.00  0.00    -0.055 C 
ATOM      7  C13 NON d   1     -39.955  17.706  -2.593  0.00  0.00     0.004 C 
ATOM      8  C14 NON d   1     -41.246  17.479  -2.342  0.00  0.00    -0.022 C 
ATOM      9  C15 NON d   1     -42.361  17.871  -3.277  0.00  0.00     0.009 C 
ATOM     10  C16 NON d   1     -43.448  16.794  -3.185  0.00  0.00     0.014 C 
ATOM     11  C17 NON d   1     -41.851  18.151  -4.736  0.00  0.00     0.004 C 
ATOM     12  C25 NON d   1     -40.555  19.060  -4.665  0.00  0.00     0.052 C 
ENDROOT
BRANCH  11  13
ATOM     13  C18 NON d   1     -42.982  18.738  -5.631  0.00  0.00     0.009 C 
BRANCH  13  14
ATOM     14  C19 NON d   1     -44.370  18.686  -4.976  0.00  0.00     0.032 C 
BRANCH  14  15
ATOM     15  C20 NON d   1     -45.297  17.546  -5.432  0.00  0.00     0.120 C 
BRANCH  15  16
ATOM     16  O3  NON d   1     -46.211  18.004  -6.427  0.00  0.00    -0.395 OA
ATOM     17  H32 NON d   1     -46.406  17.256  -7.018  0.00  0.00     0.210 HD
ENDBRANCH  15  16
BRANCH  15  18
ATOM     18  C21 NON d   1     -46.112  16.881  -4.308  0.00  0.00     0.063 C 
BRANCH  18  19
ATOM     19  C22 NON d   1     -47.392  16.104  -4.665  0.00  0.00     0.129 C 
BRANCH  19  20
ATOM     20  O4  NON d   1     -47.144  15.482  -5.936  0.00  0.00    -0.395 OA
ATOM     21  H36 NON d   1     -47.693  15.945  -6.595  0.00  0.00     0.210 HD
ENDBRANCH  19  20
BRANCH  19  22
ATOM     22  C23 NON d   1     -47.814  15.022  -3.669  0.00  0.00     0.136 C 
BRANCH  22  23
ATOM     23  C24 NON d   1     -49.317  14.980  -3.487  0.00  0.00     0.243 C 
ATOM     24  O5  NON d   1     -50.014  14.017  -3.795  0.00  0.00    -0.271 OA
ATOM     25  N1  NON d   1     -49.833  16.113  -2.891  0.00  0.00    -0.237 N 
ATOM     26  H39 NON d   1     -49.313  16.982  -2.793  0.00  0.00     0.197 HD
BRANCH  25  27
ATOM     27  O6  NON d   1     -51.234  16.218  -2.810  0.00  0.00    -0.287 OA
ATOM     28  H40 NON d   1     -51.516  15.283  -2.744  0.00  0.00     0.244 HD
ENDBRANCH  25  27
ENDBRANCH  22  23
ENDBRANCH  19  22
ENDBRANCH  18  19
ENDBRANCH  15  18
ENDBRANCH  14  15
ENDBRANCH  13  14
ENDBRANCH  11  13
BRANCH   1  29
ATOM     29  O2  NON d   1     -40.700  20.657  -6.520  0.00  0.00    -0.315 OA
BRANCH  29  30
ATOM     30  C6  NON d   1     -40.639  20.944  -7.849  0.00  0.00     0.267 C 
ATOM     31  O1  NON d   1     -41.144  20.238  -8.715  0.00  0.00    -0.264 OA
BRANCH  30  32
ATOM     32  C3  NON d   1     -39.690  22.135  -8.144  0.00  0.00     0.040 C 
ATOM     33  C4  NON d   1     -39.379  22.962  -6.879  0.00  0.00     0.025 C 
ATOM     34  C5  NON d   1     -38.385  21.516  -8.696  0.00  0.00     0.025 C 
BRANCH  32  35
ATOM     35  C2  NON d   1     -40.312  23.047  -9.226  0.00  0.00     0.014 C 
ATOM     36  C1  NON d   1     -39.516  23.095 -10.534  0.00  0.00     0.006 C 
ENDBRANCH  32  35
ENDBRANCH  30  32
ENDBRANCH  29  30
ENDBRANCH   1  29
TORSDOF 14
ENDMDL
MODEL 2
REMARK VINA RESULT:   -15.570      1.534      2.676
REMARK INTER + INTRA:         -23.220
REMARK INTER:                 -19.746
REMARK INTRA:                  -3.474
REMARK CONF_INDEPENDENT:        4.176
REMARK UNBOUND:                -3.474
REMARK  14 active torsions:
REMARK  status: ('A' for Active; 'I' for Inactive)
REMARK    1  A    between atoms: C2_2  and  C3_3 
REMARK    2  A    between atoms: C3_3  and  C6_6 
REMARK    3  A    between atoms: C6_6  and  O2_8 
REMARK    4  A    between atoms: C7_9  and  O2_8 
REMARK    5  A    between atoms: C17_19  and  C18_20 
REMARK    6  A    between atoms: C18_20  and  C19_21 
REMARK    7  A    between atoms: C20_22  and  C19_21 
REMARK    8  A    between atoms: C20_22  and  O3_23 
REMARK    9  A    between atoms: C20_22  and  C21_24 
REMARK   10  A    between atoms: C22_25  and  C21_24 
REMARK   11  A    between atoms: C22_25  and  O4_26 
REMARK   12  A    between atoms: C22_25  and  C23_27 
REMARK   13  A    between atoms: C23_27  and  C24_28 
REMARK       I    between atoms: C24_28  and  N1_30 
REMARK   14  A    between atoms: N1_30  and  O6_31 
ROOT
ATOM      1  C7  NON d   1     -40.074  19.395  -7.342  0.00  0.00     0.141 C 
ATOM      2  C8  NON d   1     -38.996  19.487  -8.433  0.00  0.00     0.041 C 
ATOM      3  C9  NON d   1     -37.708  18.705  -8.268  0.00  0.00     0.007 C 
ATOM      4  C10 NON d   1     -36.581  19.473  -8.977  0.00  0.00     0.014 C 
ATOM      5  C11 NON d   1     -37.355  18.464  -6.840  0.00  0.00    -0.015 C 
ATOM      6  C12 NON d   1     -38.124  18.781  -5.788  0.00  0.00    -0.055 C 
ATOM      7  C13 NON d   1     -37.620  18.482  -4.467  0.00  0.00     0.004 C 
ATOM      8  C14 NON d   1     -38.361  18.614  -3.365  0.00  0.00    -0.022 C 
ATOM      9  C15 NON d   1     -39.807  19.036  -3.376  0.00  0.00     0.009 C 
ATOM     10  C16 NON d   1     -40.522  18.282  -2.250  0.00  0.00     0.014 C 
ATOM     11  C17 NON d   1     -40.471  18.866  -4.789  0.00  0.00     0.004 C 
ATOM     12  C25 NON d   1     -39.496  19.449  -5.893  0.00  0.00     0.052 C 
ENDROOT
BRANCH  11  13
ATOM     13  C18 NON d   1     -41.900  19.485  -4.825  0.00  0.00     0.009 C 
BRANCH  13  14
ATOM     14  C19 NON d   1     -42.965  18.534  -5.393  0.00  0.00     0.032 C 
BRANCH  14  15
ATOM     15  C20 NON d   1     -43.242  17.257  -4.582  0.00  0.00     0.120 C 
BRANCH  15  16
ATOM     16  O3  NON d   1     -43.264  16.112  -5.433  0.00  0.00    -0.395 OA
ATOM     17  H32 NON d   1     -44.174  15.767  -5.442  0.00  0.00     0.210 HD
ENDBRANCH  15  16
BRANCH  15  18
ATOM     18  C21 NON d   1     -44.551  17.272  -3.772  0.00  0.00     0.063 C 
BRANCH  18  19
ATOM     19  C22 NON d   1     -45.892  17.089  -4.506  0.00  0.00     0.129 C 
BRANCH  19  20
ATOM     20  O4  NON d   1     -45.571  16.578  -5.810  0.00  0.00    -0.395 OA
ATOM     21  H36 NON d   1     -46.311  16.813  -6.400  0.00  0.00     0.210 HD
ENDBRANCH  19  20
BRANCH  19  22
ATOM     22  C23 NON d   1     -46.888  16.135  -3.842  0.00  0.00     0.136 C 
BRANCH  22  23
ATOM     23  C24 NON d   1     -47.814  15.496  -4.856  0.00  0.00     0.243 C 
ATOM     24  O5  NON d   1     -47.543  15.380  -6.048  0.00  0.00    -0.271 OA
ATOM     25  N1  NON d   1     -48.979  15.003  -4.305  0.00  0.00    -0.237 N 
ATOM     26  H39 NON d   1     -49.303  15.241  -3.371  0.00  0.00     0.197 HD
BRANCH  25  27
ATOM     27  O6  NON d   1     -49.957  14.517  -5.193  0.00  0.00    -0.287 OA
ATOM     28  H40 NON d   1     -49.420  14.085  -5.888  0.00  0.00     0.244 HD
ENDBRANCH  25  27
ENDBRANCH  22  23
ENDBRANCH  19  22
ENDBRANCH  18  19
ENDBRANCH  15  18
ENDBRANCH  14  15
ENDBRANCH  13  14
ENDBRANCH  11  13
BRANCH   1  29
ATOM     29  O2  NON d   1     -40.893  20.592  -7.552  0.00  0.00    -0.315 OA
BRANCH  29  30
ATOM     30  C6  NON d   1     -40.290  21.656  -8.150  0.00  0.00     0.267 C 
ATOM     31  O1  NON d   1     -40.184  21.777  -9.365  0.00  0.00    -0.264 OA
BRANCH  30  32
ATOM     32  C3  NON d   1     -39.581  22.575  -7.121  0.00  0.00     0.040 C 
ATOM     33  C4  NON d   1     -38.088  22.223  -6.954  0.00  0.00     0.025 C 
ATOM     34  C5  NON d   1     -39.719  24.015  -7.667  0.00  0.00     0.025 C 
BRANCH  32  35
ATOM     35  C2  NON d   1     -40.296  22.485  -5.755  0.00  0.00     0.014 C 
ATOM     36  C1  NON d   1     -39.356  22.587  -4.549  0.00  0.00     0.006 C 
ENDBRANCH  32  35
ENDBRANCH  30  32
ENDBRANCH  29  30
ENDBRANCH   1  29
TORSDOF 14
ENDMDL
MODEL 3
REMARK VINA RESULT:   -14.990      2.793      5.165
REMARK INTER + INTRA:         -22.420
REMARK INTER:                 -19.166
REMARK INTRA:                  -3.254
REMARK CONF_INDEPENDENT:        4.176
REMARK UNBOUND:                -3.254
REMARK  14 active torsions:
REMARK  status: ('A' for Active; 'I' for Inactive)
REMARK    1  A    between atoms: C2_2  and  C3_3 
REMARK    2  A    between atoms: C3_3  and  C6_6 
REMARK    3  A    between atoms: C6_6  and  O2_8 
REMARK    4  A    between atoms: C7_9  and  O2_8 
REMARK    5  A    between atoms: C17_19  and  C18_20 
REMARK    6  A    between atoms: C18_20  and  C19_21 
REMARK    7  A    between atoms: C20_22  and  C19_21 
REMARK    8  A    between atoms: C20_22  and  O3_23 
REMARK    9  A    between atoms: C20_22  and  C21_24 
REMARK   10  A    between atoms: C22_25  and  C21_24 
REMARK   11  A    between atoms: C22_25  and  O4_26 
REMARK   12  A    between atoms: C22_25  and  C23_27 
REMARK   13  A    between atoms: C23_27  and  C24_28 
REMARK       I    between atoms: C24_28  and  N1_30 
REMARK   14  A    between atoms: N1_30  and  O6_31 
ROOT
ATOM      1  C7  NON d   1     -41.089  21.602  -3.663  0.00  0.00     0.141 C 
ATOM      2  C8  NON d   1     -40.986  23.095  -3.315  0.00  0.00     0.041 C 
ATOM      3  C9  NON d   1     -40.910  24.112  -4.436  0.00  0.00     0.007 C 
ATOM      4  C10 NON d   1     -40.099  25.320  -3.939  0.00  0.00     0.014 C 
ATOM      5  C11 NON d   1     -40.307  23.558  -5.682  0.00  0.00    -0.015 C 
ATOM      6  C12 NON d   1     -39.968  22.275  -5.873  0.00  0.00    -0.055 C 
ATOM      7  C13 NON d   1     -39.385  21.912  -7.145  0.00  0.00     0.004 C 
ATOM      8  C14 NON d   1     -39.152  20.646  -7.497  0.00  0.00    -0.022 C 
ATOM      9  C15 NON d   1     -39.514  19.460  -6.640  0.00  0.00     0.009 C 
ATOM     10  C16 NON d   1     -39.938  18.322  -7.573  0.00  0.00     0.014 C 
ATOM     11  C17 NON d   1     -40.571  19.818  -5.535  0.00  0.00     0.004 C 
ATOM     12  C25 NON d   1     -40.145  21.171  -4.830  0.00  0.00     0.052 C 
ENDROOT
BRANCH  11  13
ATOM     13  C18 NON d   1     -40.783  18.634  -4.546  0.00  0.00     0.009 C 
BRANCH  13  14
ATOM     14  C19 NON d   1     -42.227  18.516  -4.033  0.00  0.00     0.032 C 
BRANCH  14  15
ATOM     15  C20 NON d   1     -43.291  18.135  -5.076  0.00  0.00     0.120 C 
BRANCH  15  16
ATOM     16  O3  NON d   1     -44.099  19.263  -5.409  0.00  0.00    -0.395 OA
ATOM     17  H32 NON d   1     -44.986  19.113  -5.036  0.00  0.00     0.210 HD
ENDBRANCH  15  16
BRANCH  15  18
ATOM     18  C21 NON d   1     -44.228  16.987  -4.660  0.00  0.00     0.063 C 
BRANCH  18  19
ATOM     19  C22 NON d   1     -45.733  17.265  -4.496  0.00  0.00     0.129 C 
BRANCH  19  20
ATOM     20  O4  NON d   1     -46.234  17.557  -5.811  0.00  0.00    -0.395 OA
ATOM     21  H36 NON d   1     -45.851  18.412  -6.081  0.00  0.00     0.210 HD
ENDBRANCH  19  20
BRANCH  19  22
ATOM     22  C23 NON d   1     -46.561  16.122  -3.904  0.00  0.00     0.136 C 
BRANCH  22  23
ATOM     23  C24 NON d   1     -47.477  15.498  -4.936  0.00  0.00     0.243 C 
ATOM     24  O5  NON d   1     -47.163  15.329  -6.111  0.00  0.00    -0.271 OA
ATOM     25  N1  NON d   1     -48.688  15.085  -4.421  0.00  0.00    -0.237 N 
ATOM     26  H39 NON d   1     -49.037  15.370  -3.509  0.00  0.00     0.197 HD
BRANCH  25  27
ATOM     27  O6  NON d   1     -49.653  14.621  -5.335  0.00  0.00    -0.287 OA
ATOM     28  H40 NON d   1     -49.162  14.615  -6.181  0.00  0.00     0.244 HD
ENDBRANCH  25  27
ENDBRANCH  22  23
ENDBRANCH  19  22
ENDBRANCH  18  19
ENDBRANCH  15  18
ENDBRANCH  14  15
ENDBRANCH  13  14
ENDBRANCH  11  13
BRANCH   1  29
ATOM     29  O2  NON d   1     -40.646  20.923  -2.443  0.00  0.00    -0.315 OA
BRANCH  29  30
ATOM     30  C6  NON d   1     -39.304  20.795  -2.258  0.00  0.00     0.267 C 
ATOM     31  O1  NON d   1     -38.624  19.941  -2.816  0.00  0.00    -0.264 OA
BRANCH  30  32
ATOM     32  C3  NON d   1     -38.785  21.707  -1.115  0.00  0.00     0.040 C 
ATOM     33  C4  NON d   1     -37.592  21.080  -0.363  0.00  0.00     0.025 C 
ATOM     34  C5  NON d   1     -38.342  23.027  -1.788  0.00  0.00     0.025 C 
BRANCH  32  35
ATOM     35  C2  NON d   1     -39.930  22.008  -0.122  0.00  0.00     0.014 C 
ATOM     36  C1  NON d   1     -39.461  22.262   1.314  0.00  0.00     0.006 C 
ENDBRANCH  32  35
ENDBRANCH  30  32
ENDBRANCH  29  30
ENDBRANCH   1  29
TORSDOF 14
ENDMDL
MODEL 4
REMARK VINA RESULT:   -14.967      2.368      4.559
REMARK INTER + INTRA:         -23.016
REMARK INTER:                 -19.144
REMARK INTRA:                  -3.873
REMARK CONF_INDEPENDENT:        4.176
REMARK UNBOUND:                -3.873
REMARK  14 active torsions:
REMARK  status: ('A' for Active; 'I' for Inactive)
REMARK    1  A    between atoms: C2_2  and  C3_3 
REMARK    2  A    between atoms: C3_3  and  C6_6 
REMARK    3  A    between atoms: C6_6  and  O2_8 
REMARK    4  A    between atoms: C7_9  and  O2_8 
REMARK    5  A    between atoms: C17_19  and  C18_20 
REMARK    6  A    between atoms: C18_20  and  C19_21 
REMARK    7  A    between atoms: C20_22  and  C19_21 
REMARK    8  A    between atoms: C20_22  and  O3_23 
REMARK    9  A    between atoms: C20_22  and  C21_24 
REMARK   10  A    between atoms: C22_25  and  C21_24 
REMARK   11  A    between atoms: C22_25  and  O4_26 
REMARK   12  A    between atoms: C22_25  and  C23_27 
REMARK   13  A    between atoms: C23_27  and  C24_28 
REMARK       I    between atoms: C24_28  and  N1_30 
REMARK   14  A    between atoms: N1_30  and  O6_31 
ROOT
ATOM      1  C7  NON d   1     -39.737  21.903  -6.129  0.00  0.00     0.141 C 
ATOM      2  C8  NON d   1     -39.822  22.748  -7.409  0.00  0.00     0.041 C 
ATOM      3  C9  NON d   1     -39.588  24.244  -7.324  0.00  0.00     0.007 C 
ATOM      4  C10 NON d   1     -40.412  24.926  -8.428  0.00  0.00     0.014 C 
ATOM      5  C11 NON d   1     -39.936  24.811  -5.990  0.00  0.00    -0.015 C 
ATOM      6  C12 NON d   1     -40.303  24.095  -4.917  0.00  0.00    -0.055 C 
ATOM      7  C13 NON d   1     -40.614  24.811  -3.701  0.00  0.00     0.004 C 
ATOM      8  C14 NON d   1     -40.842  24.196  -2.539  0.00  0.00    -0.022 C 
ATOM      9  C15 NON d   1     -40.751  22.703  -2.352  0.00  0.00     0.009 C 
ATOM     10  C16 NON d   1     -40.203  22.441  -0.945  0.00  0.00     0.014 C 
ATOM     11  C17 NON d   1     -39.941  22.003  -3.501  0.00  0.00     0.004 C 
ATOM     12  C25 NON d   1     -40.428  22.571  -4.897  0.00  0.00     0.052 C 
ENDROOT
BRANCH  11  13
ATOM     13  C18 NON d   1     -40.025  20.451  -3.392  0.00  0.00     0.009 C 
BRANCH  13  14
ATOM     14  C19 NON d   1     -41.416  19.889  -3.720  0.00  0.00     0.032 C 
BRANCH  14  15
ATOM     15  C20 NON d   1     -41.506  18.367  -3.920  0.00  0.00     0.120 C 
BRANCH  15  16
ATOM     16  O3  NON d   1     -41.217  18.016  -5.272  0.00  0.00    -0.395 OA
ATOM     17  H32 NON d   1     -41.341  18.812  -5.818  0.00  0.00     0.210 HD
ENDBRANCH  15  16
BRANCH  15  18
ATOM     18  C21 NON d   1     -42.863  17.741  -3.547  0.00  0.00     0.063 C 
BRANCH  18  19
ATOM     19  C22 NON d   1     -43.926  17.541  -4.642  0.00  0.00     0.129 C 
BRANCH  19  20
ATOM     20  O4  NON d   1     -43.484  16.426  -5.434  0.00  0.00    -0.395 OA
ATOM     21  H36 NON d   1     -42.524  16.333  -5.288  0.00  0.00     0.210 HD
ENDBRANCH  19  20
BRANCH  19  22
ATOM     22  C23 NON d   1     -45.345  17.253  -4.147  0.00  0.00     0.136 C 
BRANCH  22  23
ATOM     23  C24 NON d   1     -46.272  16.878  -5.285  0.00  0.00     0.243 C 
ATOM     24  O5  NON d   1     -46.589  17.649  -6.186  0.00  0.00    -0.271 OA
ATOM     25  N1  NON d   1     -46.690  15.564  -5.246  0.00  0.00    -0.237 N 
ATOM     26  H39 NON d   1     -46.589  14.967  -4.429  0.00  0.00     0.197 HD
BRANCH  25  27
ATOM     27  O6  NON d   1     -47.661  15.168  -6.185  0.00  0.00    -0.287 OA
ATOM     28  H40 NON d   1     -48.009  16.023  -6.508  0.00  0.00     0.244 HD
ENDBRANCH  25  27
ENDBRANCH  22  23
ENDBRANCH  19  22
ENDBRANCH  18  19
ENDBRANCH  15  18
ENDBRANCH  14  15
ENDBRANCH  13  14
ENDBRANCH  11  13
BRANCH   1  29
ATOM     29  O2  NON d   1     -40.478  20.683  -6.461  0.00  0.00    -0.315 OA
BRANCH  29  30
ATOM     30  C6  NON d   1     -40.242  20.130  -7.682  0.00  0.00     0.267 C 
ATOM     31  O1  NON d   1     -41.065  20.126  -8.591  0.00  0.00    -0.264 OA
BRANCH  30  32
ATOM     32  C3  NON d   1     -38.912  19.332  -7.712  0.00  0.00     0.040 C 
ATOM     33  C4  NON d   1     -38.376  19.037  -6.295  0.00  0.00     0.025 C 
ATOM     34  C5  NON d   1     -39.226  18.003  -8.438  0.00  0.00     0.025 C 
BRANCH  32  35
ATOM     35  C2  NON d   1     -37.851  20.110  -8.522  0.00  0.00     0.014 C 
ATOM     36  C1  NON d   1     -38.425  20.916  -9.692  0.00  0.00     0.006 C 
ENDBRANCH  32  35
ENDBRANCH  30  32
ENDBRANCH  29  30
ENDBRANCH   1  29
TORSDOF 14
ENDMDL
MODEL 5
REMARK VINA RESULT:   -14.921      1.595      2.433
REMARK INTER + INTRA:         -22.128
REMARK INTER:                 -19.097
REMARK INTRA:                  -3.030
REMARK CONF_INDEPENDENT:        4.176
REMARK UNBOUND:                -3.030
REMARK  14 active torsions:
REMARK  status: ('A' for Active; 'I' for Inactive)
REMARK    1  A    between atoms: C2_2  and  C3_3 
REMARK    2  A    between atoms: C3_3  and  C6_6 
REMARK    3  A    between atoms: C6_6  and  O2_8 
REMARK    4  A    between atoms: C7_9  and  O2_8 
REMARK    5  A    between atoms: C17_19  and  C18_20 
REMARK    6  A    between atoms: C18_20  and  C19_21 
REMARK    7  A    between atoms: C20_22  and  C19_21 
REMARK    8  A    between atoms: C20_22  and  O3_23 
REMARK    9  A    between atoms: C20_22  and  C21_24 
REMARK   10  A    between atoms: C22_25  and  C21_24 
REMARK   11  A    between atoms: C22_25  and  O4_26 
REMARK   12  A    between atoms: C22_25  and  C23_27 
REMARK   13  A    between atoms: C23_27  and  C24_28 
REMARK       I    between atoms: C24_28  and  N1_30 
REMARK   14  A    between atoms: N1_30  and  O6_31 
ROOT
ATOM      1  C7  NON d   1     -38.912  18.795  -5.306  0.00  0.00     0.141 C 
ATOM      2  C8  NON d   1     -37.804  19.634  -5.962  0.00  0.00     0.041 C 
ATOM      3  C9  NON d   1     -36.780  20.324  -5.083  0.00  0.00     0.007 C 
ATOM      4  C10 NON d   1     -36.311  21.602  -5.798  0.00  0.00     0.014 C 
ATOM      5  C11 NON d   1     -37.304  20.649  -3.726  0.00  0.00    -0.015 C 
ATOM      6  C12 NON d   1     -38.505  20.282  -3.252  0.00  0.00    -0.055 C 
ATOM      7  C13 NON d   1     -38.856  20.692  -1.911  0.00  0.00     0.004 C 
ATOM      8  C14 NON d   1     -39.952  20.258  -1.288  0.00  0.00    -0.022 C 
ATOM      9  C15 NON d   1     -40.912  19.260  -1.883  0.00  0.00     0.009 C 
ATOM     10  C16 NON d   1     -41.440  18.382  -0.744  0.00  0.00     0.014 C 
ATOM     11  C17 NON d   1     -40.281  18.458  -3.077  0.00  0.00     0.004 C 
ATOM     12  C25 NON d   1     -39.532  19.468  -4.040  0.00  0.00     0.052 C 
ENDROOT
BRANCH  11  13
ATOM     13  C18 NON d   1     -41.345  17.577  -3.796  0.00  0.00     0.009 C 
BRANCH  13  14
ATOM     14  C19 NON d   1     -42.751  18.196  -3.800  0.00  0.00     0.032 C 
BRANCH  14  15
ATOM     15  C20 NON d   1     -43.620  17.906  -5.035  0.00  0.00     0.120 C 
BRANCH  15  16
ATOM     16  O3  NON d   1     -44.321  19.079  -5.447  0.00  0.00    -0.395 OA
ATOM     17  H32 NON d   1     -45.190  19.074  -5.008  0.00  0.00     0.210 HD
ENDBRANCH  15  16
BRANCH  15  18
ATOM     18  C21 NON d   1     -44.650  16.776  -4.855  0.00  0.00     0.063 C 
BRANCH  18  19
ATOM     19  C22 NON d   1     -46.118  17.135  -4.562  0.00  0.00     0.129 C 
BRANCH  19  20
ATOM     20  O4  NON d   1     -46.701  17.505  -5.823  0.00  0.00    -0.395 OA
ATOM     21  H36 NON d   1     -46.374  18.396  -6.041  0.00  0.00     0.210 HD
ENDBRANCH  19  20
BRANCH  19  22
ATOM     22  C23 NON d   1     -46.965  16.021  -3.943  0.00  0.00     0.136 C 
BRANCH  22  23
ATOM     23  C24 NON d   1     -47.828  15.329  -4.979  0.00  0.00     0.243 C 
ATOM     24  O5  NON d   1     -47.510  15.210  -6.159  0.00  0.00    -0.271 OA
ATOM     25  N1  NON d   1     -48.989  14.794  -4.461  0.00  0.00    -0.237 N 
ATOM     26  H39 NON d   1     -49.355  15.031  -3.542  0.00  0.00     0.197 HD
BRANCH  25  27
ATOM     27  O6  NON d   1     -49.914  14.255  -5.375  0.00  0.00    -0.287 OA
ATOM     28  H40 NON d   1     -49.744  14.776  -6.185  0.00  0.00     0.244 HD
ENDBRANCH  25  27
ENDBRANCH  22  23
ENDBRANCH  19  22
ENDBRANCH  18  19
ENDBRANCH  15  18
ENDBRANCH  14  15
ENDBRANCH  13  14
ENDBRANCH  11  13
BRANCH   1  29
ATOM     29  O2  NON d   1     -39.951  18.714  -6.335  0.00  0.00    -0.315 OA
BRANCH  29  30
ATOM     30  C6  NON d   1     -39.584  19.014  -7.611  0.00  0.00     0.267 C 
ATOM     31  O1  NON d   1     -38.779  18.351  -8.255  0.00  0.00    -0.264 OA
BRANCH  30  32
ATOM     32  C3  NON d   1     -40.134  20.392  -8.065  0.00  0.00     0.040 C 
ATOM     33  C4  NON d   1     -41.366  20.255  -8.984  0.00  0.00     0.025 C 
ATOM     34  C5  NON d   1     -40.528  21.144  -6.773  0.00  0.00     0.025 C 
BRANCH  32  35
ATOM     35  C2  NON d   1     -39.025  21.187  -8.791  0.00  0.00     0.014 C 
ATOM     36  C1  NON d   1     -38.783  22.587  -8.219  0.00  0.00     0.006 C 
ENDBRANCH  32  35
ENDBRANCH  30  32
ENDBRANCH  29  30
ENDBRANCH   1  29
TORSDOF 14
ENDMDL
MODEL 6
REMARK VINA RESULT:   -14.735      1.800      2.517
REMARK INTER + INTRA:         -22.102
REMARK INTER:                 -18.911
REMARK INTRA:                  -3.191
REMARK CONF_INDEPENDENT:        4.176
REMARK UNBOUND:                -3.191
REMARK  14 active torsions:
REMARK  status: ('A' for Active; 'I' for Inactive)
REMARK    1  A    between atoms: C2_2  and  C3_3 
REMARK    2  A    between atoms: C3_3  and  C6_6 
REMARK    3  A    between atoms: C6_6  and  O2_8 
REMARK    4  A    between atoms: C7_9  and  O2_8 
REMARK    5  A    between atoms: C17_19  and  C18_20 
REMARK    6  A    between atoms: C18_20  and  C19_21 
REMARK    7  A    between atoms: C20_22  and  C19_21 
REMARK    8  A    between atoms: C20_22  and  O3_23 
REMARK    9  A    between atoms: C20_22  and  C21_24 
REMARK   10  A    between atoms: C22_25  and  C21_24 
REMARK   11  A    between atoms: C22_25  and  O4_26 
REMARK   12  A    between atoms: C22_25  and  C23_27 
REMARK   13  A    between atoms: C23_27  and  C24_28 
REMARK       I    between atoms: C24_28  and  N1_30 
REMARK   14  A    between atoms: N1_30  and  O6_31 
ROOT
ATOM      1  C7  NON d   1     -39.769  21.201  -5.517  0.00  0.00     0.141 C 
ATOM      2  C8  NON d   1     -39.325  22.662  -5.348  0.00  0.00     0.041 C 
ATOM      3  C9  NON d   1     -38.620  23.078  -4.072  0.00  0.00     0.007 C 
ATOM      4  C10 NON d   1     -38.947  24.555  -3.798  0.00  0.00     0.014 C 
ATOM      5  C11 NON d   1     -38.995  22.236  -2.901  0.00  0.00    -0.015 C 
ATOM      6  C12 NON d   1     -39.774  21.145  -2.949  0.00  0.00    -0.055 C 
ATOM      7  C13 NON d   1     -40.043  20.451  -1.711  0.00  0.00     0.004 C 
ATOM      8  C14 NON d   1     -40.676  19.277  -1.664  0.00  0.00    -0.022 C 
ATOM      9  C15 NON d   1     -41.130  18.524  -2.888  0.00  0.00     0.009 C 
ATOM     10  C16 NON d   1     -40.972  17.027  -2.600  0.00  0.00     0.014 C 
ATOM     11  C17 NON d   1     -40.408  19.010  -4.195  0.00  0.00     0.004 C 
ATOM     12  C25 NON d   1     -40.407  20.594  -4.227  0.00  0.00     0.052 C 
ENDROOT
BRANCH  11  13
ATOM     13  C18 NON d   1     -41.029  18.356  -5.465  0.00  0.00     0.009 C 
BRANCH  13  14
ATOM     14  C19 NON d   1     -42.562  18.272  -5.422  0.00  0.00     0.032 C 
BRANCH  14  15
ATOM     15  C20 NON d   1     -43.159  17.122  -4.594  0.00  0.00     0.120 C 
BRANCH  15  16
ATOM     16  O3  NON d   1     -43.481  16.011  -5.429  0.00  0.00    -0.395 OA
ATOM     17  H32 NON d   1     -44.436  15.842  -5.343  0.00  0.00     0.210 HD
ENDBRANCH  15  16
BRANCH  15  18
ATOM     18  C21 NON d   1     -44.416  17.487  -3.784  0.00  0.00     0.063 C 
BRANCH  18  19
ATOM     19  C22 NON d   1     -45.805  17.247  -4.402  0.00  0.00     0.129 C 
BRANCH  19  20
ATOM     20  O4  NON d   1     -45.591  17.048  -5.809  0.00  0.00    -0.395 OA
ATOM     21  H36 NON d   1     -45.541  16.086  -5.959  0.00  0.00     0.210 HD
ENDBRANCH  19  20
BRANCH  19  22
ATOM     22  C23 NON d   1     -46.579  16.046  -3.854  0.00  0.00     0.136 C 
BRANCH  22  23
ATOM     23  C24 NON d   1     -47.492  15.440  -4.899  0.00  0.00     0.243 C 
ATOM     24  O5  NON d   1     -47.159  15.249  -6.066  0.00  0.00    -0.271 OA
ATOM     25  N1  NON d   1     -48.727  15.072  -4.407  0.00  0.00    -0.237 N 
ATOM     26  H39 NON d   1     -49.086  15.378  -3.506  0.00  0.00     0.197 HD
BRANCH  25  27
ATOM     27  O6  NON d   1     -49.686  14.629  -5.336  0.00  0.00    -0.287 OA
ATOM     28  H40 NON d   1     -49.355  14.998  -6.179  0.00  0.00     0.244 HD
ENDBRANCH  25  27
ENDBRANCH  22  23
ENDBRANCH  19  22
ENDBRANCH  18  19
ENDBRANCH  15  18
ENDBRANCH  14  15
ENDBRANCH  13  14
ENDBRANCH  11  13
BRANCH   1  29
ATOM     29  O2  NON d   1     -40.803  21.262  -6.553  0.00  0.00    -0.315 OA
BRANCH  29  30
ATOM     30  C6  NON d   1     -40.464  20.815  -7.793  0.00  0.00     0.267 C 
ATOM     31  O1  NON d   1     -40.672  19.670  -8.177  0.00  0.00    -0.264 OA
BRANCH  30  32
ATOM     32  C3  NON d   1     -39.606  21.849  -8.570  0.00  0.00     0.040 C 
ATOM     33  C4  NON d   1     -38.159  21.922  -8.041  0.00  0.00     0.025 C 
ATOM     34  C5  NON d   1     -39.600  21.379 -10.043  0.00  0.00     0.025 C 
BRANCH  32  35
ATOM     35  C2  NON d   1     -40.265  23.244  -8.489  0.00  0.00     0.014 C 
ATOM     36  C1  NON d   1     -39.336  24.344  -7.965  0.00  0.00     0.006 C 
ENDBRANCH  32  35
ENDBRANCH  30  32
ENDBRANCH  29  30
ENDBRANCH   1  29
TORSDOF 14
ENDMDL
MODEL 7
REMARK VINA RESULT:   -14.335      2.229      4.474
REMARK INTER + INTRA:         -22.024
REMARK INTER:                 -18.511
REMARK INTRA:                  -3.513
REMARK CONF_INDEPENDENT:        4.176
REMARK UNBOUND:                -3.513
REMARK  14 active torsions:
REMARK  status: ('A' for Active; 'I' for Inactive)
REMARK    1  A    between atoms: C2_2  and  C3_3 
REMARK    2  A    between atoms: C3_3  and  C6_6 
REMARK    3  A    between atoms: C6_6  and  O2_8 
REMARK    4  A    between atoms: C7_9  and  O2_8 
REMARK    5  A    between atoms: C17_19  and  C18_20 
REMARK    6  A    between atoms: C18_20  and  C19_21 
REMARK    7  A    between atoms: C20_22  and  C19_21 
REMARK    8  A    between atoms: C20_22  and  O3_23 
REMARK    9  A    between atoms: C20_22  and  C21_24 
REMARK   10  A    between atoms: C22_25  and  C21_24 
REMARK   11  A    between atoms: C22_25  and  O4_26 
REMARK   12  A    between atoms: C22_25  and  C23_27 
REMARK   13  A    between atoms: C23_27  and  C24_28 
REMARK       I    between atoms: C24_28  and  N1_30 
REMARK   14  A    between atoms: N1_30  and  O6_31 
ROOT
ATOM      1  C7  NON d   1     -40.467  20.250  -5.859  0.00  0.00     0.141 C 
ATOM      2  C8  NON d   1     -40.657  20.745  -7.302  0.00  0.00     0.041 C 
ATOM      3  C9  NON d   1     -39.984  19.996  -8.435  0.00  0.00     0.007 C 
ATOM      4  C10 NON d   1     -39.675  20.997  -9.560  0.00  0.00     0.014 C 
ATOM      5  C11 NON d   1     -38.741  19.293  -8.008  0.00  0.00    -0.015 C 
ATOM      6  C12 NON d   1     -38.295  19.205  -6.746  0.00  0.00    -0.055 C 
ATOM      7  C13 NON d   1     -37.061  18.489  -6.513  0.00  0.00     0.004 C 
ATOM      8  C14 NON d   1     -36.608  18.212  -5.289  0.00  0.00    -0.022 C 
ATOM      9  C15 NON d   1     -37.349  18.564  -4.024  0.00  0.00     0.009 C 
ATOM     10  C16 NON d   1     -37.093  17.447  -3.007  0.00  0.00     0.014 C 
ATOM     11  C17 NON d   1     -38.868  18.866  -4.283  0.00  0.00     0.004 C 
ATOM     12  C25 NON d   1     -38.999  19.824  -5.538  0.00  0.00     0.052 C 
ENDROOT
BRANCH  11  13
ATOM     13  C18 NON d   1     -39.566  19.413  -3.001  0.00  0.00     0.009 C 
BRANCH  13  14
ATOM     14  C19 NON d   1     -41.053  19.038  -2.907  0.00  0.00     0.032 C 
BRANCH  14  15
ATOM     15  C20 NON d   1     -41.451  17.674  -3.495  0.00  0.00     0.120 C 
BRANCH  15  16
ATOM     16  O3  NON d   1     -41.194  17.634  -4.898  0.00  0.00    -0.395 OA
ATOM     17  H32 NON d   1     -42.053  17.623  -5.356  0.00  0.00     0.210 HD
ENDBRANCH  15  16
BRANCH  15  18
ATOM     18  C21 NON d   1     -42.919  17.271  -3.269  0.00  0.00     0.063 C 
BRANCH  18  19
ATOM     19  C22 NON d   1     -43.933  17.449  -4.414  0.00  0.00     0.129 C 
BRANCH  19  20
ATOM     20  O4  NON d   1     -43.586  16.477  -5.414  0.00  0.00    -0.395 OA
ATOM     21  H36 NON d   1     -42.687  16.163  -5.209  0.00  0.00     0.210 HD
ENDBRANCH  19  20
BRANCH  19  22
ATOM     22  C23 NON d   1     -45.404  17.254  -4.036  0.00  0.00     0.136 C 
BRANCH  22  23
ATOM     23  C24 NON d   1     -46.244  16.862  -5.234  0.00  0.00     0.243 C 
ATOM     24  O5  NON d   1     -46.463  17.606  -6.185  0.00  0.00    -0.271 OA
ATOM     25  N1  NON d   1     -46.702  15.561  -5.184  0.00  0.00    -0.237 N 
ATOM     26  H39 NON d   1     -46.686  14.993  -4.341  0.00  0.00     0.197 HD
BRANCH  25  27
ATOM     27  O6  NON d   1     -47.603  15.156  -6.186  0.00  0.00    -0.287 OA
ATOM     28  H40 NON d   1     -47.953  16.007  -6.517  0.00  0.00     0.244 HD
ENDBRANCH  25  27
ENDBRANCH  22  23
ENDBRANCH  19  22
ENDBRANCH  18  19
ENDBRANCH  15  18
ENDBRANCH  14  15
ENDBRANCH  13  14
ENDBRANCH  11  13
BRANCH   1  29
ATOM     29  O2  NON d   1     -40.794  21.418  -5.039  0.00  0.00    -0.315 OA
BRANCH  29  30
ATOM     30  C6  NON d   1     -39.901  22.446  -5.042  0.00  0.00     0.267 C 
ATOM     31  O1  NON d   1     -38.971  22.529  -5.837  0.00  0.00    -0.264 OA
BRANCH  30  32
ATOM     32  C3  NON d   1     -40.073  23.369  -3.808  0.00  0.00     0.040 C 
ATOM     33  C4  NON d   1     -39.965  22.594  -2.478  0.00  0.00     0.025 C 
ATOM     34  C5  NON d   1     -38.937  24.416  -3.894  0.00  0.00     0.025 C 
BRANCH  32  35
ATOM     35  C2  NON d   1     -41.434  24.097  -3.881  0.00  0.00     0.014 C 
ATOM     36  C1  NON d   1     -41.441  25.478  -3.217  0.00  0.00     0.006 C 
ENDBRANCH  32  35
ENDBRANCH  30  32
ENDBRANCH  29  30
ENDBRANCH   1  29
TORSDOF 14
ENDMDL
MODEL 8
REMARK VINA RESULT:   -14.318      2.207      3.955
REMARK INTER + INTRA:         -22.260
REMARK INTER:                 -18.494
REMARK INTRA:                  -3.766
REMARK CONF_INDEPENDENT:        4.176
REMARK UNBOUND:                -3.766
REMARK  14 active torsions:
REMARK  status: ('A' for Active; 'I' for Inactive)
REMARK    1  A    between atoms: C2_2  and  C3_3 
REMARK    2  A    between atoms: C3_3  and  C6_6 
REMARK    3  A    between atoms: C6_6  and  O2_8 
REMARK    4  A    between atoms: C7_9  and  O2_8 
REMARK    5  A    between atoms: C17_19  and  C18_20 
REMARK    6  A    between atoms: C18_20  and  C19_21 
REMARK    7  A    between atoms: C20_22  and  C19_21 
REMARK    8  A    between atoms: C20_22  and  O3_23 
REMARK    9  A    between atoms: C20_22  and  C21_24 
REMARK   10  A    between atoms: C22_25  and  C21_24 
REMARK   11  A    between atoms: C22_25  and  O4_26 
REMARK   12  A    between atoms: C22_25  and  C23_27 
REMARK   13  A    between atoms: C23_27  and  C24_28 
REMARK       I    between atoms: C24_28  and  N1_30 
REMARK   14  A    between atoms: N1_30  and  O6_31 
ROOT
ATOM      1  C7  NON d   1     -39.640  22.247  -5.332  0.00  0.00     0.141 C 
ATOM      2  C8  NON d   1     -39.986  23.735  -5.162  0.00  0.00     0.041 C 
ATOM      3  C9  NON d   1     -39.779  24.392  -3.812  0.00  0.00     0.007 C 
ATOM      4  C10 NON d   1     -40.813  25.520  -3.660  0.00  0.00     0.014 C 
ATOM      5  C11 NON d   1     -39.884  23.433  -2.677  0.00  0.00    -0.015 C 
ATOM      6  C12 NON d   1     -40.025  22.104  -2.796  0.00  0.00    -0.055 C 
ATOM      7  C13 NON d   1     -40.121  21.322  -1.585  0.00  0.00     0.004 C 
ATOM      8  C14 NON d   1     -40.111  19.988  -1.584  0.00  0.00    -0.022 C 
ATOM      9  C15 NON d   1     -39.947  19.153  -2.828  0.00  0.00     0.009 C 
ATOM     10  C16 NON d   1     -39.138  17.907  -2.451  0.00  0.00     0.014 C 
ATOM     11  C17 NON d   1     -39.350  19.973  -4.027  0.00  0.00     0.004 C 
ATOM     12  C25 NON d   1     -40.104  21.362  -4.131  0.00  0.00     0.052 C 
ENDROOT
BRANCH  11  13
ATOM     13  C18 NON d   1     -39.371  19.147  -5.347  0.00  0.00     0.009 C 
BRANCH  13  14
ATOM     14  C19 NON d   1     -40.408  18.013  -5.344  0.00  0.00     0.032 C 
BRANCH  14  15
ATOM     15  C20 NON d   1     -41.854  18.411  -5.683  0.00  0.00     0.120 C 
BRANCH  15  16
ATOM     16  O3  NON d   1     -42.114  19.757  -5.289  0.00  0.00    -0.395 OA
ATOM     17  H32 NON d   1     -41.900  20.333  -6.044  0.00  0.00     0.210 HD
ENDBRANCH  15  16
BRANCH  15  18
ATOM     18  C21 NON d   1     -42.939  17.515  -5.057  0.00  0.00     0.063 C 
BRANCH  18  19
ATOM     19  C22 NON d   1     -44.166  18.170  -4.397  0.00  0.00     0.129 C 
BRANCH  19  20
ATOM     20  O4  NON d   1     -44.664  19.133  -5.341  0.00  0.00    -0.395 OA
ATOM     21  H36 NON d   1     -45.637  19.127  -5.270  0.00  0.00     0.210 HD
ENDBRANCH  19  20
BRANCH  19  22
ATOM     22  C23 NON d   1     -45.307  17.220  -4.025  0.00  0.00     0.136 C 
BRANCH  22  23
ATOM     23  C24 NON d   1     -46.153  16.859  -5.228  0.00  0.00     0.243 C 
ATOM     24  O5  NON d   1     -46.333  17.609  -6.184  0.00  0.00    -0.271 OA
ATOM     25  N1  NON d   1     -46.668  15.580  -5.177  0.00  0.00    -0.237 N 
ATOM     26  H39 NON d   1     -46.684  15.014  -4.331  0.00  0.00     0.197 HD
BRANCH  25  27
ATOM     27  O6  NON d   1     -47.577  15.210  -6.185  0.00  0.00    -0.287 OA
ATOM     28  H40 NON d   1     -47.810  16.069  -6.590  0.00  0.00     0.244 HD
ENDBRANCH  25  27
ENDBRANCH  22  23
ENDBRANCH  19  22
ENDBRANCH  18  19
ENDBRANCH  15  18
ENDBRANCH  14  15
ENDBRANCH  13  14
ENDBRANCH  11  13
BRANCH   1  29
ATOM     29  O2  NON d   1     -40.398  21.841  -6.518  0.00  0.00    -0.315 OA
BRANCH  29  30
ATOM     30  C6  NON d   1     -39.941  22.277  -7.723  0.00  0.00     0.267 C 
ATOM     31  O1  NON d   1     -40.057  23.435  -8.110  0.00  0.00    -0.264 OA
BRANCH  30  32
ATOM     32  C3  NON d   1     -39.455  21.107  -8.619  0.00  0.00     0.040 C 
ATOM     33  C4  NON d   1     -40.361  19.864  -8.497  0.00  0.00     0.025 C 
ATOM     34  C5  NON d   1     -39.491  21.637 -10.072  0.00  0.00     0.025 C 
BRANCH  32  35
ATOM     35  C2  NON d   1     -38.001  20.734  -8.255  0.00  0.00     0.014 C 
ATOM     36  C1  NON d   1     -37.778  19.236  -8.030  0.00  0.00     0.006 C 
ENDBRANCH  32  35
ENDBRANCH  30  32
ENDBRANCH  29  30
ENDBRANCH   1  29
TORSDOF 14
ENDMDL
