MODEL 1
REMARK VINA RESULT:   -17.222      0.000      0.000
REMARK INTER + INTRA:         -20.750
REMARK INTER:                 -19.012
REMARK INTRA:                  -1.738
REMARK CONF_INDEPENDENT:        1.790
REMARK UNBOUND:                -1.738
REMARK  6 active torsions:
REMARK  status: ('A' for Active; 'I' for Inactive)
REMARK    1  A    between atoms: C1_2  and  C2_3 
REMARK       I    between atoms: C1_2  and  N4_18 
REMARK    2  A    between atoms: C2_3  and  N1_4 
REMARK    3  A    between atoms: C5_7  and  C6_8 
REMARK    4  A    between atoms: C9_11  and  C10_12 
REMARK       I    between atoms: C10_12  and  N2_14 
REMARK    5  A    between atoms: N2_14  and  O3_15 
REMARK    6  A    between atoms: N4_18  and  C11_19 
ROOT
ATOM      1  N1  NON d   1     -47.791  15.664  -4.661  0.00  0.00    -0.272 N 
ATOM      2  C3  NON d   1     -47.238  15.485  -3.427  0.00  0.00     0.115 A 
ATOM      3  C4  NON d   1     -46.042  16.161  -3.440  0.00  0.00     0.053 A 
ATOM      4  C5  NON d   1     -45.985  16.790  -4.704  0.00  0.00     0.095 A 
ATOM      5  N3  NON d   1     -47.069  16.505  -5.435  0.00  0.00    -0.171 NA
ENDROOT
BRANCH   1   6
ATOM      6  C2  NON d   1     -49.068  15.189  -5.181  0.00  0.00     0.253 C 
BRANCH   6   7
ATOM      7  C1  NON d   1     -50.234  15.227  -4.214  0.00  0.00     0.242 C 
ATOM      8  O1  NON d   1     -50.946  14.257  -3.975  0.00  0.00    -0.271 OA
ATOM      9  N4  NON d   1     -50.431  16.498  -3.677  0.00  0.00    -0.326 N 
ATOM     10  H9  NON d   1     -49.971  17.273  -4.141  0.00  0.00     0.169 HD
BRANCH   9  11
ATOM     11  C11 NON d   1     -51.318  16.838  -2.632  0.00  0.00     0.036 A 
ATOM     12  C12 NON d   1     -52.674  16.537  -2.813  0.00  0.00     0.029 A 
ATOM     13  C13 NON d   1     -53.614  16.859  -1.828  0.00  0.00     0.004 A 
ATOM     14  C14 NON d   1     -53.206  17.503  -0.663  0.00  0.00     0.024 A 
ATOM     15  C15 NON d   1     -51.863  17.821  -0.488  0.00  0.00     0.036 A 
ATOM     16 Cl1  NON d   1     -51.365  18.648   0.939  0.00  0.00    -0.084 Cl
ATOM     17  C16 NON d   1     -50.918  17.488  -1.462  0.00  0.00     0.053 A 
ENDBRANCH   9  11
ENDBRANCH   6   7
ENDBRANCH   1   6
BRANCH   4  18
ATOM     18  C6  NON d   1     -44.881  17.686  -5.190  0.00  0.00     0.036 A 
ATOM     19  C7  NON d   1     -45.081  18.899  -5.813  0.00  0.00     0.023 A 
ATOM     20  C8  NON d   1     -43.854  19.528  -6.183  0.00  0.00     0.026 A 
ATOM     21  C9  NON d   1     -42.747  18.772  -5.843  0.00  0.00     0.075 A 
ATOM     22  S1  NON d   1     -43.220  17.322  -5.049  0.00  0.00    -0.082 SA
BRANCH  21  23
ATOM     23  C10 NON d   1     -41.329  19.028  -6.053  0.00  0.00     0.281 C 
ATOM     24  O2  NON d   1     -40.835  19.480  -7.088  0.00  0.00    -0.265 OA
ATOM     25  N2  NON d   1     -40.505  18.747  -4.982  0.00  0.00    -0.233 N 
ATOM     26  H7  NON d   1     -40.817  18.500  -4.053  0.00  0.00     0.197 HD
BRANCH  25  27
ATOM     27  O3  NON d   1     -39.138  19.078  -5.126  0.00  0.00    -0.287 OA
ATOM     28  H8  NON d   1     -39.004  18.976  -6.095  0.00  0.00     0.244 HD
ENDBRANCH  25  27
ENDBRANCH  21  23
ENDBRANCH   4  18
TORSDOF 6
ENDMDL
MODEL 2
REMARK VINA RESULT:   -17.042      5.276     11.617
REMARK INTER + INTRA:         -20.287
REMARK INTER:                 -18.831
REMARK INTRA:                  -1.455
REMARK CONF_INDEPENDENT:        1.790
REMARK UNBOUND:                -1.455
REMARK  6 active torsions:
REMARK  status: ('A' for Active; 'I' for Inactive)
REMARK    1  A    between atoms: C1_2  and  C2_3 
REMARK       I    between atoms: C1_2  and  N4_18 
REMARK    2  A    between atoms: C2_3  and  N1_4 
REMARK    3  A    between atoms: C5_7  and  C6_8 
REMARK    4  A    between atoms: C9_11  and  C10_12 
REMARK       I    between atoms: C10_12  and  N2_14 
REMARK    5  A    between atoms: N2_14  and  O3_15 
REMARK    6  A    between atoms: N4_18  and  C11_19 
ROOT
ATOM      1  N1  NON d   1     -41.598  19.570  -5.843  0.00  0.00    -0.272 N 
ATOM      2  C3  NON d   1     -40.872  18.690  -5.098  0.00  0.00     0.115 A 
ATOM      3  C4  NON d   1     -41.781  17.856  -4.492  0.00  0.00     0.053 A 
ATOM      4  C5  NON d   1     -43.041  18.256  -4.992  0.00  0.00     0.095 A 
ATOM      5  N3  NON d   1     -42.920  19.286  -5.838  0.00  0.00    -0.171 NA
ENDROOT
BRANCH   1   6
ATOM      6  C2  NON d   1     -41.139  20.649  -6.709  0.00  0.00     0.253 C 
BRANCH   6   7
ATOM      7  C1  NON d   1     -40.300  20.233  -7.901  0.00  0.00     0.242 C 
ATOM      8  O1  NON d   1     -40.380  19.130  -8.432  0.00  0.00    -0.271 OA
ATOM      9  N4  NON d   1     -39.398  21.225  -8.281  0.00  0.00    -0.326 N 
ATOM     10  H9  NON d   1     -39.225  21.972  -7.619  0.00  0.00     0.169 HD
BRANCH   9  11
ATOM     11  C11 NON d   1     -38.593  21.225  -9.442  0.00  0.00     0.036 A 
ATOM     12  C12 NON d   1     -37.380  20.527  -9.387  0.00  0.00     0.029 A 
ATOM     13  C13 NON d   1     -36.523  20.496 -10.491  0.00  0.00     0.004 A 
ATOM     14  C14 NON d   1     -36.864  21.183 -11.654  0.00  0.00     0.024 A 
ATOM     15  C15 NON d   1     -38.059  21.894 -11.706  0.00  0.00     0.036 A 
ATOM     16 Cl1  NON d   1     -38.463  22.771 -13.133  0.00  0.00    -0.084 Cl
ATOM     17  C16 NON d   1     -38.925  21.915 -10.611  0.00  0.00     0.053 A 
ENDBRANCH   9  11
ENDBRANCH   6   7
ENDBRANCH   1   6
BRANCH   4  18
ATOM     18  C6  NON d   1     -44.360  17.621  -4.659  0.00  0.00     0.036 A 
ATOM     19  C7  NON d   1     -44.749  17.254  -3.388  0.00  0.00     0.023 A 
ATOM     20  C8  NON d   1     -46.047  16.659  -3.367  0.00  0.00     0.026 A 
ATOM     21  C9  NON d   1     -46.612  16.576  -4.626  0.00  0.00     0.075 A 
ATOM     22  S1  NON d   1     -45.565  17.254  -5.810  0.00  0.00    -0.082 SA
BRANCH  21  23
ATOM     23  C10 NON d   1     -47.893  16.029  -5.051  0.00  0.00     0.281 C 
ATOM     24  O2  NON d   1     -48.366  16.129  -6.185  0.00  0.00    -0.265 OA
ATOM     25  N2  NON d   1     -48.596  15.336  -4.087  0.00  0.00    -0.233 N 
ATOM     26  H7  NON d   1     -48.246  15.085  -3.173  0.00  0.00     0.197 HD
BRANCH  25  27
ATOM     27  O3  NON d   1     -49.797  14.713  -4.500  0.00  0.00    -0.287 OA
ATOM     28  H8  NON d   1     -49.684  14.678  -5.477  0.00  0.00     0.244 HD
ENDBRANCH  25  27
ENDBRANCH  21  23
ENDBRANCH   4  18
TORSDOF 6
ENDMDL
MODEL 3
REMARK VINA RESULT:   -16.895      5.321     11.394
REMARK INTER + INTRA:         -20.155
REMARK INTER:                 -18.685
REMARK INTRA:                  -1.470
REMARK CONF_INDEPENDENT:        1.790
REMARK UNBOUND:                -1.470
REMARK  6 active torsions:
REMARK  status: ('A' for Active; 'I' for Inactive)
REMARK    1  A    between atoms: C1_2  and  C2_3 
REMARK       I    between atoms: C1_2  and  N4_18 
REMARK    2  A    between atoms: C2_3  and  N1_4 
REMARK    3  A    between atoms: C5_7  and  C6_8 
REMARK    4  A    between atoms: C9_11  and  C10_12 
REMARK       I    between atoms: C10_12  and  N2_14 
REMARK    5  A    between atoms: N2_14  and  O3_15 
REMARK    6  A    between atoms: N4_18  and  C11_19 
ROOT
ATOM      1  N1  NON d   1     -41.591  19.630  -5.667  0.00  0.00    -0.272 N 
ATOM      2  C3  NON d   1     -40.857  18.550  -5.275  0.00  0.00     0.115 A 
ATOM      3  C4  NON d   1     -41.754  17.631  -4.788  0.00  0.00     0.053 A 
ATOM      4  C5  NON d   1     -43.027  18.209  -4.996  0.00  0.00     0.095 A 
ATOM      5  N3  NON d   1     -42.922  19.419  -5.559  0.00  0.00    -0.171 NA
ENDROOT
BRANCH   1   6
ATOM      6  C2  NON d   1     -41.149  20.876  -6.281  0.00  0.00     0.253 C 
BRANCH   6   7
ATOM      7  C1  NON d   1     -40.593  20.764  -7.687  0.00  0.00     0.242 C 
ATOM      8  O1  NON d   1     -40.731  19.769  -8.391  0.00  0.00    -0.271 OA
ATOM      9  N4  NON d   1     -39.866  21.894  -8.057  0.00  0.00    -0.326 N 
ATOM     10  H9  NON d   1     -39.587  22.527  -7.317  0.00  0.00     0.169 HD
BRANCH   9  11
ATOM     11  C11 NON d   1     -39.361  22.180  -9.344  0.00  0.00     0.036 A 
ATOM     12  C12 NON d   1     -39.922  23.264 -10.032  0.00  0.00     0.029 A 
ATOM     13  C13 NON d   1     -39.485  23.597 -11.317  0.00  0.00     0.004 A 
ATOM     14  C14 NON d   1     -38.496  22.835 -11.934  0.00  0.00     0.024 A 
ATOM     15  C15 NON d   1     -37.950  21.746 -11.262  0.00  0.00     0.036 A 
ATOM     16 Cl1  NON d   1     -36.750  20.784 -12.040  0.00  0.00    -0.084 Cl
ATOM     17  C16 NON d   1     -38.372  21.418  -9.972  0.00  0.00     0.053 A 
ENDBRANCH   9  11
ENDBRANCH   6   7
ENDBRANCH   1   6
BRANCH   4  18
ATOM     18  C6  NON d   1     -44.346  17.572  -4.664  0.00  0.00     0.036 A 
ATOM     19  C7  NON d   1     -44.722  17.175  -3.398  0.00  0.00     0.023 A 
ATOM     20  C8  NON d   1     -46.023  16.586  -3.378  0.00  0.00     0.026 A 
ATOM     21  C9  NON d   1     -46.603  16.538  -4.632  0.00  0.00     0.075 A 
ATOM     22  S1  NON d   1     -45.566  17.241  -5.810  0.00  0.00    -0.082 SA
BRANCH  21  23
ATOM     23  C10 NON d   1     -47.891  16.009  -5.056  0.00  0.00     0.281 C 
ATOM     24  O2  NON d   1     -48.372  16.130  -6.185  0.00  0.00    -0.265 OA
ATOM     25  N2  NON d   1     -48.595  15.309  -4.097  0.00  0.00    -0.233 N 
ATOM     26  H7  NON d   1     -48.240  15.042  -3.189  0.00  0.00     0.197 HD
BRANCH  25  27
ATOM     27  O3  NON d   1     -49.803  14.702  -4.511  0.00  0.00    -0.287 OA
ATOM     28  H8  NON d   1     -49.786  14.852  -5.483  0.00  0.00     0.244 HD
ENDBRANCH  25  27
ENDBRANCH  21  23
ENDBRANCH   4  18
TORSDOF 6
ENDMDL
MODEL 4
REMARK VINA RESULT:   -16.530      4.521      9.523
REMARK INTER + INTRA:         -19.863
REMARK INTER:                 -18.319
REMARK INTRA:                  -1.544
REMARK CONF_INDEPENDENT:        1.790
REMARK UNBOUND:                -1.544
REMARK  6 active torsions:
REMARK  status: ('A' for Active; 'I' for Inactive)
REMARK    1  A    between atoms: C1_2  and  C2_3 
REMARK       I    between atoms: C1_2  and  N4_18 
REMARK    2  A    between atoms: C2_3  and  N1_4 
REMARK    3  A    between atoms: C5_7  and  C6_8 
REMARK    4  A    between atoms: C9_11  and  C10_12 
REMARK       I    between atoms: C10_12  and  N2_14 
REMARK    5  A    between atoms: N2_14  and  O3_15 
REMARK    6  A    between atoms: N4_18  and  C11_19 
ROOT
ATOM      1  N1  NON d   1     -41.567  19.793  -5.298  0.00  0.00    -0.272 N 
ATOM      2  C3  NON d   1     -40.953  18.630  -5.656  0.00  0.00     0.115 A 
ATOM      3  C4  NON d   1     -41.865  17.627  -5.426  0.00  0.00     0.053 A 
ATOM      4  C5  NON d   1     -43.040  18.285  -4.999  0.00  0.00     0.095 A 
ATOM      5  N3  NON d   1     -42.860  19.611  -4.948  0.00  0.00    -0.171 NA
ENDROOT
BRANCH   1   6
ATOM      6  C2  NON d   1     -41.068  21.161  -5.364  0.00  0.00     0.253 C 
BRANCH   6   7
ATOM      7  C1  NON d   1     -41.184  21.973  -4.089  0.00  0.00     0.242 C 
ATOM      8  O1  NON d   1     -41.935  22.935  -3.967  0.00  0.00    -0.271 OA
ATOM      9  N4  NON d   1     -40.303  21.532  -3.103  0.00  0.00    -0.326 N 
ATOM     10  H9  NON d   1     -39.549  20.921  -3.395  0.00  0.00     0.169 HD
BRANCH   9  11
ATOM     11  C11 NON d   1     -40.271  21.958  -1.757  0.00  0.00     0.036 A 
ATOM     12  C12 NON d   1     -39.760  21.063  -0.808  0.00  0.00     0.029 A 
ATOM     13  C13 NON d   1     -39.713  21.408   0.546  0.00  0.00     0.004 A 
ATOM     14  C14 NON d   1     -40.197  22.644   0.965  0.00  0.00     0.024 A 
ATOM     15  C15 NON d   1     -40.724  23.529   0.028  0.00  0.00     0.036 A 
ATOM     16 Cl1  NON d   1     -41.353  25.045   0.553  0.00  0.00    -0.084 Cl
ATOM     17  C16 NON d   1     -40.759  23.195  -1.328  0.00  0.00     0.053 A 
ENDBRANCH   9  11
ENDBRANCH   6   7
ENDBRANCH   1   6
BRANCH   4  18
ATOM     18  C6  NON d   1     -44.344  17.622  -4.657  0.00  0.00     0.036 A 
ATOM     19  C7  NON d   1     -44.703  17.218  -3.390  0.00  0.00     0.023 A 
ATOM     20  C8  NON d   1     -45.992  16.603  -3.360  0.00  0.00     0.026 A 
ATOM     21  C9  NON d   1     -46.579  16.543  -4.611  0.00  0.00     0.075 A 
ATOM     22  S1  NON d   1     -45.564  17.267  -5.796  0.00  0.00    -0.082 SA
BRANCH  21  23
ATOM     23  C10 NON d   1     -47.860  15.988  -5.026  0.00  0.00     0.281 C 
ATOM     24  O2  NON d   1     -48.279  15.963  -6.185  0.00  0.00    -0.265 OA
ATOM     25  N2  NON d   1     -48.630  15.443  -4.020  0.00  0.00    -0.233 N 
ATOM     26  H7  NON d   1     -48.328  15.296  -3.066  0.00  0.00     0.197 HD
BRANCH  25  27
ATOM     27  O3  NON d   1     -49.833  14.811  -4.410  0.00  0.00    -0.287 OA
ATOM     28  H8  NON d   1     -49.776  14.849  -5.391  0.00  0.00     0.244 HD
ENDBRANCH  25  27
ENDBRANCH  21  23
ENDBRANCH   4  18
TORSDOF 6
ENDMDL
MODEL 5
REMARK VINA RESULT:   -16.435      4.661      9.980
REMARK INTER + INTRA:         -19.738
REMARK INTER:                 -18.225
REMARK INTRA:                  -1.513
REMARK CONF_INDEPENDENT:        1.790
REMARK UNBOUND:                -1.513
REMARK  6 active torsions:
REMARK  status: ('A' for Active; 'I' for Inactive)
REMARK    1  A    between atoms: C1_2  and  C2_3 
REMARK       I    between atoms: C1_2  and  N4_18 
REMARK    2  A    between atoms: C2_3  and  N1_4 
REMARK    3  A    between atoms: C5_7  and  C6_8 
REMARK    4  A    between atoms: C9_11  and  C10_12 
REMARK       I    between atoms: C10_12  and  N2_14 
REMARK    5  A    between atoms: N2_14  and  O3_15 
REMARK    6  A    between atoms: N4_18  and  C11_19 
ROOT
ATOM      1  N1  NON d   1     -41.116  18.814  -4.439  0.00  0.00    -0.272 N 
ATOM      2  C3  NON d   1     -41.550  19.523  -5.520  0.00  0.00     0.115 A 
ATOM      3  C4  NON d   1     -42.855  19.148  -5.727  0.00  0.00     0.053 A 
ATOM      4  C5  NON d   1     -43.158  18.260  -4.671  0.00  0.00     0.095 A 
ATOM      5  N3  NON d   1     -42.100  18.081  -3.871  0.00  0.00    -0.171 NA
ENDROOT
BRANCH   1   6
ATOM      6  C2  NON d   1     -39.821  18.846  -3.771  0.00  0.00     0.253 C 
BRANCH   6   7
ATOM      7  C1  NON d   1     -39.457  20.148  -3.087  0.00  0.00     0.242 C 
ATOM      8  O1  NON d   1     -39.139  21.165  -3.695  0.00  0.00    -0.271 OA
ATOM      9  N4  NON d   1     -39.474  20.036  -1.698  0.00  0.00    -0.326 N 
ATOM     10  H9  NON d   1     -39.480  19.100  -1.310  0.00  0.00     0.169 HD
BRANCH   9  11
ATOM     11  C11 NON d   1     -39.348  21.093  -0.771  0.00  0.00     0.036 A 
ATOM     12  C12 NON d   1     -38.228  21.082   0.072  0.00  0.00     0.029 A 
ATOM     13  C13 NON d   1     -38.044  22.086   1.027  0.00  0.00     0.004 A 
ATOM     14  C14 NON d   1     -38.990  23.100   1.161  0.00  0.00     0.024 A 
ATOM     15  C15 NON d   1     -40.112  23.104   0.339  0.00  0.00     0.036 A 
ATOM     16 Cl1  NON d   1     -41.298  24.340   0.528  0.00  0.00    -0.084 Cl
ATOM     17  C16 NON d   1     -40.293  22.112  -0.627  0.00  0.00     0.053 A 
ENDBRANCH   9  11
ENDBRANCH   6   7
ENDBRANCH   1   6
BRANCH   4  18
ATOM     18  C6  NON d   1     -44.487  17.600  -4.430  0.00  0.00     0.036 A 
ATOM     19  C7  NON d   1     -44.970  17.255  -3.187  0.00  0.00     0.023 A 
ATOM     20  C8  NON d   1     -46.251  16.628  -3.257  0.00  0.00     0.026 A 
ATOM     21  C9  NON d   1     -46.709  16.501  -4.556  0.00  0.00     0.075 A 
ATOM     22  S1  NON d   1     -45.583  17.176  -5.667  0.00  0.00    -0.082 SA
BRANCH  21  23
ATOM     23  C10 NON d   1     -47.937  15.912  -5.070  0.00  0.00     0.281 C 
ATOM     24  O2  NON d   1     -48.416  16.130  -6.185  0.00  0.00    -0.265 OA
ATOM     25  N2  NON d   1     -48.580  15.034  -4.222  0.00  0.00    -0.233 N 
ATOM     26  H7  NON d   1     -48.211  14.689  -3.347  0.00  0.00     0.197 HD
BRANCH  25  27
ATOM     27  O3  NON d   1     -49.722  14.376  -4.733  0.00  0.00    -0.287 OA
ATOM     28  H8  NON d   1     -49.622  14.514  -5.702  0.00  0.00     0.244 HD
ENDBRANCH  25  27
ENDBRANCH  21  23
ENDBRANCH   4  18
TORSDOF 6
ENDMDL
MODEL 6
REMARK VINA RESULT:   -16.026      4.290      9.698
REMARK INTER + INTRA:         -19.558
REMARK INTER:                 -17.816
REMARK INTRA:                  -1.742
REMARK CONF_INDEPENDENT:        1.790
REMARK UNBOUND:                -1.742
REMARK  6 active torsions:
REMARK  status: ('A' for Active; 'I' for Inactive)
REMARK    1  A    between atoms: C1_2  and  C2_3 
REMARK       I    between atoms: C1_2  and  N4_18 
REMARK    2  A    between atoms: C2_3  and  N1_4 
REMARK    3  A    between atoms: C5_7  and  C6_8 
REMARK    4  A    between atoms: C9_11  and  C10_12 
REMARK       I    between atoms: C10_12  and  N2_14 
REMARK    5  A    between atoms: N2_14  and  O3_15 
REMARK    6  A    between atoms: N4_18  and  C11_19 
ROOT
ATOM      1  N1  NON d   1     -41.591  19.537  -5.786  0.00  0.00    -0.272 N 
ATOM      2  C3  NON d   1     -40.869  18.590  -5.122  0.00  0.00     0.115 A 
ATOM      3  C4  NON d   1     -41.783  17.741  -4.547  0.00  0.00     0.053 A 
ATOM      4  C5  NON d   1     -43.045  18.207  -4.981  0.00  0.00     0.095 A 
ATOM      5  N3  NON d   1     -42.919  19.288  -5.760  0.00  0.00    -0.171 NA
ENDROOT
BRANCH   1   6
ATOM      6  C2  NON d   1     -41.126  20.660  -6.592  0.00  0.00     0.253 C 
BRANCH   6   7
ATOM      7  C1  NON d   1     -40.618  21.863  -5.823  0.00  0.00     0.242 C 
ATOM      8  O1  NON d   1     -39.812  22.667  -6.281  0.00  0.00    -0.271 OA
ATOM      9  N4  NON d   1     -41.129  21.913  -4.527  0.00  0.00    -0.326 N 
ATOM     10  H9  NON d   1     -41.558  21.070  -4.166  0.00  0.00     0.169 HD
BRANCH   9  11
ATOM     11  C11 NON d   1     -40.989  22.981  -3.613  0.00  0.00     0.036 A 
ATOM     12  C12 NON d   1     -41.052  24.283  -4.126  0.00  0.00     0.029 A 
ATOM     13  C13 NON d   1     -40.906  25.389  -3.284  0.00  0.00     0.004 A 
ATOM     14  C14 NON d   1     -40.673  25.202  -1.924  0.00  0.00     0.024 A 
ATOM     15  C15 NON d   1     -40.591  23.910  -1.414  0.00  0.00     0.036 A 
ATOM     16 Cl1  NON d   1     -40.270  23.680   0.264  0.00  0.00    -0.084 Cl
ATOM     17  C16 NON d   1     -40.752  22.801  -2.248  0.00  0.00     0.053 A 
ENDBRANCH   9  11
ENDBRANCH   6   7
ENDBRANCH   1   6
BRANCH   4  18
ATOM     18  C6  NON d   1     -44.372  17.585  -4.652  0.00  0.00     0.036 A 
ATOM     19  C7  NON d   1     -44.777  17.242  -3.379  0.00  0.00     0.023 A 
ATOM     20  C8  NON d   1     -46.078  16.655  -3.363  0.00  0.00     0.026 A 
ATOM     21  C9  NON d   1     -46.631  16.554  -4.627  0.00  0.00     0.075 A 
ATOM     22  S1  NON d   1     -45.567  17.206  -5.810  0.00  0.00    -0.082 SA
BRANCH  21  23
ATOM     23  C10 NON d   1     -47.910  16.007  -5.056  0.00  0.00     0.281 C 
ATOM     24  O2  NON d   1     -48.390  16.130  -6.185  0.00  0.00    -0.265 OA
ATOM     25  N2  NON d   1     -48.603  15.289  -4.104  0.00  0.00    -0.233 N 
ATOM     26  H7  NON d   1     -48.246  15.021  -3.197  0.00  0.00     0.197 HD
BRANCH  25  27
ATOM     27  O3  NON d   1     -49.802  14.667  -4.524  0.00  0.00    -0.287 OA
ATOM     28  H8  NON d   1     -49.709  14.683  -5.503  0.00  0.00     0.244 HD
ENDBRANCH  25  27
ENDBRANCH  21  23
ENDBRANCH   4  18
TORSDOF 6
ENDMDL
MODEL 7
REMARK VINA RESULT:   -15.945      4.837      9.824
REMARK INTER + INTRA:         -19.255
REMARK INTER:                 -17.735
REMARK INTRA:                  -1.520
REMARK CONF_INDEPENDENT:        1.790
REMARK UNBOUND:                -1.520
REMARK  6 active torsions:
REMARK  status: ('A' for Active; 'I' for Inactive)
REMARK    1  A    between atoms: C1_2  and  C2_3 
REMARK       I    between atoms: C1_2  and  N4_18 
REMARK    2  A    between atoms: C2_3  and  N1_4 
REMARK    3  A    between atoms: C5_7  and  C6_8 
REMARK    4  A    between atoms: C9_11  and  C10_12 
REMARK       I    between atoms: C10_12  and  N2_14 
REMARK    5  A    between atoms: N2_14  and  O3_15 
REMARK    6  A    between atoms: N4_18  and  C11_19 
ROOT
ATOM      1  N1  NON d   1     -41.566  19.750  -5.336  0.00  0.00    -0.272 N 
ATOM      2  C3  NON d   1     -40.922  18.574  -5.583  0.00  0.00     0.115 A 
ATOM      3  C4  NON d   1     -41.830  17.576  -5.323  0.00  0.00     0.053 A 
ATOM      4  C5  NON d   1     -43.031  18.244  -4.996  0.00  0.00     0.095 A 
ATOM      5  N3  NON d   1     -42.871  19.572  -5.032  0.00  0.00    -0.171 NA
ENDROOT
BRANCH   1   6
ATOM      6  C2  NON d   1     -41.082  21.118  -5.478  0.00  0.00     0.253 C 
BRANCH   6   7
ATOM      7  C1  NON d   1     -40.447  21.729  -4.245  0.00  0.00     0.242 C 
ATOM      8  O1  NON d   1     -39.301  21.481  -3.881  0.00  0.00    -0.271 OA
ATOM      9  N4  NON d   1     -41.330  22.554  -3.552  0.00  0.00    -0.326 N 
ATOM     10  H9  NON d   1     -42.314  22.473  -3.780  0.00  0.00     0.169 HD
BRANCH   9  11
ATOM     11  C11 NON d   1     -41.011  23.397  -2.465  0.00  0.00     0.036 A 
ATOM     12  C12 NON d   1     -40.753  22.788  -1.229  0.00  0.00     0.029 A 
ATOM     13  C13 NON d   1     -40.447  23.559  -0.104  0.00  0.00     0.004 A 
ATOM     14  C14 NON d   1     -40.417  24.948  -0.201  0.00  0.00     0.024 A 
ATOM     15  C15 NON d   1     -40.691  25.558  -1.421  0.00  0.00     0.036 A 
ATOM     16 Cl1  NON d   1     -40.686  27.277  -1.531  0.00  0.00    -0.084 Cl
ATOM     17  C16 NON d   1     -40.983  24.791  -2.552  0.00  0.00     0.053 A 
ENDBRANCH   9  11
ENDBRANCH   6   7
ENDBRANCH   1   6
BRANCH   4  18
ATOM     18  C6  NON d   1     -44.341  17.586  -4.666  0.00  0.00     0.036 A 
ATOM     19  C7  NON d   1     -44.704  17.161  -3.406  0.00  0.00     0.023 A 
ATOM     20  C8  NON d   1     -45.997  16.557  -3.387  0.00  0.00     0.026 A 
ATOM     21  C9  NON d   1     -46.586  16.525  -4.639  0.00  0.00     0.075 A 
ATOM     22  S1  NON d   1     -45.565  17.262  -5.810  0.00  0.00    -0.082 SA
BRANCH  21  23
ATOM     23  C10 NON d   1     -47.871  15.989  -5.063  0.00  0.00     0.281 C 
ATOM     24  O2  NON d   1     -48.363  16.130  -6.185  0.00  0.00    -0.265 OA
ATOM     25  N2  NON d   1     -48.556  15.257  -4.115  0.00  0.00    -0.233 N 
ATOM     26  H7  NON d   1     -48.190  14.974  -3.217  0.00  0.00     0.197 HD
BRANCH  25  27
ATOM     27  O3  NON d   1     -49.760  14.645  -4.532  0.00  0.00    -0.287 OA
ATOM     28  H8  NON d   1     -49.656  14.631  -5.510  0.00  0.00     0.244 HD
ENDBRANCH  25  27
ENDBRANCH  21  23
ENDBRANCH   4  18
TORSDOF 6
ENDMDL
MODEL 8
REMARK VINA RESULT:   -15.162      4.855     11.099
REMARK INTER + INTRA:         -18.465
REMARK INTER:                 -16.952
REMARK INTRA:                  -1.514
REMARK CONF_INDEPENDENT:        1.790
REMARK UNBOUND:                -1.514
REMARK  6 active torsions:
REMARK  status: ('A' for Active; 'I' for Inactive)
REMARK    1  A    between atoms: C1_2  and  C2_3 
REMARK       I    between atoms: C1_2  and  N4_18 
REMARK    2  A    between atoms: C2_3  and  N1_4 
REMARK    3  A    between atoms: C5_7  and  C6_8 
REMARK    4  A    between atoms: C9_11  and  C10_12 
REMARK       I    between atoms: C10_12  and  N2_14 
REMARK    5  A    between atoms: N2_14  and  O3_15 
REMARK    6  A    between atoms: N4_18  and  C11_19 
ROOT
ATOM      1  N1  NON d   1     -41.151  18.735  -5.929  0.00  0.00    -0.272 N 
ATOM      2  C3  NON d   1     -41.436  19.855  -5.206  0.00  0.00     0.115 A 
ATOM      3  C4  NON d   1     -42.688  19.661  -4.674  0.00  0.00     0.053 A 
ATOM      4  C5  NON d   1     -43.059  18.355  -5.065  0.00  0.00     0.095 A 
ATOM      5  N3  NON d   1     -42.104  17.784  -5.809  0.00  0.00    -0.171 NA
ENDROOT
BRANCH   1   6
ATOM      6  C2  NON d   1     -39.945  18.399  -6.677  0.00  0.00     0.253 C 
BRANCH   6   7
ATOM      7  C1  NON d   1     -39.089  19.569  -7.118  0.00  0.00     0.242 C 
ATOM      8  O1  NON d   1     -37.862  19.556  -7.095  0.00  0.00    -0.271 OA
ATOM      9  N4  NON d   1     -39.857  20.669  -7.497  0.00  0.00    -0.326 N 
ATOM     10  H9  NON d   1     -40.832  20.670  -7.222  0.00  0.00     0.169 HD
BRANCH   9  11
ATOM     11  C11 NON d   1     -39.382  21.850  -8.109  0.00  0.00     0.036 A 
ATOM     12  C12 NON d   1     -39.917  22.188  -9.360  0.00  0.00     0.029 A 
ATOM     13  C13 NON d   1     -39.484  23.334 -10.034  0.00  0.00     0.004 A 
ATOM     14  C14 NON d   1     -38.496  24.139  -9.473  0.00  0.00     0.024 A 
ATOM     15  C15 NON d   1     -37.949  23.796  -8.240  0.00  0.00     0.036 A 
ATOM     16 Cl1  NON d   1     -36.703  24.775  -7.563  0.00  0.00    -0.084 Cl
ATOM     17  C16 NON d   1     -38.389  22.661  -7.555  0.00  0.00     0.053 A 
ENDBRANCH   9  11
ENDBRANCH   6   7
ENDBRANCH   1   6
BRANCH   4  18
ATOM     18  C6  NON d   1     -44.336  17.656  -4.696  0.00  0.00     0.036 A 
ATOM     19  C7  NON d   1     -44.662  17.252  -3.419  0.00  0.00     0.023 A 
ATOM     20  C8  NON d   1     -45.931  16.599  -3.362  0.00  0.00     0.026 A 
ATOM     21  C9  NON d   1     -46.537  16.511  -4.602  0.00  0.00     0.075 A 
ATOM     22  S1  NON d   1     -45.565  17.254  -5.810  0.00  0.00    -0.082 SA
BRANCH  21  23
ATOM     23  C10 NON d   1     -47.807  15.914  -4.991  0.00  0.00     0.281 C 
ATOM     24  O2  NON d   1     -48.189  15.753  -6.152  0.00  0.00    -0.265 OA
ATOM     25  N2  NON d   1     -48.612  15.493  -3.953  0.00  0.00    -0.233 N 
ATOM     26  H7  NON d   1     -48.343  15.459  -2.979  0.00  0.00     0.197 HD
BRANCH  25  27
ATOM     27  O3  NON d   1     -49.807  14.823  -4.305  0.00  0.00    -0.287 OA
ATOM     28  H8  NON d   1     -49.705  14.720  -5.278  0.00  0.00     0.244 HD
ENDBRANCH  25  27
ENDBRANCH  21  23
ENDBRANCH   4  18
TORSDOF 6
ENDMDL
