MODEL 1
REMARK VINA RESULT:   -36.374      0.000      0.000
REMARK INTER + INTRA:         -39.834
REMARK INTER:                 -38.761
REMARK INTRA:                  -1.073
REMARK CONF_INDEPENDENT:        2.386
REMARK UNBOUND:                -1.073
REMARK  8 active torsions:
REMARK  status: ('A' for Active; 'I' for Inactive)
REMARK    1  A    between atoms: C14_18  and  C15_19 
REMARK    2  A    between atoms: C15_19  and  C16_20 
REMARK    3  A    between atoms: C16_20  and  C17_21 
REMARK    4  A    between atoms: C17_21  and  C18_22 
REMARK    5  A    between atoms: C18_22  and  C19_23 
REMARK    6  A    between atoms: C19_23  and  S1_24 
REMARK    7  A    between atoms: S1_24  and  S2_25 
REMARK    8  A    between atoms: S2_25  and  C20_26 
ROOT
ATOM      1  C1  NON d   1     -40.195  25.613  -5.237  0.00  0.00     0.042 C 
ATOM      2  C2  NON d   1     -39.082  24.774  -4.662  0.00  0.00     0.167 C 
ATOM      3  N1  NON d   1     -39.361  24.044  -3.426  0.00  0.00    -0.346 N 
ATOM      4  C3  NON d   1     -40.350  24.146  -2.447  0.00  0.00     0.247 C 
ATOM      5  O1  NON d   1     -41.296  24.915  -2.482  0.00  0.00    -0.271 OA
ATOM      6  C4  NON d   1     -39.983  23.181  -1.257  0.00  0.00     0.121 C 
ATOM      7  C5  NON d   1     -41.029  22.863  -0.172  0.00  0.00     0.080 C 
ATOM      8  C6  NON d   1     -40.556  23.636   1.021  0.00  0.00    -0.049 C 
ATOM      9  C7  NON d   1     -41.131  23.690   2.283  0.00  0.00     0.007 C 
ATOM     10  C8  NON d   1     -40.582  24.558   3.230  0.00  0.00     0.001 C 
ATOM     11  C9  NON d   1     -39.494  25.377   2.897  0.00  0.00     0.001 C 
ATOM     12  C10 NON d   1     -38.878  25.259   1.650  0.00  0.00     0.007 C 
ATOM     13  C11 NON d   1     -39.390  24.341   0.744  0.00  0.00    -0.049 C 
ATOM     14  C12 NON d   1     -38.791  23.907  -0.559  0.00  0.00     0.080 C 
ATOM     15  N2  NON d   1     -39.697  21.964  -2.062  0.00  0.00    -0.341 N 
ATOM     16  C13 NON d   1     -38.832  20.920  -1.850  0.00  0.00     0.241 C 
ATOM     17  O2  NON d   1     -38.219  20.745  -0.805  0.00  0.00    -0.271 OA
ATOM     18  C14 NON d   1     -38.753  19.970  -3.093  0.00  0.00     0.176 C 
ATOM     19  N4  NON d   1     -39.202  20.755  -4.276  0.00  0.00    -0.346 N 
ATOM     20  C25 NON d   1     -38.997  20.330  -5.571  0.00  0.00     0.236 C 
ATOM     21  O3  NON d   1     -38.842  19.148  -5.863  0.00  0.00    -0.272 OA
ATOM     22  C26 NON d   1     -38.785  21.463  -6.620  0.00  0.00     0.158 C 
ATOM     23  C27 NON d   1     -39.477  21.118  -7.938  0.00  0.00     0.031 C 
ATOM     24  C28 NON d   1     -39.455  22.458  -8.649  0.00  0.00     0.017 C 
ATOM     25  C29 NON d   1     -39.814  23.430  -7.527  0.00  0.00     0.099 C 
ATOM     26  N5  NON d   1     -39.247  22.843  -6.312  0.00  0.00    -0.238 NA
ATOM     27  C30 NON d   1     -38.425  23.658  -5.532  0.00  0.00     0.223 C 
ATOM     28  O4  NON d   1     -37.282  23.281  -5.241  0.00  0.00    -0.277 OA
ATOM     29  H5  NON d   1     -38.570  23.477  -3.132  0.00  0.00     0.163 HD
ATOM     30  H14 NON d   1     -40.401  21.764  -2.771  0.00  0.00     0.163 HD
ATOM     31  H30 NON d   1     -39.073  21.754  -4.188  0.00  0.00     0.163 HD
ENDROOT
BRANCH  18  32
ATOM     32  C15 NON d   1     -39.529  18.658  -2.865  0.00  0.00     0.035 C 
BRANCH  32  33
ATOM     33  C16 NON d   1     -40.834  18.928  -2.097  0.00  0.00     0.002 C 
BRANCH  33  34
ATOM     34  C17 NON d   1     -42.029  18.055  -2.507  0.00  0.00     0.001 C 
BRANCH  34  35
ATOM     35  C18 NON d   1     -41.844  17.374  -3.870  0.00  0.00     0.011 C 
BRANCH  35  36
ATOM     36  C19 NON d   1     -43.143  17.169  -4.659  0.00  0.00     0.086 C 
BRANCH  36  37
ATOM     37  S1  NON d   1     -44.139  18.685  -4.845  0.00  0.00    -0.091 SA
BRANCH  37  38
ATOM     38  S2  NON d   1     -45.595  18.109  -6.183  0.00  0.00    -0.038 SA
BRANCH  38  39
ATOM     39  C20 NON d   1     -46.593  16.940  -5.264  0.00  0.00     0.103 A 
ATOM     40  C21 NON d   1     -46.426  16.879  -3.877  0.00  0.00     0.040 A 
ATOM     41  C22 NON d   1     -47.174  15.950  -3.160  0.00  0.00     0.004 A 
ATOM     42  C23 NON d   1     -48.066  15.125  -3.828  0.00  0.00     0.019 A 
ATOM     43  C24 NON d   1     -48.161  15.253  -5.204  0.00  0.00     0.118 A 
ATOM     44  N3  NON d   1     -47.439  16.130  -5.934  0.00  0.00    -0.253 NA
ENDBRANCH  38  39
ENDBRANCH  37  38
ENDBRANCH  36  37
ENDBRANCH  35  36
ENDBRANCH  34  35
ENDBRANCH  33  34
ENDBRANCH  32  33
ENDBRANCH  18  32
TORSDOF 8
ENDMDL
MODEL 2
REMARK VINA RESULT:   -35.875      1.698      2.342
REMARK INTER + INTRA:         -39.151
REMARK INTER:                 -38.261
REMARK INTRA:                  -0.890
REMARK CONF_INDEPENDENT:        2.386
REMARK UNBOUND:                -0.890
REMARK  8 active torsions:
REMARK  status: ('A' for Active; 'I' for Inactive)
REMARK    1  A    between atoms: C14_18  and  C15_19 
REMARK    2  A    between atoms: C15_19  and  C16_20 
REMARK    3  A    between atoms: C16_20  and  C17_21 
REMARK    4  A    between atoms: C17_21  and  C18_22 
REMARK    5  A    between atoms: C18_22  and  C19_23 
REMARK    6  A    between atoms: C19_23  and  S1_24 
REMARK    7  A    between atoms: S1_24  and  S2_25 
REMARK    8  A    between atoms: S2_25  and  C20_26 
ROOT
ATOM      1  C1  NON d   1     -39.530  27.351  -6.092  0.00  0.00     0.042 C 
ATOM      2  C2  NON d   1     -38.688  26.123  -5.856  0.00  0.00     0.167 C 
ATOM      3  N1  NON d   1     -39.215  25.112  -4.939  0.00  0.00    -0.346 N 
ATOM      4  C3  NON d   1     -40.216  25.118  -3.968  0.00  0.00     0.247 C 
ATOM      5  O1  NON d   1     -40.951  26.062  -3.723  0.00  0.00    -0.271 OA
ATOM      6  C4  NON d   1     -40.169  23.753  -3.186  0.00  0.00     0.121 C 
ATOM      7  C5  NON d   1     -41.333  23.355  -2.258  0.00  0.00     0.080 C 
ATOM      8  C6  NON d   1     -40.774  23.543  -0.880  0.00  0.00    -0.049 C 
ATOM      9  C7  NON d   1     -41.405  23.309   0.333  0.00  0.00     0.007 C 
ATOM     10  C8  NON d   1     -40.735  23.649   1.510  0.00  0.00     0.001 C 
ATOM     11  C9  NON d   1     -39.464  24.240   1.460  0.00  0.00     0.001 C 
ATOM     12  C10 NON d   1     -38.809  24.400   0.237  0.00  0.00     0.007 C 
ATOM     13  C11 NON d   1     -39.459  23.993  -0.919  0.00  0.00    -0.049 C 
ATOM     14  C12 NON d   1     -38.891  23.888  -2.301  0.00  0.00     0.080 C 
ATOM     15  N2  NON d   1     -40.123  22.844  -4.363  0.00  0.00    -0.341 N 
ATOM     16  C13 NON d   1     -39.544  21.612  -4.534  0.00  0.00     0.241 C 
ATOM     17  O2  NON d   1     -39.062  20.953  -3.622  0.00  0.00    -0.271 OA
ATOM     18  C14 NON d   1     -39.605  21.145  -6.028  0.00  0.00     0.176 C 
ATOM     19  N4  NON d   1     -39.775  22.365  -6.864  0.00  0.00    -0.346 N 
ATOM     20  C25 NON d   1     -39.587  22.362  -8.230  0.00  0.00     0.236 C 
ATOM     21  O3  NON d   1     -39.695  21.347  -8.911  0.00  0.00    -0.272 OA
ATOM     22  C26 NON d   1     -39.043  23.693  -8.832  0.00  0.00     0.158 C 
ATOM     23  C27 NON d   1     -39.705  23.989 -10.177  0.00  0.00     0.031 C 
ATOM     24  C28 NON d   1     -39.319  25.442 -10.388  0.00  0.00     0.017 C 
ATOM     25  C29 NON d   1     -39.516  26.039  -8.996  0.00  0.00     0.099 C 
ATOM     26  N5  NON d   1     -39.188  24.959  -8.064  0.00  0.00    -0.238 NA
ATOM     27  C30 NON d   1     -38.253  25.238  -7.066  0.00  0.00     0.223 C 
ATOM     28  O4  NON d   1     -37.254  24.519  -6.939  0.00  0.00    -0.277 OA
ATOM     29  H5  NON d   1     -38.601  24.305  -4.870  0.00  0.00     0.163 HD
ATOM     30  H14 NON d   1     -40.803  23.072  -5.086  0.00  0.00     0.163 HD
ATOM     31  H30 NON d   1     -39.421  23.213  -6.442  0.00  0.00     0.163 HD
ENDROOT
BRANCH  18  32
ATOM     32  C15 NON d   1     -40.681  20.065  -6.250  0.00  0.00     0.035 C 
BRANCH  32  33
ATOM     33  C16 NON d   1     -40.154  18.681  -5.833  0.00  0.00     0.002 C 
BRANCH  33  34
ATOM     34  C17 NON d   1     -40.613  18.194  -4.451  0.00  0.00     0.001 C 
BRANCH  34  35
ATOM     35  C18 NON d   1     -41.950  18.802  -4.005  0.00  0.00     0.011 C 
BRANCH  35  36
ATOM     36  C19 NON d   1     -43.027  17.773  -3.641  0.00  0.00     0.086 C 
BRANCH  36  37
ATOM     37  S1  NON d   1     -43.624  16.797  -5.060  0.00  0.00    -0.091 SA
BRANCH  37  38
ATOM     38  S2  NON d   1     -45.321  17.817  -5.629  0.00  0.00    -0.038 SA
BRANCH  38  39
ATOM     39  C20 NON d   1     -46.663  16.831  -4.974  0.00  0.00     0.103 A 
ATOM     40  C21 NON d   1     -46.833  16.788  -3.586  0.00  0.00     0.040 A 
ATOM     41  C22 NON d   1     -47.854  15.997  -3.068  0.00  0.00     0.004 A 
ATOM     42  C23 NON d   1     -48.677  15.288  -3.929  0.00  0.00     0.019 A 
ATOM     43  C24 NON d   1     -48.431  15.387  -5.289  0.00  0.00     0.118 A 
ATOM     44  N3  NON d   1     -47.440  16.130  -5.826  0.00  0.00    -0.253 NA
ENDBRANCH  38  39
ENDBRANCH  37  38
ENDBRANCH  36  37
ENDBRANCH  35  36
ENDBRANCH  34  35
ENDBRANCH  33  34
ENDBRANCH  32  33
ENDBRANCH  18  32
TORSDOF 8
ENDMDL
MODEL 3
REMARK VINA RESULT:   -35.799      1.134      1.253
REMARK INTER + INTRA:         -38.972
REMARK INTER:                 -38.185
REMARK INTRA:                  -0.787
REMARK CONF_INDEPENDENT:        2.386
REMARK UNBOUND:                -0.787
REMARK  8 active torsions:
REMARK  status: ('A' for Active; 'I' for Inactive)
REMARK    1  A    between atoms: C14_18  and  C15_19 
REMARK    2  A    between atoms: C15_19  and  C16_20 
REMARK    3  A    between atoms: C16_20  and  C17_21 
REMARK    4  A    between atoms: C17_21  and  C18_22 
REMARK    5  A    between atoms: C18_22  and  C19_23 
REMARK    6  A    between atoms: C19_23  and  S1_24 
REMARK    7  A    between atoms: S1_24  and  S2_25 
REMARK    8  A    between atoms: S2_25  and  C20_26 
ROOT
ATOM      1  C1  NON d   1     -39.313  27.239  -4.801  0.00  0.00     0.042 C 
ATOM      2  C2  NON d   1     -38.524  26.012  -4.418  0.00  0.00     0.167 C 
ATOM      3  N1  NON d   1     -39.047  25.191  -3.326  0.00  0.00    -0.346 N 
ATOM      4  C3  NON d   1     -39.984  25.411  -2.316  0.00  0.00     0.247 C 
ATOM      5  O1  NON d   1     -40.651  26.425  -2.185  0.00  0.00    -0.271 OA
ATOM      6  C4  NON d   1     -39.961  24.183  -1.331  0.00  0.00     0.121 C 
ATOM      7  C5  NON d   1     -41.085  24.008  -0.291  0.00  0.00     0.080 C 
ATOM      8  C6  NON d   1     -40.433  24.372   1.008  0.00  0.00    -0.049 C 
ATOM      9  C7  NON d   1     -41.000  24.370   2.274  0.00  0.00     0.007 C 
ATOM     10  C8  NON d   1     -40.240  24.845   3.346  0.00  0.00     0.001 C 
ATOM     11  C9  NON d   1     -38.945  25.340   3.135  0.00  0.00     0.001 C 
ATOM     12  C10 NON d   1     -38.360  25.267   1.870  0.00  0.00     0.007 C 
ATOM     13  C11 NON d   1     -39.101  24.727   0.828  0.00  0.00    -0.049 C 
ATOM     14  C12 NON d   1     -38.626  24.373  -0.547  0.00  0.00     0.080 C 
ATOM     15  N2  NON d   1     -40.037  23.102  -2.349  0.00  0.00    -0.341 N 
ATOM     16  C13 NON d   1     -39.536  21.824  -2.353  0.00  0.00     0.241 C 
ATOM     17  O2  NON d   1     -39.035  21.286  -1.375  0.00  0.00    -0.271 OA
ATOM     18  C14 NON d   1     -39.714  21.135  -3.749  0.00  0.00     0.176 C 
ATOM     19  N4  NON d   1     -39.871  22.219  -4.758  0.00  0.00    -0.346 N 
ATOM     20  C25 NON d   1     -39.768  21.993  -6.114  0.00  0.00     0.236 C 
ATOM     21  O3  NON d   1     -39.972  20.892  -6.619  0.00  0.00    -0.272 OA
ATOM     22  C26 NON d   1     -39.192  23.177  -6.947  0.00  0.00     0.158 C 
ATOM     23  C27 NON d   1     -39.920  23.302  -8.285  0.00  0.00     0.031 C 
ATOM     24  C28 NON d   1     -39.471  24.677  -8.745  0.00  0.00     0.017 C 
ATOM     25  C29 NON d   1     -39.549  25.493  -7.456  0.00  0.00     0.099 C 
ATOM     26  N5  NON d   1     -39.222  24.553  -6.383  0.00  0.00    -0.238 NA
ATOM     27  C30 NON d   1     -38.213  24.925  -5.493  0.00  0.00     0.223 C 
ATOM     28  O4  NON d   1     -37.248  24.173  -5.307  0.00  0.00    -0.277 OA
ATOM     29  H5  NON d   1     -38.474  24.368  -3.162  0.00  0.00     0.163 HD
ATOM     30  H14 NON d   1     -40.748  23.257  -3.062  0.00  0.00     0.163 HD
ATOM     31  H30 NON d   1     -39.447  23.099  -4.495  0.00  0.00     0.163 HD
ENDROOT
BRANCH  18  32
ATOM     32  C15 NON d   1     -40.859  20.103  -3.739  0.00  0.00     0.035 C 
BRANCH  32  33
ATOM     33  C16 NON d   1     -40.577  18.991  -2.714  0.00  0.00     0.002 C 
BRANCH  33  34
ATOM     34  C17 NON d   1     -41.161  17.615  -3.063  0.00  0.00     0.001 C 
BRANCH  34  35
ATOM     35  C18 NON d   1     -41.719  17.535  -4.490  0.00  0.00     0.011 C 
BRANCH  35  36
ATOM     36  C19 NON d   1     -43.228  17.271  -4.569  0.00  0.00     0.086 C 
BRANCH  36  37
ATOM     37  S1  NON d   1     -44.226  18.775  -4.822  0.00  0.00    -0.091 SA
BRANCH  37  38
ATOM     38  S2  NON d   1     -45.642  18.154  -6.184  0.00  0.00    -0.038 SA
BRANCH  38  39
ATOM     39  C20 NON d   1     -46.623  16.961  -5.281  0.00  0.00     0.103 A 
ATOM     40  C21 NON d   1     -46.474  16.902  -3.891  0.00  0.00     0.040 A 
ATOM     41  C22 NON d   1     -47.208  15.954  -3.186  0.00  0.00     0.004 A 
ATOM     42  C23 NON d   1     -48.071  15.109  -3.866  0.00  0.00     0.019 A 
ATOM     43  C24 NON d   1     -48.150  15.236  -5.243  0.00  0.00     0.118 A 
ATOM     44  N3  NON d   1     -47.440  16.131  -5.962  0.00  0.00    -0.253 NA
ENDBRANCH  38  39
ENDBRANCH  37  38
ENDBRANCH  36  37
ENDBRANCH  35  36
ENDBRANCH  34  35
ENDBRANCH  33  34
ENDBRANCH  32  33
ENDBRANCH  18  32
TORSDOF 8
ENDMDL
MODEL 4
REMARK VINA RESULT:   -35.775      1.545      6.323
REMARK INTER + INTRA:         -39.157
REMARK INTER:                 -38.162
REMARK INTRA:                  -0.995
REMARK CONF_INDEPENDENT:        2.386
REMARK UNBOUND:                -0.995
REMARK  8 active torsions:
REMARK  status: ('A' for Active; 'I' for Inactive)
REMARK    1  A    between atoms: C14_18  and  C15_19 
REMARK    2  A    between atoms: C15_19  and  C16_20 
REMARK    3  A    between atoms: C16_20  and  C17_21 
REMARK    4  A    between atoms: C17_21  and  C18_22 
REMARK    5  A    between atoms: C18_22  and  C19_23 
REMARK    6  A    between atoms: C19_23  and  S1_24 
REMARK    7  A    between atoms: S1_24  and  S2_25 
REMARK    8  A    between atoms: S2_25  and  C20_26 
ROOT
ATOM      1  C1  NON d   1     -39.183  26.861  -5.152  0.00  0.00     0.042 C 
ATOM      2  C2  NON d   1     -40.182  25.736  -5.243  0.00  0.00     0.167 C 
ATOM      3  N1  NON d   1     -39.719  24.470  -5.812  0.00  0.00    -0.346 N 
ATOM      4  C3  NON d   1     -38.614  24.105  -6.582  0.00  0.00     0.247 C 
ATOM      5  O1  NON d   1     -37.706  24.853  -6.907  0.00  0.00    -0.271 OA
ATOM      6  C4  NON d   1     -38.789  22.608  -7.036  0.00  0.00     0.121 C 
ATOM      7  C5  NON d   1     -37.599  21.844  -7.648  0.00  0.00     0.080 C 
ATOM      8  C6  NON d   1     -37.936  21.760  -9.105  0.00  0.00    -0.049 C 
ATOM      9  C7  NON d   1     -37.203  21.154 -10.115  0.00  0.00     0.007 C 
ATOM     10  C8  NON d   1     -37.650  21.279 -11.432  0.00  0.00     0.001 C 
ATOM     11  C9  NON d   1     -38.800  22.027 -11.724  0.00  0.00     0.001 C 
ATOM     12  C10 NON d   1     -39.570  22.568 -10.693  0.00  0.00     0.007 C 
ATOM     13  C11 NON d   1     -39.152  22.375  -9.385  0.00  0.00    -0.049 C 
ATOM     14  C12 NON d   1     -39.902  22.689  -8.127  0.00  0.00     0.080 C 
ATOM     15  N2  NON d   1     -39.137  22.031  -5.710  0.00  0.00    -0.341 N 
ATOM     16  C13 NON d   1     -39.932  20.966  -5.366  0.00  0.00     0.241 C 
ATOM     17  O2  NON d   1     -40.396  20.173  -6.174  0.00  0.00    -0.271 OA
ATOM     18  C14 NON d   1     -40.142  20.877  -3.816  0.00  0.00     0.176 C 
ATOM     19  N4  NON d   1     -39.878  22.231  -3.257  0.00  0.00    -0.346 N 
ATOM     20  C25 NON d   1     -40.238  22.589  -1.976  0.00  0.00     0.236 C 
ATOM     21  O3  NON d   1     -40.391  21.767  -1.077  0.00  0.00    -0.272 OA
ATOM     22  C26 NON d   1     -40.624  24.087  -1.783  0.00  0.00     0.158 C 
ATOM     23  C27 NON d   1     -40.100  24.614  -0.448  0.00  0.00     0.031 C 
ATOM     24  C28 NON d   1     -40.261  26.113  -0.633  0.00  0.00     0.017 C 
ATOM     25  C29 NON d   1     -39.789  26.317  -2.072  0.00  0.00     0.099 C 
ATOM     26  N5  NON d   1     -40.172  25.095  -2.780  0.00  0.00    -0.238 NA
ATOM     27  C30 NON d   1     -40.910  25.241  -3.955  0.00  0.00     0.223 C 
ATOM     28  O4  NON d   1     -41.992  24.651  -4.080  0.00  0.00    -0.277 OA
ATOM     29  H5  NON d   1     -40.445  23.759  -5.799  0.00  0.00     0.163 HD
ATOM     30  H14 NON d   1     -38.527  22.337  -4.955  0.00  0.00     0.163 HD
ATOM     31  H30 NON d   1     -40.028  22.989  -3.910  0.00  0.00     0.163 HD
ENDROOT
BRANCH  18  32
ATOM     32  C15 NON d   1     -39.300  19.751  -3.185  0.00  0.00     0.035 C 
BRANCH  32  33
ATOM     33  C16 NON d   1     -40.207  18.708  -2.511  0.00  0.00     0.002 C 
BRANCH  33  34
ATOM     34  C17 NON d   1     -41.618  18.585  -3.105  0.00  0.00     0.001 C 
BRANCH  34  35
ATOM     35  C18 NON d   1     -41.686  17.652  -4.322  0.00  0.00     0.011 C 
BRANCH  35  36
ATOM     36  C19 NON d   1     -43.108  17.338  -4.803  0.00  0.00     0.086 C 
BRANCH  36  37
ATOM     37  S1  NON d   1     -44.192  18.800  -4.903  0.00  0.00    -0.091 SA
BRANCH  37  38
ATOM     38  S2  NON d   1     -45.680  18.174  -6.182  0.00  0.00    -0.038 SA
BRANCH  38  39
ATOM     39  C20 NON d   1     -46.602  16.974  -5.225  0.00  0.00     0.103 A 
ATOM     40  C21 NON d   1     -46.384  16.926  -3.844  0.00  0.00     0.040 A 
ATOM     41  C22 NON d   1     -47.072  15.973  -3.098  0.00  0.00     0.004 A 
ATOM     42  C23 NON d   1     -47.956  15.113  -3.731  0.00  0.00     0.019 A 
ATOM     43  C24 NON d   1     -48.104  15.232  -5.104  0.00  0.00     0.118 A 
ATOM     44  N3  NON d   1     -47.441  16.131  -5.861  0.00  0.00    -0.253 NA
ENDBRANCH  38  39
ENDBRANCH  37  38
ENDBRANCH  36  37
ENDBRANCH  35  36
ENDBRANCH  34  35
ENDBRANCH  33  34
ENDBRANCH  32  33
ENDBRANCH  18  32
TORSDOF 8
ENDMDL
MODEL 5
REMARK VINA RESULT:   -35.044      1.690      5.976
REMARK INTER + INTRA:         -38.162
REMARK INTER:                 -37.430
REMARK INTRA:                  -0.732
REMARK CONF_INDEPENDENT:        2.386
REMARK UNBOUND:                -0.732
REMARK  8 active torsions:
REMARK  status: ('A' for Active; 'I' for Inactive)
REMARK    1  A    between atoms: C14_18  and  C15_19 
REMARK    2  A    between atoms: C15_19  and  C16_20 
REMARK    3  A    between atoms: C16_20  and  C17_21 
REMARK    4  A    between atoms: C17_21  and  C18_22 
REMARK    5  A    between atoms: C18_22  and  C19_23 
REMARK    6  A    between atoms: C19_23  and  S1_24 
REMARK    7  A    between atoms: S1_24  and  S2_25 
REMARK    8  A    between atoms: S2_25  and  C20_26 
ROOT
ATOM      1  C1  NON d   1     -37.654  27.159  -1.685  0.00  0.00     0.042 C 
ATOM      2  C2  NON d   1     -38.965  26.445  -1.894  0.00  0.00     0.167 C 
ATOM      3  N1  NON d   1     -39.009  25.407  -2.923  0.00  0.00    -0.346 N 
ATOM      4  C3  NON d   1     -38.185  25.081  -4.001  0.00  0.00     0.247 C 
ATOM      5  O1  NON d   1     -37.132  25.635  -4.273  0.00  0.00    -0.271 OA
ATOM      6  C4  NON d   1     -38.888  23.957  -4.852  0.00  0.00     0.121 C 
ATOM      7  C5  NON d   1     -38.092  23.195  -5.929  0.00  0.00     0.080 C 
ATOM      8  C6  NON d   1     -38.617  23.746  -7.220  0.00  0.00    -0.049 C 
ATOM      9  C7  NON d   1     -38.249  23.390  -8.509  0.00  0.00     0.007 C 
ATOM     10  C8  NON d   1     -38.792  24.105  -9.580  0.00  0.00     0.001 C 
ATOM     11  C9  NON d   1     -39.665  25.176  -9.349  0.00  0.00     0.001 C 
ATOM     12  C10 NON d   1     -40.087  25.476  -8.052  0.00  0.00     0.007 C 
ATOM     13  C11 NON d   1     -39.594  24.712  -7.004  0.00  0.00    -0.049 C 
ATOM     14  C12 NON d   1     -40.041  24.720  -5.574  0.00  0.00     0.080 C 
ATOM     15  N2  NON d   1     -39.236  23.041  -3.733  0.00  0.00    -0.341 N 
ATOM     16  C13 NON d   1     -40.282  22.169  -3.569  0.00  0.00     0.241 C 
ATOM     17  O2  NON d   1     -41.074  21.879  -4.456  0.00  0.00    -0.271 OA
ATOM     18  C14 NON d   1     -40.317  21.569  -2.122  0.00  0.00     0.176 C 
ATOM     19  N4  NON d   1     -39.564  22.504  -1.241  0.00  0.00    -0.346 N 
ATOM     20  C25 NON d   1     -39.627  22.442   0.135  0.00  0.00     0.236 C 
ATOM     21  O3  NON d   1     -39.924  21.415   0.739  0.00  0.00    -0.272 OA
ATOM     22  C26 NON d   1     -39.483  23.807   0.873  0.00  0.00     0.158 C 
ATOM     23  C27 NON d   1     -38.656  23.649   2.148  0.00  0.00     0.031 C 
ATOM     24  C28 NON d   1     -38.347  25.096   2.487  0.00  0.00     0.017 C 
ATOM     25  C29 NON d   1     -38.017  25.689   1.119  0.00  0.00     0.099 C 
ATOM     26  N5  NON d   1     -38.857  24.959   0.169  0.00  0.00    -0.238 NA
ATOM     27  C30 NON d   1     -39.649  25.714  -0.697  0.00  0.00     0.223 C 
ATOM     28  O4  NON d   1     -40.869  25.513  -0.750  0.00  0.00    -0.277 OA
ATOM     29  H5  NON d   1     -39.918  24.954  -2.969  0.00  0.00     0.163 HD
ATOM     30  H14 NON d   1     -38.471  22.878  -3.081  0.00  0.00     0.163 HD
ATOM     31  H30 NON d   1     -39.541  23.460  -1.568  0.00  0.00     0.163 HD
ENDROOT
BRANCH  18  32
ATOM     32  C15 NON d   1     -39.811  20.115  -2.089  0.00  0.00     0.035 C 
BRANCH  32  33
ATOM     33  C16 NON d   1     -40.124  19.402  -3.416  0.00  0.00     0.002 C 
BRANCH  33  34
ATOM     34  C17 NON d   1     -41.202  18.311  -3.335  0.00  0.00     0.001 C 
BRANCH  34  35
ATOM     35  C18 NON d   1     -41.550  17.698  -4.698  0.00  0.00     0.011 C 
BRANCH  35  36
ATOM     36  C19 NON d   1     -43.025  17.312  -4.864  0.00  0.00     0.086 C 
BRANCH  36  37
ATOM     37  S1  NON d   1     -44.164  18.736  -4.866  0.00  0.00    -0.091 SA
BRANCH  37  38
ATOM     38  S2  NON d   1     -45.631  18.140  -6.183  0.00  0.00    -0.038 SA
BRANCH  38  39
ATOM     39  C20 NON d   1     -46.590  16.946  -5.257  0.00  0.00     0.103 A 
ATOM     40  C21 NON d   1     -46.390  16.870  -3.875  0.00  0.00     0.040 A 
ATOM     41  C22 NON d   1     -47.108  15.921  -3.153  0.00  0.00     0.004 A 
ATOM     42  C23 NON d   1     -48.004  15.092  -3.811  0.00  0.00     0.019 A 
ATOM     43  C24 NON d   1     -48.133  15.236  -5.182  0.00  0.00     0.118 A 
ATOM     44  N3  NON d   1     -47.441  16.132  -5.917  0.00  0.00    -0.253 NA
ENDBRANCH  38  39
ENDBRANCH  37  38
ENDBRANCH  36  37
ENDBRANCH  35  36
ENDBRANCH  34  35
ENDBRANCH  33  34
ENDBRANCH  32  33
ENDBRANCH  18  32
TORSDOF 8
ENDMDL
MODEL 6
REMARK VINA RESULT:   -34.584      2.586      7.060
REMARK INTER + INTRA:         -37.773
REMARK INTER:                 -36.971
REMARK INTRA:                  -0.802
REMARK CONF_INDEPENDENT:        2.386
REMARK UNBOUND:                -0.802
REMARK  8 active torsions:
REMARK  status: ('A' for Active; 'I' for Inactive)
REMARK    1  A    between atoms: C14_18  and  C15_19 
REMARK    2  A    between atoms: C15_19  and  C16_20 
REMARK    3  A    between atoms: C16_20  and  C17_21 
REMARK    4  A    between atoms: C17_21  and  C18_22 
REMARK    5  A    between atoms: C18_22  and  C19_23 
REMARK    6  A    between atoms: C19_23  and  S1_24 
REMARK    7  A    between atoms: S1_24  and  S2_25 
REMARK    8  A    between atoms: S2_25  and  C20_26 
ROOT
ATOM      1  C1  NON d   1     -37.574  26.659  -6.141  0.00  0.00     0.042 C 
ATOM      2  C2  NON d   1     -38.841  25.843  -6.152  0.00  0.00     0.167 C 
ATOM      3  N1  NON d   1     -38.962  24.802  -7.172  0.00  0.00    -0.346 N 
ATOM      4  C3  NON d   1     -38.293  24.540  -8.368  0.00  0.00     0.247 C 
ATOM      5  O1  NON d   1     -37.343  25.176  -8.795  0.00  0.00    -0.271 OA
ATOM      6  C4  NON d   1     -39.028  23.362  -9.110  0.00  0.00     0.121 C 
ATOM      7  C5  NON d   1     -38.352  22.663 -10.306  0.00  0.00     0.080 C 
ATOM      8  C6  NON d   1     -39.113  23.168 -11.494  0.00  0.00    -0.049 C 
ATOM      9  C7  NON d   1     -38.924  22.839 -12.828  0.00  0.00     0.007 C 
ATOM     10  C8  NON d   1     -39.682  23.506 -13.794  0.00  0.00     0.001 C 
ATOM     11  C9  NON d   1     -40.591  24.505 -13.419  0.00  0.00     0.001 C 
ATOM     12  C10 NON d   1     -40.828  24.772 -12.070  0.00  0.00     0.007 C 
ATOM     13  C11 NON d   1     -40.119  24.053 -11.119  0.00  0.00    -0.049 C 
ATOM     14  C12 NON d   1     -40.337  24.028  -9.637  0.00  0.00     0.080 C 
ATOM     15  N2  NON d   1     -39.124  22.424  -7.960  0.00  0.00    -0.341 N 
ATOM     16  C13 NON d   1     -40.059  21.471  -7.645  0.00  0.00     0.241 C 
ATOM     17  O2  NON d   1     -40.953  21.117  -8.401  0.00  0.00    -0.271 OA
ATOM     18  C14 NON d   1     -39.820  20.874  -6.216  0.00  0.00     0.176 C 
ATOM     19  N4  NON d   1     -39.015  21.868  -5.453  0.00  0.00    -0.346 N 
ATOM     20  C25 NON d   1     -38.859  21.804  -4.085  0.00  0.00     0.236 C 
ATOM     21  O3  NON d   1     -38.975  20.758  -3.453  0.00  0.00    -0.272 OA
ATOM     22  C26 NON d   1     -38.710  23.178  -3.364  0.00  0.00     0.158 C 
ATOM     23  C27 NON d   1     -37.685  23.090  -2.235  0.00  0.00     0.031 C 
ATOM     24  C28 NON d   1     -37.442  24.557  -1.934  0.00  0.00     0.017 C 
ATOM     25  C29 NON d   1     -37.378  25.172  -3.331  0.00  0.00     0.099 C 
ATOM     26  N5  NON d   1     -38.295  24.374  -4.146  0.00  0.00    -0.238 NA
ATOM     27  C30 NON d   1     -39.270  25.062  -4.870  0.00  0.00     0.223 C 
ATOM     28  O4  NON d   1     -40.463  24.764  -4.735  0.00  0.00    -0.277 OA
ATOM     29  H5  NON d   1     -39.828  24.278  -7.080  0.00  0.00     0.163 HD
ATOM     30  H14 NON d   1     -38.256  22.324  -7.437  0.00  0.00     0.163 HD
ATOM     31  H30 NON d   1     -39.120  22.822  -5.771  0.00  0.00     0.163 HD
ENDROOT
BRANCH  18  32
ATOM     32  C15 NON d   1     -39.201  19.464  -6.277  0.00  0.00     0.035 C 
BRANCH  32  33
ATOM     33  C16 NON d   1     -40.220  18.448  -6.820  0.00  0.00     0.002 C 
BRANCH  33  34
ATOM     34  C17 NON d   1     -41.161  17.840  -5.769  0.00  0.00     0.001 C 
BRANCH  34  35
ATOM     35  C18 NON d   1     -41.406  18.761  -4.567  0.00  0.00     0.011 C 
BRANCH  35  36
ATOM     36  C19 NON d   1     -42.834  18.711  -4.008  0.00  0.00     0.086 C 
BRANCH  36  37
ATOM     37  S1  NON d   1     -43.684  17.124  -4.300  0.00  0.00    -0.091 SA
BRANCH  37  38
ATOM     38  S2  NON d   1     -45.219  17.659  -5.566  0.00  0.00    -0.038 SA
BRANCH  38  39
ATOM     39  C20 NON d   1     -46.615  16.700  -4.987  0.00  0.00     0.103 A 
ATOM     40  C21 NON d   1     -46.778  16.539  -3.607  0.00  0.00     0.040 A 
ATOM     41  C22 NON d   1     -47.842  15.767  -3.152  0.00  0.00     0.004 A 
ATOM     42  C23 NON d   1     -48.714  15.193  -4.064  0.00  0.00     0.019 A 
ATOM     43  C24 NON d   1     -48.471  15.403  -5.412  0.00  0.00     0.118 A 
ATOM     44  N3  NON d   1     -47.440  16.130  -5.891  0.00  0.00    -0.253 NA
ENDBRANCH  38  39
ENDBRANCH  37  38
ENDBRANCH  36  37
ENDBRANCH  35  36
ENDBRANCH  34  35
ENDBRANCH  33  34
ENDBRANCH  32  33
ENDBRANCH  18  32
TORSDOF 8
ENDMDL
MODEL 7
REMARK VINA RESULT:   -33.614      2.096      6.176
REMARK INTER + INTRA:         -36.865
REMARK INTER:                 -36.000
REMARK INTRA:                  -0.865
REMARK CONF_INDEPENDENT:        2.386
REMARK UNBOUND:                -0.865
REMARK  8 active torsions:
REMARK  status: ('A' for Active; 'I' for Inactive)
REMARK    1  A    between atoms: C14_18  and  C15_19 
REMARK    2  A    between atoms: C15_19  and  C16_20 
REMARK    3  A    between atoms: C16_20  and  C17_21 
REMARK    4  A    between atoms: C17_21  and  C18_22 
REMARK    5  A    between atoms: C18_22  and  C19_23 
REMARK    6  A    between atoms: C19_23  and  S1_24 
REMARK    7  A    between atoms: S1_24  and  S2_25 
REMARK    8  A    between atoms: S2_25  and  C20_26 
ROOT
ATOM      1  C1  NON d   1     -37.663  26.475  -2.401  0.00  0.00     0.042 C 
ATOM      2  C2  NON d   1     -38.860  25.879  -3.096  0.00  0.00     0.167 C 
ATOM      3  N1  NON d   1     -38.615  25.110  -4.316  0.00  0.00    -0.346 N 
ATOM      4  C3  NON d   1     -37.536  25.012  -5.195  0.00  0.00     0.247 C 
ATOM      5  O1  NON d   1     -36.462  25.575  -5.054  0.00  0.00    -0.271 OA
ATOM      6  C4  NON d   1     -37.972  24.144  -6.434  0.00  0.00     0.121 C 
ATOM      7  C5  NON d   1     -36.911  23.623  -7.423  0.00  0.00     0.080 C 
ATOM      8  C6  NON d   1     -37.101  24.478  -8.638  0.00  0.00    -0.049 C 
ATOM      9  C7  NON d   1     -36.408  24.417  -9.838  0.00  0.00     0.007 C 
ATOM     10  C8  NON d   1     -36.677  25.380 -10.814  0.00  0.00     0.001 C 
ATOM     11  C9  NON d   1     -37.606  26.401 -10.568  0.00  0.00     0.001 C 
ATOM     12  C10 NON d   1     -38.351  26.408  -9.387  0.00  0.00     0.007 C 
ATOM     13  C11 NON d   1     -38.124  25.403  -8.457  0.00  0.00    -0.049 C 
ATOM     14  C12 NON d   1     -38.921  25.097  -7.227  0.00  0.00     0.080 C 
ATOM     15  N2  NON d   1     -38.573  23.008  -5.687  0.00  0.00    -0.341 N 
ATOM     16  C13 NON d   1     -39.606  22.161  -6.002  0.00  0.00     0.241 C 
ATOM     17  O2  NON d   1     -40.137  22.115  -7.103  0.00  0.00    -0.271 OA
ATOM     18  C14 NON d   1     -39.994  21.244  -4.792  0.00  0.00     0.176 C 
ATOM     19  N4  NON d   1     -39.513  21.919  -3.556  0.00  0.00    -0.346 N 
ATOM     20  C25 NON d   1     -39.924  21.543  -2.295  0.00  0.00     0.236 C 
ATOM     21  O3  NON d   1     -40.341  20.415  -2.044  0.00  0.00    -0.272 OA
ATOM     22  C26 NON d   1     -40.005  22.693  -1.247  0.00  0.00     0.158 C 
ATOM     23  C27 NON d   1     -39.527  22.212   0.123  0.00  0.00     0.031 C 
ATOM     24  C28 NON d   1     -39.349  23.529   0.858  0.00  0.00     0.017 C 
ATOM     25  C29 NON d   1     -38.695  24.410  -0.205  0.00  0.00     0.099 C 
ATOM     26  N5  NON d   1     -39.248  23.952  -1.480  0.00  0.00    -0.238 NA
ATOM     27  C30 NON d   1     -39.810  24.917  -2.317  0.00  0.00     0.223 C 
ATOM     28  O4  NON d   1     -40.971  24.780  -2.723  0.00  0.00    -0.277 OA
ATOM     29  H5  NON d   1     -39.472  24.716  -4.695  0.00  0.00     0.163 HD
ATOM     30  H14 NON d   1     -37.996  22.669  -4.919  0.00  0.00     0.163 HD
ATOM     31  H30 NON d   1     -39.430  22.924  -3.634  0.00  0.00     0.163 HD
ENDROOT
BRANCH  18  32
ATOM     32  C15 NON d   1     -39.479  19.803  -4.974  0.00  0.00     0.035 C 
BRANCH  32  33
ATOM     33  C16 NON d   1     -40.496  18.959  -5.762  0.00  0.00     0.002 C 
BRANCH  33  34
ATOM     34  C17 NON d   1     -41.881  18.828  -5.112  0.00  0.00     0.001 C 
BRANCH  34  35
ATOM     35  C18 NON d   1     -41.853  18.101  -3.761  0.00  0.00     0.011 C 
BRANCH  35  36
ATOM     36  C19 NON d   1     -42.993  17.096  -3.556  0.00  0.00     0.086 C 
BRANCH  36  37
ATOM     37  S1  NON d   1     -43.688  16.442  -5.109  0.00  0.00    -0.091 SA
BRANCH  37  38
ATOM     38  S2  NON d   1     -45.262  17.719  -5.474  0.00  0.00    -0.038 SA
BRANCH  38  39
ATOM     39  C20 NON d   1     -46.699  16.810  -4.913  0.00  0.00     0.103 A 
ATOM     40  C21 NON d   1     -46.980  16.802  -3.543  0.00  0.00     0.040 A 
ATOM     41  C22 NON d   1     -48.076  16.071  -3.096  0.00  0.00     0.004 A 
ATOM     42  C23 NON d   1     -48.863  15.386  -4.010  0.00  0.00     0.019 A 
ATOM     43  C24 NON d   1     -48.505  15.447  -5.346  0.00  0.00     0.118 A 
ATOM     44  N3  NON d   1     -47.440  16.131  -5.814  0.00  0.00    -0.253 NA
ENDBRANCH  38  39
ENDBRANCH  37  38
ENDBRANCH  36  37
ENDBRANCH  35  36
ENDBRANCH  34  35
ENDBRANCH  33  34
ENDBRANCH  32  33
ENDBRANCH  18  32
TORSDOF 8
ENDMDL
