MODEL 1
REMARK VINA RESULT:   -20.504      0.000      0.000
REMARK INTER + INTRA:         -23.694
REMARK INTER:                 -22.592
REMARK INTRA:                  -1.102
REMARK CONF_INDEPENDENT:        2.088
REMARK UNBOUND:                -1.102
REMARK  7 active torsions:
REMARK  status: ('A' for Active; 'I' for Inactive)
REMARK    1  A    between atoms: C2_2  and  N1_3 
REMARK    2  A    between atoms: N1_3  and  C3_4 
REMARK    3  A    between atoms: C3_4  and  S2_6 
REMARK    4  A    between atoms: S2_6  and  C4_7 
REMARK    5  A    between atoms: C4_7  and  C5_8 
REMARK    6  A    between atoms: C5_8  and  C6_10 
REMARK    7  A    between atoms: C9_13  and  N2_14 
REMARK       I    between atoms: N2_14  and  C10_15 
ROOT
ATOM      1  C6  NON d   1     -42.324  17.819  -4.225  0.00  0.00     0.011 A 
ATOM      2  C7  NON d   1     -42.177  17.733  -2.834  0.00  0.00     0.017 A 
ATOM      3  C8  NON d   1     -40.988  18.141  -2.211  0.00  0.00     0.030 A 
ATOM      4  C9  NON d   1     -39.919  18.638  -2.963  0.00  0.00     0.034 A 
ATOM      5  C12 NON d   1     -40.066  18.727  -4.349  0.00  0.00     0.030 A 
ATOM      6  C13 NON d   1     -41.257  18.323  -4.977  0.00  0.00     0.017 A 
ENDROOT
BRANCH   1   7
ATOM      7  C5  NON d   1     -43.622  17.371  -4.844  0.00  0.00     0.169 C 
ATOM      8  O1  NON d   1     -43.769  16.178  -5.095  0.00  0.00    -0.291 OA
BRANCH   7   9
ATOM      9  C4  NON d   1     -44.682  18.430  -5.107  0.00  0.00     0.165 C 
BRANCH   9  10
ATOM     10  S2  NON d   1     -46.052  17.859  -6.176  0.00  0.00    -0.093 SA
BRANCH  10  11
ATOM     11  C3  NON d   1     -46.777  16.569  -5.219  0.00  0.00     0.134 C 
ATOM     12  S1  NON d   1     -47.804  15.380  -5.814  0.00  0.00    -0.053 SA
BRANCH  11  13
ATOM     13  N1  NON d   1     -46.378  16.675  -3.889  0.00  0.00    -0.376 N 
ATOM     14  H6  NON d   1     -45.380  16.725  -3.718  0.00  0.00     0.160 HD
BRANCH  13  15
ATOM     15  C2  NON d   1     -47.317  17.010  -2.833  0.00  0.00     0.116 C 
ATOM     16  C1  NON d   1     -48.721  16.382  -2.768  0.00  0.00     0.026 C 
ENDBRANCH  13  15
ENDBRANCH  11  13
ENDBRANCH  10  11
ENDBRANCH   9  10
ENDBRANCH   7   9
ENDBRANCH   1   7
BRANCH   4  17
ATOM     17  N2  NON d   1     -38.758  19.034  -2.263  0.00  0.00    -0.328 N 
ATOM     18  C10 NON d   1     -37.442  18.897  -2.666  0.00  0.00     0.218 C 
ATOM     19  C11 NON d   1     -36.453  19.496  -1.695  0.00  0.00     0.117 C 
ATOM     20  O2  NON d   1     -37.046  18.346  -3.688  0.00  0.00    -0.274 OA
ATOM     21  H11 NON d   1     -38.916  19.445  -1.351  0.00  0.00     0.169 HD
ENDBRANCH   4  17
TORSDOF 7
ENDMDL
MODEL 2
REMARK VINA RESULT:   -20.458      0.292      1.138
REMARK INTER + INTRA:         -23.529
REMARK INTER:                 -22.546
REMARK INTRA:                  -0.983
REMARK CONF_INDEPENDENT:        2.088
REMARK UNBOUND:                -0.983
REMARK  7 active torsions:
REMARK  status: ('A' for Active; 'I' for Inactive)
REMARK    1  A    between atoms: C2_2  and  N1_3 
REMARK    2  A    between atoms: N1_3  and  C3_4 
REMARK    3  A    between atoms: C3_4  and  S2_6 
REMARK    4  A    between atoms: S2_6  and  C4_7 
REMARK    5  A    between atoms: C4_7  and  C5_8 
REMARK    6  A    between atoms: C5_8  and  C6_10 
REMARK    7  A    between atoms: C9_13  and  N2_14 
REMARK       I    between atoms: N2_14  and  C10_15 
ROOT
ATOM      1  C6  NON d   1     -42.432  17.844  -4.092  0.00  0.00     0.011 A 
ATOM      2  C7  NON d   1     -41.431  18.444  -4.868  0.00  0.00     0.017 A 
ATOM      3  C8  NON d   1     -40.227  18.868  -4.285  0.00  0.00     0.030 A 
ATOM      4  C9  NON d   1     -39.999  18.707  -2.915  0.00  0.00     0.034 A 
ATOM      5  C12 NON d   1     -40.995  18.105  -2.141  0.00  0.00     0.030 A 
ATOM      6  C13 NON d   1     -42.200  17.676  -2.723  0.00  0.00     0.017 A 
ENDROOT
BRANCH   1   7
ATOM      7  C5  NON d   1     -43.703  17.403  -4.768  0.00  0.00     0.169 C 
ATOM      8  O1  NON d   1     -43.859  16.206  -4.996  0.00  0.00    -0.291 OA
BRANCH   7   9
ATOM      9  C4  NON d   1     -44.727  18.473  -5.116  0.00  0.00     0.165 C 
BRANCH   9  10
ATOM     10  S2  NON d   1     -46.088  17.879  -6.185  0.00  0.00    -0.093 SA
BRANCH  10  11
ATOM     11  C3  NON d   1     -46.803  16.590  -5.220  0.00  0.00     0.134 C 
ATOM     12  S1  NON d   1     -47.809  15.381  -5.810  0.00  0.00    -0.053 SA
BRANCH  11  13
ATOM     13  N1  NON d   1     -46.419  16.718  -3.888  0.00  0.00    -0.376 N 
ATOM     14  H6  NON d   1     -45.429  16.853  -3.713  0.00  0.00     0.160 HD
BRANCH  13  15
ATOM     15  C2  NON d   1     -47.386  16.960  -2.832  0.00  0.00     0.116 C 
ATOM     16  C1  NON d   1     -48.741  16.230  -2.792  0.00  0.00     0.026 C 
ENDBRANCH  13  15
ENDBRANCH  11  13
ENDBRANCH  10  11
ENDBRANCH   9  10
ENDBRANCH   7   9
ENDBRANCH   1   7
BRANCH   4  17
ATOM     17  N2  NON d   1     -38.761  19.153  -2.403  0.00  0.00    -0.328 N 
ATOM     18  C10 NON d   1     -37.553  19.237  -3.072  0.00  0.00     0.218 C 
ATOM     19  C11 NON d   1     -36.445  19.826  -2.233  0.00  0.00     0.117 C 
ATOM     20  O2  NON d   1     -37.330  18.875  -4.223  0.00  0.00    -0.274 OA
ATOM     21  H11 NON d   1     -38.762  19.422  -1.427  0.00  0.00     0.169 HD
ENDBRANCH   4  17
TORSDOF 7
ENDMDL
MODEL 3
REMARK VINA RESULT:   -19.668      2.290      2.867
REMARK INTER + INTRA:         -22.872
REMARK INTER:                 -21.756
REMARK INTRA:                  -1.116
REMARK CONF_INDEPENDENT:        2.088
REMARK UNBOUND:                -1.116
REMARK  7 active torsions:
REMARK  status: ('A' for Active; 'I' for Inactive)
REMARK    1  A    between atoms: C2_2  and  N1_3 
REMARK    2  A    between atoms: N1_3  and  C3_4 
REMARK    3  A    between atoms: C3_4  and  S2_6 
REMARK    4  A    between atoms: S2_6  and  C4_7 
REMARK    5  A    between atoms: C4_7  and  C5_8 
REMARK    6  A    between atoms: C5_8  and  C6_10 
REMARK    7  A    between atoms: C9_13  and  N2_14 
REMARK       I    between atoms: N2_14  and  C10_15 
ROOT
ATOM      1  C6  NON d   1     -42.270  18.170  -4.688  0.00  0.00     0.011 A 
ATOM      2  C7  NON d   1     -42.354  19.124  -5.709  0.00  0.00     0.017 A 
ATOM      3  C8  NON d   1     -41.195  19.699  -6.252  0.00  0.00     0.030 A 
ATOM      4  C9  NON d   1     -39.928  19.337  -5.783  0.00  0.00     0.034 A 
ATOM      5  C12 NON d   1     -39.844  18.382  -4.767  0.00  0.00     0.030 A 
ATOM      6  C13 NON d   1     -41.002  17.801  -4.224  0.00  0.00     0.017 A 
ENDROOT
BRANCH   1   7
ATOM      7  C5  NON d   1     -43.545  17.581  -4.142  0.00  0.00     0.169 C 
ATOM      8  O1  NON d   1     -43.476  16.539  -3.494  0.00  0.00    -0.291 OA
BRANCH   7   9
ATOM      9  C4  NON d   1     -44.842  18.324  -4.419  0.00  0.00     0.165 C 
BRANCH   9  10
ATOM     10  S2  NON d   1     -45.810  17.637  -5.811  0.00  0.00    -0.093 SA
BRANCH  10  11
ATOM     11  C3  NON d   1     -46.815  16.425  -5.022  0.00  0.00     0.134 C 
ATOM     12  S1  NON d   1     -47.857  15.367  -5.808  0.00  0.00    -0.053 SA
BRANCH  11  13
ATOM     13  N1  NON d   1     -46.627  16.468  -3.643  0.00  0.00    -0.376 N 
ATOM     14  H6  NON d   1     -45.674  16.592  -3.319  0.00  0.00     0.160 HD
BRANCH  13  15
ATOM     15  C2  NON d   1     -47.737  16.642  -2.724  0.00  0.00     0.116 C 
ATOM     16  C1  NON d   1     -49.043  15.839  -2.869  0.00  0.00     0.026 C 
ENDBRANCH  13  15
ENDBRANCH  11  13
ENDBRANCH  10  11
ENDBRANCH   9  10
ENDBRANCH   7   9
ENDBRANCH   1   7
BRANCH   4  17
ATOM     17  N2  NON d   1     -38.809  19.955  -6.384  0.00  0.00    -0.328 N 
ATOM     18  C10 NON d   1     -38.320  19.754  -7.662  0.00  0.00     0.218 C 
ATOM     19  C11 NON d   1     -37.143  20.637  -7.997  0.00  0.00     0.117 C 
ATOM     20  O2  NON d   1     -38.742  18.949  -8.486  0.00  0.00    -0.274 OA
ATOM     21  H11 NON d   1     -38.300  20.603  -5.796  0.00  0.00     0.169 HD
ENDBRANCH   4  17
TORSDOF 7
ENDMDL
MODEL 4
REMARK VINA RESULT:   -19.373      2.414      2.691
REMARK INTER + INTRA:         -21.724
REMARK INTER:                 -21.461
REMARK INTRA:                  -0.263
REMARK CONF_INDEPENDENT:        2.088
REMARK UNBOUND:                -0.263
REMARK  7 active torsions:
REMARK  status: ('A' for Active; 'I' for Inactive)
REMARK    1  A    between atoms: C2_2  and  N1_3 
REMARK    2  A    between atoms: N1_3  and  C3_4 
REMARK    3  A    between atoms: C3_4  and  S2_6 
REMARK    4  A    between atoms: S2_6  and  C4_7 
REMARK    5  A    between atoms: C4_7  and  C5_8 
REMARK    6  A    between atoms: C5_8  and  C6_10 
REMARK    7  A    between atoms: C9_13  and  N2_14 
REMARK       I    between atoms: N2_14  and  C10_15 
ROOT
ATOM      1  C6  NON d   1     -42.159  18.624  -4.637  0.00  0.00     0.011 A 
ATOM      2  C7  NON d   1     -41.965  19.642  -5.579  0.00  0.00     0.017 A 
ATOM      3  C8  NON d   1     -40.954  20.600  -5.404  0.00  0.00     0.030 A 
ATOM      4  C9  NON d   1     -40.120  20.564  -4.282  0.00  0.00     0.034 A 
ATOM      5  C12 NON d   1     -40.310  19.547  -3.344  0.00  0.00     0.030 A 
ATOM      6  C13 NON d   1     -41.319  18.583  -3.519  0.00  0.00     0.017 A 
ENDROOT
BRANCH   1   7
ATOM      7  C5  NON d   1     -43.255  17.619  -4.875  0.00  0.00     0.169 C 
ATOM      8  O1  NON d   1     -42.951  16.520  -5.333  0.00  0.00    -0.291 OA
BRANCH   7   9
ATOM      9  C4  NON d   1     -44.677  18.024  -4.517  0.00  0.00     0.165 C 
BRANCH   9  10
ATOM     10  S2  NON d   1     -45.909  17.632  -5.811  0.00  0.00    -0.093 SA
BRANCH  10  11
ATOM     11  C3  NON d   1     -46.931  16.434  -5.020  0.00  0.00     0.134 C 
ATOM     12  S1  NON d   1     -47.896  15.309  -5.811  0.00  0.00    -0.053 SA
BRANCH  11  13
ATOM     13  N1  NON d   1     -46.828  16.553  -3.636  0.00  0.00    -0.376 N 
ATOM     14  H6  NON d   1     -45.992  17.003  -3.281  0.00  0.00     0.160 HD
BRANCH  13  15
ATOM     15  C2  NON d   1     -47.969  16.341  -2.764  0.00  0.00     0.116 C 
ATOM     16  C1  NON d   1     -49.397  16.189  -3.319  0.00  0.00     0.026 C 
ENDBRANCH  13  15
ENDBRANCH  11  13
ENDBRANCH  10  11
ENDBRANCH   9  10
ENDBRANCH   7   9
ENDBRANCH   1   7
BRANCH   4  17
ATOM     17  N2  NON d   1     -39.123  21.559  -4.180  0.00  0.00    -0.328 N 
ATOM     18  C10 NON d   1     -39.293  22.931  -4.216  0.00  0.00     0.218 C 
ATOM     19  C11 NON d   1     -38.009  23.698  -4.008  0.00  0.00     0.117 C 
ATOM     20  O2  NON d   1     -40.346  23.530  -4.408  0.00  0.00    -0.274 OA
ATOM     21  H11 NON d   1     -38.173  21.218  -4.091  0.00  0.00     0.169 HD
ENDBRANCH   4  17
TORSDOF 7
ENDMDL
MODEL 5
REMARK VINA RESULT:   -19.170      1.635      1.704
REMARK INTER + INTRA:         -22.273
REMARK INTER:                 -21.258
REMARK INTRA:                  -1.015
REMARK CONF_INDEPENDENT:        2.088
REMARK UNBOUND:                -1.015
REMARK  7 active torsions:
REMARK  status: ('A' for Active; 'I' for Inactive)
REMARK    1  A    between atoms: C2_2  and  N1_3 
REMARK    2  A    between atoms: N1_3  and  C3_4 
REMARK    3  A    between atoms: C3_4  and  S2_6 
REMARK    4  A    between atoms: S2_6  and  C4_7 
REMARK    5  A    between atoms: C4_7  and  C5_8 
REMARK    6  A    between atoms: C5_8  and  C6_10 
REMARK    7  A    between atoms: C9_13  and  N2_14 
REMARK       I    between atoms: N2_14  and  C10_15 
ROOT
ATOM      1  C6  NON d   1     -42.182  18.087  -4.549  0.00  0.00     0.011 A 
ATOM      2  C7  NON d   1     -41.783  18.892  -3.474  0.00  0.00     0.017 A 
ATOM      3  C8  NON d   1     -40.573  19.602  -3.519  0.00  0.00     0.030 A 
ATOM      4  C9  NON d   1     -39.735  19.520  -4.636  0.00  0.00     0.034 A 
ATOM      5  C12 NON d   1     -40.135  18.721  -5.710  0.00  0.00     0.030 A 
ATOM      6  C13 NON d   1     -41.347  18.011  -5.670  0.00  0.00     0.017 A 
ENDROOT
BRANCH   1   7
ATOM      7  C5  NON d   1     -43.491  17.349  -4.452  0.00  0.00     0.169 C 
ATOM      8  O1  NON d   1     -43.464  16.127  -4.321  0.00  0.00    -0.291 OA
BRANCH   7   9
ATOM      9  C4  NON d   1     -44.771  18.168  -4.508  0.00  0.00     0.165 C 
BRANCH   9  10
ATOM     10  S2  NON d   1     -45.939  17.633  -5.810  0.00  0.00    -0.093 SA
BRANCH  10  11
ATOM     11  C3  NON d   1     -46.813  16.317  -5.029  0.00  0.00     0.134 C 
ATOM     12  S1  NON d   1     -47.817  15.220  -5.810  0.00  0.00    -0.053 SA
BRANCH  11  13
ATOM     13  N1  NON d   1     -46.555  16.316  -3.660  0.00  0.00    -0.376 N 
ATOM     14  H6  NON d   1     -45.580  16.286  -3.382  0.00  0.00     0.160 HD
BRANCH  13  15
ATOM     15  C2  NON d   1     -47.580  16.652  -2.688  0.00  0.00     0.116 C 
ATOM     16  C1  NON d   1     -49.074  16.669  -3.060  0.00  0.00     0.026 C 
ENDBRANCH  13  15
ENDBRANCH  11  13
ENDBRANCH  10  11
ENDBRANCH   9  10
ENDBRANCH   7   9
ENDBRANCH   1   7
BRANCH   4  17
ATOM     17  N2  NON d   1     -38.538  20.269  -4.609  0.00  0.00    -0.328 N 
ATOM     18  C10 NON d   1     -37.475  20.192  -5.490  0.00  0.00     0.218 C 
ATOM     19  C11 NON d   1     -36.383  21.194  -5.200  0.00  0.00     0.117 C 
ATOM     20  O2  NON d   1     -37.359  19.407  -6.426  0.00  0.00    -0.274 OA
ATOM     21  H11 NON d   1     -38.447  20.920  -3.839  0.00  0.00     0.169 HD
ENDBRANCH   4  17
TORSDOF 7
ENDMDL
MODEL 6
REMARK VINA RESULT:   -17.599      4.332     10.024
REMARK INTER + INTRA:         -20.815
REMARK INTER:                 -19.687
REMARK INTRA:                  -1.129
REMARK CONF_INDEPENDENT:        2.088
REMARK UNBOUND:                -1.129
REMARK  7 active torsions:
REMARK  status: ('A' for Active; 'I' for Inactive)
REMARK    1  A    between atoms: C2_2  and  N1_3 
REMARK    2  A    between atoms: N1_3  and  C3_4 
REMARK    3  A    between atoms: C3_4  and  S2_6 
REMARK    4  A    between atoms: S2_6  and  C4_7 
REMARK    5  A    between atoms: C4_7  and  C5_8 
REMARK    6  A    between atoms: C5_8  and  C6_10 
REMARK    7  A    between atoms: C9_13  and  N2_14 
REMARK       I    between atoms: N2_14  and  C10_15 
ROOT
ATOM      1  C6  NON d   1     -49.559  16.475  -2.280  0.00  0.00     0.011 A 
ATOM      2  C7  NON d   1     -50.834  16.474  -2.860  0.00  0.00     0.017 A 
ATOM      3  C8  NON d   1     -51.928  17.047  -2.193  0.00  0.00     0.030 A 
ATOM      4  C9  NON d   1     -51.772  17.628  -0.931  0.00  0.00     0.034 A 
ATOM      5  C12 NON d   1     -50.500  17.633  -0.353  0.00  0.00     0.030 A 
ATOM      6  C13 NON d   1     -49.402  17.064  -1.020  0.00  0.00     0.017 A 
ENDROOT
BRANCH   1   7
ATOM      7  C5  NON d   1     -48.419  15.850  -3.040  0.00  0.00     0.169 C 
ATOM      8  O1  NON d   1     -47.387  15.582  -2.429  0.00  0.00    -0.291 OA
BRANCH   7   9
ATOM      9  C4  NON d   1     -48.622  15.575  -4.521  0.00  0.00     0.165 C 
BRANCH   9  10
ATOM     10  S2  NON d   1     -47.071  15.264  -5.439  0.00  0.00    -0.093 SA
BRANCH  10  11
ATOM     11  C3  NON d   1     -46.133  16.721  -5.119  0.00  0.00     0.134 C 
ATOM     12  S1  NON d   1     -45.941  18.005  -6.185  0.00  0.00    -0.053 SA
BRANCH  11  13
ATOM     13  N1  NON d   1     -45.565  16.657  -3.849  0.00  0.00    -0.376 N 
ATOM     14  H6  NON d   1     -45.986  16.004  -3.197  0.00  0.00     0.160 HD
BRANCH  13  15
ATOM     15  C2  NON d   1     -44.269  17.243  -3.560  0.00  0.00     0.116 C 
ATOM     16  C1  NON d   1     -43.089  17.124  -4.541  0.00  0.00     0.026 C 
ENDBRANCH  13  15
ENDBRANCH  11  13
ENDBRANCH  10  11
ENDBRANCH   9  10
ENDBRANCH   7   9
ENDBRANCH   1   7
BRANCH   4  17
ATOM     17  N2  NON d   1     -52.918  18.190  -0.326  0.00  0.00    -0.328 N 
ATOM     18  C10 NON d   1     -54.229  18.098  -0.757  0.00  0.00     0.218 C 
ATOM     19  C11 NON d   1     -55.213  18.765   0.175  0.00  0.00     0.117 C 
ATOM     20  O2  NON d   1     -54.623  17.557  -1.785  0.00  0.00    -0.274 OA
ATOM     21  H11 NON d   1     -52.749  18.739   0.507  0.00  0.00     0.169 HD
ENDBRANCH   4  17
TORSDOF 7
ENDMDL
