MODEL 1
REMARK VINA RESULT:   -14.019      0.000      0.000
REMARK INTER + INTRA:         -17.557
REMARK INTER:                 -16.107
REMARK INTRA:                  -1.450
REMARK CONF_INDEPENDENT:        2.088
REMARK UNBOUND:                -1.450
REMARK  7 active torsions:
REMARK  status: ('A' for Active; 'I' for Inactive)
REMARK    1  A    between atoms: C2_2  and  C3_3 
REMARK    2  A    between atoms: C4_4  and  C5_5 
REMARK       I    between atoms: C5_5  and  N1_7 
REMARK    3  A    between atoms: N1_7  and  O2_8 
REMARK    4  A    between atoms: C7_10  and  C6_9 
REMARK    5  A    between atoms: C7_10  and  C9_12 
REMARK    6  A    between atoms: C9_12  and  C10_14 
REMARK    7  A    between atoms: C13_17  and  N2_18 
ROOT
ATOM      1  C7  NON d   1     -40.448  19.529  -4.116  0.00  0.00     0.079 C 
ATOM      2  C8  NON d   1     -39.848  19.568  -2.698  0.00  0.00     0.022 C 
ENDROOT
BRANCH   1   3
ATOM      3  C6  NON d   1     -41.849  19.203  -4.683  0.00  0.00    -0.008 C 
ATOM      4  C2  NON d   1     -42.665  18.189  -4.307  0.00  0.00    -0.065 C 
ATOM      5  C1  NON d   1     -42.350  17.237  -3.175  0.00  0.00     0.048 C 
BRANCH   4   6
ATOM      6  C3  NON d   1     -43.925  17.967  -5.019  0.00  0.00     0.012 C 
ATOM      7  C4  NON d   1     -44.936  17.202  -4.582  0.00  0.00     0.076 C 
BRANCH   7   8
ATOM      8  C5  NON d   1     -46.129  16.971  -5.434  0.00  0.00     0.264 C 
ATOM      9  O1  NON d   1     -46.542  17.779  -6.255  0.00  0.00    -0.266 OA
ATOM     10  N1  NON d   1     -46.690  15.732  -5.259  0.00  0.00    -0.234 N 
ATOM     11  H6  NON d   1     -46.316  14.994  -4.675  0.00  0.00     0.197 HD
BRANCH  10  12
ATOM     12  O2  NON d   1     -47.716  15.380  -6.162  0.00  0.00    -0.287 OA
ATOM     13  H7  NON d   1     -47.731  16.153  -6.769  0.00  0.00     0.244 HD
ENDBRANCH  10  12
ENDBRANCH   7   8
ENDBRANCH   4   6
ENDBRANCH   1   3
BRANCH   1  14
ATOM     14  C9  NON d   1     -39.528  19.337  -5.337  0.00  0.00     0.166 C 
ATOM     15  O3  NON d   1     -38.557  18.581  -5.409  0.00  0.00    -0.292 OA
BRANCH  14  16
ATOM     16  C10 NON d   1     -39.684  20.325  -6.678  0.00  0.00     0.011 A 
ATOM     17  C11 NON d   1     -39.468  19.811  -7.973  0.00  0.00     0.017 A 
ATOM     18  C12 NON d   1     -39.473  20.633  -9.192  0.00  0.00     0.030 A 
ATOM     19  C13 NON d   1     -39.656  22.036  -9.216  0.00  0.00     0.029 A 
ATOM     20  C16 NON d   1     -39.930  22.535  -7.929  0.00  0.00     0.030 A 
ATOM     21  C17 NON d   1     -39.996  21.705  -6.717  0.00  0.00     0.017 A 
BRANCH  19  22
ATOM     22  N2  NON d   1     -39.594  22.841 -10.403  0.00  0.00    -0.390 N 
ATOM     23  C14 NON d   1     -39.921  24.253 -10.307  0.00  0.00     0.149 C 
ATOM     24  C15 NON d   1     -39.155  22.232 -11.748  0.00  0.00     0.149 C 
ENDBRANCH  19  22
ENDBRANCH  14  16
ENDBRANCH   1  14
TORSDOF 7
ENDMDL
MODEL 2
REMARK VINA RESULT:   -14.014      3.864      5.786
REMARK INTER + INTRA:         -17.556
REMARK INTER:                 -16.102
REMARK INTRA:                  -1.454
REMARK CONF_INDEPENDENT:        2.088
REMARK UNBOUND:                -1.454
REMARK  7 active torsions:
REMARK  status: ('A' for Active; 'I' for Inactive)
REMARK    1  A    between atoms: C2_2  and  C3_3 
REMARK    2  A    between atoms: C4_4  and  C5_5 
REMARK       I    between atoms: C5_5  and  N1_7 
REMARK    3  A    between atoms: N1_7  and  O2_8 
REMARK    4  A    between atoms: C7_10  and  C6_9 
REMARK    5  A    between atoms: C7_10  and  C9_12 
REMARK    6  A    between atoms: C9_12  and  C10_14 
REMARK    7  A    between atoms: C13_17  and  N2_18 
ROOT
ATOM      1  C7  NON d   1     -40.370  19.571  -4.361  0.00  0.00     0.079 C 
ATOM      2  C8  NON d   1     -39.077  18.743  -4.236  0.00  0.00     0.022 C 
ENDROOT
BRANCH   1   3
ATOM      3  C6  NON d   1     -41.812  19.252  -4.819  0.00  0.00    -0.008 C 
ATOM      4  C2  NON d   1     -42.676  18.382  -4.243  0.00  0.00    -0.065 C 
ATOM      5  C1  NON d   1     -42.377  17.627  -2.968  0.00  0.00     0.048 C 
BRANCH   4   6
ATOM      6  C3  NON d   1     -43.976  18.129  -4.866  0.00  0.00     0.012 C 
ATOM      7  C4  NON d   1     -44.795  17.112  -4.562  0.00  0.00     0.076 C 
BRANCH   7   8
ATOM      8  C5  NON d   1     -46.048  16.897  -5.328  0.00  0.00     0.264 C 
ATOM      9  O1  NON d   1     -46.442  17.650  -6.208  0.00  0.00    -0.266 OA
ATOM     10  N1  NON d   1     -46.694  15.733  -4.998  0.00  0.00    -0.234 N 
ATOM     11  H6  NON d   1     -46.347  15.029  -4.359  0.00  0.00     0.197 HD
BRANCH  10  12
ATOM     12  O2  NON d   1     -47.793  15.380  -5.810  0.00  0.00    -0.287 OA
ATOM     13  H7  NON d   1     -47.702  16.004  -6.564  0.00  0.00     0.244 HD
ENDBRANCH  10  12
ENDBRANCH   7   8
ENDBRANCH   4   6
ENDBRANCH   1   3
BRANCH   1  14
ATOM     14  C9  NON d   1     -40.293  21.103  -4.504  0.00  0.00     0.166 C 
ATOM     15  O3  NON d   1     -40.024  21.728  -5.531  0.00  0.00    -0.292 OA
BRANCH  14  16
ATOM     16  C10 NON d   1     -40.408  22.086  -3.155  0.00  0.00     0.011 A 
ATOM     17  C11 NON d   1     -40.116  21.578  -1.874  0.00  0.00     0.017 A 
ATOM     18  C12 NON d   1     -40.300  22.339  -0.629  0.00  0.00     0.030 A 
ATOM     19  C13 NON d   1     -40.826  23.650  -0.558  0.00  0.00     0.029 A 
ATOM     20  C16 NON d   1     -41.061  24.174  -1.843  0.00  0.00     0.030 A 
ATOM     21  C17 NON d   1     -40.810  23.442  -3.093  0.00  0.00     0.017 A 
BRANCH  19  22
ATOM     22  N2  NON d   1     -41.065  24.362   0.665  0.00  0.00    -0.390 N 
ATOM     23  C14 NON d   1     -41.582  25.718   0.595  0.00  0.00     0.149 C 
ATOM     24  C15 NON d   1     -40.814  23.694   2.030  0.00  0.00     0.149 C 
ENDBRANCH  19  22
ENDBRANCH  14  16
ENDBRANCH   1  14
TORSDOF 7
ENDMDL
MODEL 3
REMARK VINA RESULT:   -13.919      0.346      1.278
REMARK INTER + INTRA:         -17.499
REMARK INTER:                 -16.007
REMARK INTRA:                  -1.492
REMARK CONF_INDEPENDENT:        2.088
REMARK UNBOUND:                -1.492
REMARK  7 active torsions:
REMARK  status: ('A' for Active; 'I' for Inactive)
REMARK    1  A    between atoms: C2_2  and  C3_3 
REMARK    2  A    between atoms: C4_4  and  C5_5 
REMARK       I    between atoms: C5_5  and  N1_7 
REMARK    3  A    between atoms: N1_7  and  O2_8 
REMARK    4  A    between atoms: C7_10  and  C6_9 
REMARK    5  A    between atoms: C7_10  and  C9_12 
REMARK    6  A    between atoms: C9_12  and  C10_14 
REMARK    7  A    between atoms: C13_17  and  N2_18 
ROOT
ATOM      1  C7  NON d   1     -40.667  19.877  -4.084  0.00  0.00     0.079 C 
ATOM      2  C8  NON d   1     -40.074  20.224  -2.705  0.00  0.00     0.022 C 
ENDROOT
BRANCH   1   3
ATOM      3  C6  NON d   1     -42.082  19.503  -4.584  0.00  0.00    -0.008 C 
ATOM      4  C2  NON d   1     -42.766  18.364  -4.318  0.00  0.00    -0.065 C 
ATOM      5  C1  NON d   1     -42.262  17.284  -3.388  0.00  0.00     0.048 C 
BRANCH   4   6
ATOM      6  C3  NON d   1     -44.063  18.130  -4.954  0.00  0.00     0.012 C 
ATOM      7  C4  NON d   1     -44.903  17.129  -4.652  0.00  0.00     0.076 C 
BRANCH   7   8
ATOM      8  C5  NON d   1     -46.151  16.932  -5.431  0.00  0.00     0.264 C 
ATOM      9  O1  NON d   1     -46.599  17.757  -6.216  0.00  0.00    -0.266 OA
ATOM     10  N1  NON d   1     -46.725  15.702  -5.235  0.00  0.00    -0.234 N 
ATOM     11  H6  NON d   1     -46.329  14.949  -4.684  0.00  0.00     0.197 HD
BRANCH  10  12
ATOM     12  O2  NON d   1     -47.811  15.380  -6.077  0.00  0.00    -0.287 OA
ATOM     13  H7  NON d   1     -47.748  16.074  -6.770  0.00  0.00     0.244 HD
ENDBRANCH  10  12
ENDBRANCH   7   8
ENDBRANCH   4   6
ENDBRANCH   1   3
BRANCH   1  14
ATOM     14  C9  NON d   1     -39.753  19.345  -5.203  0.00  0.00     0.166 C 
ATOM     15  O3  NON d   1     -38.983  18.386  -5.124  0.00  0.00    -0.292 OA
BRANCH  14  16
ATOM     16  C10 NON d   1     -39.602  20.182  -6.644  0.00  0.00     0.011 A 
ATOM     17  C11 NON d   1     -39.325  21.564  -6.642  0.00  0.00     0.017 A 
ATOM     18  C12 NON d   1     -39.289  22.395  -7.854  0.00  0.00     0.030 A 
ATOM     19  C13 NON d   1     -39.563  21.925  -9.160  0.00  0.00     0.029 A 
ATOM     20  C16 NON d   1     -39.782  20.535  -9.165  0.00  0.00     0.030 A 
ATOM     21  C17 NON d   1     -39.748  19.688  -7.963  0.00  0.00     0.017 A 
BRANCH  19  22
ATOM     22  N2  NON d   1     -39.591  22.755 -10.331  0.00  0.00    -0.390 N 
ATOM     23  C14 NON d   1     -39.103  22.210 -11.586  0.00  0.00     0.149 C 
ATOM     24  C15 NON d   1     -40.161  24.185 -10.271  0.00  0.00     0.149 C 
ENDBRANCH  19  22
ENDBRANCH  14  16
ENDBRANCH   1  14
TORSDOF 7
ENDMDL
MODEL 4
REMARK VINA RESULT:   -13.881      3.956      5.843
REMARK INTER + INTRA:         -17.409
REMARK INTER:                 -15.969
REMARK INTRA:                  -1.440
REMARK CONF_INDEPENDENT:        2.088
REMARK UNBOUND:                -1.440
REMARK  7 active torsions:
REMARK  status: ('A' for Active; 'I' for Inactive)
REMARK    1  A    between atoms: C2_2  and  C3_3 
REMARK    2  A    between atoms: C4_4  and  C5_5 
REMARK       I    between atoms: C5_5  and  N1_7 
REMARK    3  A    between atoms: N1_7  and  O2_8 
REMARK    4  A    between atoms: C7_10  and  C6_9 
REMARK    5  A    between atoms: C7_10  and  C9_12 
REMARK    6  A    between atoms: C9_12  and  C10_14 
REMARK    7  A    between atoms: C13_17  and  N2_18 
ROOT
ATOM      1  C7  NON d   1     -40.044  19.180  -4.149  0.00  0.00     0.079 C 
ATOM      2  C8  NON d   1     -38.728  18.420  -3.897  0.00  0.00     0.022 C 
ENDROOT
BRANCH   1   3
ATOM      3  C6  NON d   1     -41.392  18.808  -4.809  0.00  0.00    -0.008 C 
ATOM      4  C2  NON d   1     -42.398  18.087  -4.257  0.00  0.00    -0.065 C 
ATOM      5  C1  NON d   1     -42.385  17.591  -2.828  0.00  0.00     0.048 C 
BRANCH   4   6
ATOM      6  C3  NON d   1     -43.572  17.744  -5.060  0.00  0.00     0.012 C 
ATOM      7  C4  NON d   1     -44.826  17.642  -4.594  0.00  0.00     0.076 C 
BRANCH   7   8
ATOM      8  C5  NON d   1     -45.926  17.191  -5.482  0.00  0.00     0.264 C 
ATOM      9  O1  NON d   1     -46.336  17.839  -6.436  0.00  0.00    -0.266 OA
ATOM     10  N1  NON d   1     -46.400  15.943  -5.169  0.00  0.00    -0.234 N 
ATOM     11  H6  NON d   1     -46.016  15.328  -4.462  0.00  0.00     0.197 HD
BRANCH  10  12
ATOM     12  O2  NON d   1     -47.321  15.382  -6.079  0.00  0.00    -0.287 OA
ATOM     13  H7  NON d   1     -47.070  15.818  -6.923  0.00  0.00     0.244 HD
ENDBRANCH  10  12
ENDBRANCH   7   8
ENDBRANCH   4   6
ENDBRANCH   1   3
BRANCH   1  14
ATOM     14  C9  NON d   1     -40.046  20.720  -4.203  0.00  0.00     0.166 C 
ATOM     15  O3  NON d   1     -39.720  21.418  -5.165  0.00  0.00    -0.292 OA
BRANCH  14  16
ATOM     16  C10 NON d   1     -40.347  21.615  -2.821  0.00  0.00     0.011 A 
ATOM     17  C11 NON d   1     -40.940  22.890  -2.911  0.00  0.00     0.017 A 
ATOM     18  C12 NON d   1     -41.134  23.786  -1.762  0.00  0.00     0.030 A 
ATOM     19  C13 NON d   1     -40.719  23.501  -0.440  0.00  0.00     0.029 A 
ATOM     20  C16 NON d   1     -40.182  22.204  -0.344  0.00  0.00     0.030 A 
ATOM     21  C17 NON d   1     -40.052  21.277  -1.479  0.00  0.00     0.017 A 
BRANCH  19  22
ATOM     22  N2  NON d   1     -40.852  24.408   0.665  0.00  0.00    -0.390 N 
ATOM     23  C14 NON d   1     -40.715  23.889   2.015  0.00  0.00     0.149 C 
ATOM     24  C15 NON d   1     -41.100  25.910   0.428  0.00  0.00     0.149 C 
ENDBRANCH  19  22
ENDBRANCH  14  16
ENDBRANCH   1  14
TORSDOF 7
ENDMDL
MODEL 5
REMARK VINA RESULT:   -13.770      4.208      6.072
REMARK INTER + INTRA:         -17.271
REMARK INTER:                 -15.858
REMARK INTRA:                  -1.413
REMARK CONF_INDEPENDENT:        2.088
REMARK UNBOUND:                -1.413
REMARK  7 active torsions:
REMARK  status: ('A' for Active; 'I' for Inactive)
REMARK    1  A    between atoms: C2_2  and  C3_3 
REMARK    2  A    between atoms: C4_4  and  C5_5 
REMARK       I    between atoms: C5_5  and  N1_7 
REMARK    3  A    between atoms: N1_7  and  O2_8 
REMARK    4  A    between atoms: C7_10  and  C6_9 
REMARK    5  A    between atoms: C7_10  and  C9_12 
REMARK    6  A    between atoms: C9_12  and  C10_14 
REMARK    7  A    between atoms: C13_17  and  N2_18 
ROOT
ATOM      1  C7  NON d   1     -40.740  18.499  -2.639  0.00  0.00     0.079 C 
ATOM      2  C8  NON d   1     -39.667  17.558  -2.060  0.00  0.00     0.022 C 
ENDROOT
BRANCH   1   3
ATOM      3  C6  NON d   1     -42.138  18.283  -3.263  0.00  0.00    -0.008 C 
ATOM      4  C2  NON d   1     -42.426  18.084  -4.572  0.00  0.00    -0.065 C 
ATOM      5  C1  NON d   1     -41.372  17.957  -5.649  0.00  0.00     0.048 C 
BRANCH   4   6
ATOM      6  C3  NON d   1     -43.821  17.992  -5.005  0.00  0.00     0.012 C 
ATOM      7  C4  NON d   1     -44.590  16.898  -4.908  0.00  0.00     0.076 C 
BRANCH   7   8
ATOM      8  C5  NON d   1     -45.964  16.890  -5.470  0.00  0.00     0.264 C 
ATOM      9  O1  NON d   1     -46.409  17.777  -6.185  0.00  0.00    -0.266 OA
ATOM     10  N1  NON d   1     -46.670  15.756  -5.162  0.00  0.00    -0.234 N 
ATOM     11  H6  NON d   1     -46.304  14.950  -4.670  0.00  0.00     0.197 HD
BRANCH  10  12
ATOM     12  O2  NON d   1     -47.914  15.602  -5.810  0.00  0.00    -0.287 OA
ATOM     13  H7  NON d   1     -47.804  16.167  -6.607  0.00  0.00     0.244 HD
ENDBRANCH  10  12
ENDBRANCH   7   8
ENDBRANCH   4   6
ENDBRANCH   1   3
BRANCH   1  14
ATOM     14  C9  NON d   1     -40.342  19.893  -3.159  0.00  0.00     0.166 C 
ATOM     15  O3  NON d   1     -39.902  20.157  -4.279  0.00  0.00    -0.292 OA
BRANCH  14  16
ATOM     16  C10 NON d   1     -40.315  21.208  -2.124  0.00  0.00     0.011 A 
ATOM     17  C11 NON d   1     -39.911  21.053  -0.783  0.00  0.00     0.017 A 
ATOM     18  C12 NON d   1     -39.966  22.127   0.219  0.00  0.00     0.030 A 
ATOM     19  C13 NON d   1     -40.463  23.429  -0.023  0.00  0.00     0.029 A 
ATOM     20  C16 NON d   1     -40.811  23.596  -1.377  0.00  0.00     0.030 A 
ATOM     21  C17 NON d   1     -40.690  22.545  -2.398  0.00  0.00     0.017 A 
BRANCH  19  22
ATOM     22  N2  NON d   1     -40.576  24.453   0.976  0.00  0.00    -0.390 N 
ATOM     23  C14 NON d   1     -40.098  24.174   2.320  0.00  0.00     0.149 C 
ATOM     24  C15 NON d   1     -41.158  25.836   0.627  0.00  0.00     0.149 C 
ENDBRANCH  19  22
ENDBRANCH  14  16
ENDBRANCH   1  14
TORSDOF 7
ENDMDL
MODEL 6
REMARK VINA RESULT:   -13.299      3.090      4.026
REMARK INTER + INTRA:         -16.865
REMARK INTER:                 -15.387
REMARK INTRA:                  -1.478
REMARK CONF_INDEPENDENT:        2.088
REMARK UNBOUND:                -1.478
REMARK  7 active torsions:
REMARK  status: ('A' for Active; 'I' for Inactive)
REMARK    1  A    between atoms: C2_2  and  C3_3 
REMARK    2  A    between atoms: C4_4  and  C5_5 
REMARK       I    between atoms: C5_5  and  N1_7 
REMARK    3  A    between atoms: N1_7  and  O2_8 
REMARK    4  A    between atoms: C7_10  and  C6_9 
REMARK    5  A    between atoms: C7_10  and  C9_12 
REMARK    6  A    between atoms: C9_12  and  C10_14 
REMARK    7  A    between atoms: C13_17  and  N2_18 
ROOT
ATOM      1  C7  NON d   1     -40.150  19.009  -4.611  0.00  0.00     0.079 C 
ATOM      2  C8  NON d   1     -38.788  18.811  -5.303  0.00  0.00     0.022 C 
ENDROOT
BRANCH   1   3
ATOM      3  C6  NON d   1     -41.619  18.808  -5.048  0.00  0.00    -0.008 C 
ATOM      4  C2  NON d   1     -42.550  18.030  -4.445  0.00  0.00    -0.065 C 
ATOM      5  C1  NON d   1     -42.305  17.279  -3.156  0.00  0.00     0.048 C 
BRANCH   4   6
ATOM      6  C3  NON d   1     -43.874  17.879  -5.051  0.00  0.00     0.012 C 
ATOM      7  C4  NON d   1     -44.799  16.983  -4.675  0.00  0.00     0.076 C 
BRANCH   7   8
ATOM      8  C5  NON d   1     -46.073  16.855  -5.426  0.00  0.00     0.264 C 
ATOM      9  O1  NON d   1     -46.502  17.713  -6.185  0.00  0.00    -0.266 OA
ATOM     10  N1  NON d   1     -46.696  15.648  -5.237  0.00  0.00    -0.234 N 
ATOM     11  H6  NON d   1     -46.321  14.869  -4.708  0.00  0.00     0.197 HD
BRANCH  10  12
ATOM     12  O2  NON d   1     -47.815  15.390  -6.056  0.00  0.00    -0.287 OA
ATOM     13  H7  NON d   1     -47.711  16.062  -6.766  0.00  0.00     0.244 HD
ENDBRANCH  10  12
ENDBRANCH   7   8
ENDBRANCH   4   6
ENDBRANCH   1   3
BRANCH   1  14
ATOM     14  C9  NON d   1     -40.274  19.976  -3.418  0.00  0.00     0.166 C 
ATOM     15  O3  NON d   1     -40.471  19.664  -2.242  0.00  0.00    -0.292 OA
BRANCH  14  16
ATOM     16  C10 NON d   1     -40.323  21.630  -3.669  0.00  0.00     0.011 A 
ATOM     17  C11 NON d   1     -40.602  22.506  -2.602  0.00  0.00     0.017 A 
ATOM     18  C12 NON d   1     -40.776  23.958  -2.758  0.00  0.00     0.030 A 
ATOM     19  C13 NON d   1     -40.723  24.647  -3.993  0.00  0.00     0.029 A 
ATOM     20  C16 NON d   1     -40.386  23.776  -5.046  0.00  0.00     0.030 A 
ATOM     21  C17 NON d   1     -40.141  22.336  -4.882  0.00  0.00     0.017 A 
BRANCH  19  22
ATOM     22  N2  NON d   1     -40.959  26.054  -4.146  0.00  0.00    -0.390 N 
ATOM     23  C14 NON d   1     -41.482  26.803  -3.016  0.00  0.00     0.149 C 
ATOM     24  C15 NON d   1     -40.631  26.769  -5.470  0.00  0.00     0.149 C 
ENDBRANCH  19  22
ENDBRANCH  14  16
ENDBRANCH   1  14
TORSDOF 7
ENDMDL
MODEL 7
REMARK VINA RESULT:   -13.220      1.523      2.458
REMARK INTER + INTRA:         -16.937
REMARK INTER:                 -15.308
REMARK INTRA:                  -1.629
REMARK CONF_INDEPENDENT:        2.088
REMARK UNBOUND:                -1.629
REMARK  7 active torsions:
REMARK  status: ('A' for Active; 'I' for Inactive)
REMARK    1  A    between atoms: C2_2  and  C3_3 
REMARK    2  A    between atoms: C4_4  and  C5_5 
REMARK       I    between atoms: C5_5  and  N1_7 
REMARK    3  A    between atoms: N1_7  and  O2_8 
REMARK    4  A    between atoms: C7_10  and  C6_9 
REMARK    5  A    between atoms: C7_10  and  C9_12 
REMARK    6  A    between atoms: C9_12  and  C10_14 
REMARK    7  A    between atoms: C13_17  and  N2_18 
ROOT
ATOM      1  C7  NON d   1     -40.751  18.236  -2.493  0.00  0.00     0.079 C 
ATOM      2  C8  NON d   1     -39.644  17.256  -2.060  0.00  0.00     0.022 C 
ENDROOT
BRANCH   1   3
ATOM      3  C6  NON d   1     -42.125  18.071  -3.182  0.00  0.00    -0.008 C 
ATOM      4  C2  NON d   1     -42.359  17.918  -4.508  0.00  0.00    -0.065 C 
ATOM      5  C1  NON d   1     -41.262  17.798  -5.542  0.00  0.00     0.048 C 
BRANCH   4   6
ATOM      6  C3  NON d   1     -43.735  17.871  -5.003  0.00  0.00     0.012 C 
ATOM      7  C4  NON d   1     -44.596  16.863  -4.802  0.00  0.00     0.076 C 
BRANCH   7   8
ATOM      8  C5  NON d   1     -45.939  16.880  -5.435  0.00  0.00     0.264 C 
ATOM      9  O1  NON d   1     -46.324  17.767  -6.185  0.00  0.00    -0.266 OA
ATOM     10  N1  NON d   1     -46.688  15.768  -5.149  0.00  0.00    -0.234 N 
ATOM     11  H6  NON d   1     -46.368  14.961  -4.627  0.00  0.00     0.197 HD
BRANCH  10  12
ATOM     12  O2  NON d   1     -47.901  15.635  -5.859  0.00  0.00    -0.287 OA
ATOM     13  H7  NON d   1     -47.808  16.322  -6.557  0.00  0.00     0.244 HD
ENDBRANCH  10  12
ENDBRANCH   7   8
ENDBRANCH   4   6
ENDBRANCH   1   3
BRANCH   1  14
ATOM     14  C9  NON d   1     -40.412  19.717  -2.747  0.00  0.00     0.166 C 
ATOM     15  O3  NON d   1     -40.605  20.654  -1.970  0.00  0.00    -0.292 OA
BRANCH  14  16
ATOM     16  C10 NON d   1     -39.884  20.218  -4.254  0.00  0.00     0.011 A 
ATOM     17  C11 NON d   1     -40.662  21.104  -5.026  0.00  0.00     0.017 A 
ATOM     18  C12 NON d   1     -40.328  21.503  -6.400  0.00  0.00     0.030 A 
ATOM     19  C13 NON d   1     -39.214  21.024  -7.130  0.00  0.00     0.029 A 
ATOM     20  C16 NON d   1     -38.409  20.186  -6.335  0.00  0.00     0.030 A 
ATOM     21  C17 NON d   1     -38.702  19.842  -4.936  0.00  0.00     0.017 A 
BRANCH  19  22
ATOM     22  N2  NON d   1     -38.930  21.367  -8.494  0.00  0.00    -0.390 N 
ATOM     23  C14 NON d   1     -38.066  20.493  -9.269  0.00  0.00     0.149 C 
ATOM     24  C15 NON d   1     -39.556  22.618  -9.140  0.00  0.00     0.149 C 
ENDBRANCH  19  22
ENDBRANCH  14  16
ENDBRANCH   1  14
TORSDOF 7
ENDMDL
MODEL 8
REMARK VINA RESULT:   -12.335      4.145      5.518
REMARK INTER + INTRA:         -15.980
REMARK INTER:                 -14.423
REMARK INTRA:                  -1.557
REMARK CONF_INDEPENDENT:        2.088
REMARK UNBOUND:                -1.557
REMARK  7 active torsions:
REMARK  status: ('A' for Active; 'I' for Inactive)
REMARK    1  A    between atoms: C2_2  and  C3_3 
REMARK    2  A    between atoms: C4_4  and  C5_5 
REMARK       I    between atoms: C5_5  and  N1_7 
REMARK    3  A    between atoms: N1_7  and  O2_8 
REMARK    4  A    between atoms: C7_10  and  C6_9 
REMARK    5  A    between atoms: C7_10  and  C9_12 
REMARK    6  A    between atoms: C9_12  and  C10_14 
REMARK    7  A    between atoms: C13_17  and  N2_18 
ROOT
ATOM      1  C7  NON d   1     -40.139  18.141  -3.257  0.00  0.00     0.079 C 
ATOM      2  C8  NON d   1     -38.703  18.391  -3.754  0.00  0.00     0.022 C 
ENDROOT
BRANCH   1   3
ATOM      3  C6  NON d   1     -41.430  17.608  -3.921  0.00  0.00    -0.008 C 
ATOM      4  C2  NON d   1     -42.378  18.336  -4.559  0.00  0.00    -0.065 C 
ATOM      5  C1  NON d   1     -42.269  19.825  -4.800  0.00  0.00     0.048 C 
BRANCH   4   6
ATOM      6  C3  NON d   1     -43.591  17.679  -5.049  0.00  0.00     0.012 C 
ATOM      7  C4  NON d   1     -44.795  18.261  -5.160  0.00  0.00     0.076 C 
BRANCH   7   8
ATOM      8  C5  NON d   1     -45.979  17.469  -5.578  0.00  0.00     0.264 C 
ATOM      9  O1  NON d   1     -46.927  17.940  -6.192  0.00  0.00    -0.266 OA
ATOM     10  N1  NON d   1     -45.880  16.138  -5.266  0.00  0.00    -0.234 N 
ATOM     11  H6  NON d   1     -45.068  15.687  -4.861  0.00  0.00     0.197 HD
BRANCH  10  12
ATOM     12  O2  NON d   1     -46.886  15.299  -5.791  0.00  0.00    -0.287 OA
ATOM     13  H7  NON d   1     -47.443  15.934  -6.294  0.00  0.00     0.244 HD
ENDBRANCH  10  12
ENDBRANCH   7   8
ENDBRANCH   4   6
ENDBRANCH   1   3
BRANCH   1  14
ATOM     14  C9  NON d   1     -40.671  18.898  -2.025  0.00  0.00     0.166 C 
ATOM     15  O3  NON d   1     -41.463  18.463  -1.187  0.00  0.00    -0.292 OA
BRANCH  14  16
ATOM     16  C10 NON d   1     -40.326  20.521  -1.815  0.00  0.00     0.011 A 
ATOM     17  C11 NON d   1     -39.828  20.992  -0.583  0.00  0.00     0.017 A 
ATOM     18  C12 NON d   1     -39.607  22.413  -0.278  0.00  0.00     0.030 A 
ATOM     19  C13 NON d   1     -39.899  23.481  -1.159  0.00  0.00     0.029 A 
ATOM     20  C16 NON d   1     -40.339  23.003  -2.408  0.00  0.00     0.030 A 
ATOM     21  C17 NON d   1     -40.493  21.579  -2.741  0.00  0.00     0.017 A 
BRANCH  19  22
ATOM     22  N2  NON d   1     -39.742  24.869  -0.831  0.00  0.00    -0.390 N 
ATOM     23  C14 NON d   1     -38.415  25.456  -0.892  0.00  0.00     0.149 C 
ATOM     24  C15 NON d   1     -40.961  25.733  -0.456  0.00  0.00     0.149 C 
ENDBRANCH  19  22
ENDBRANCH  14  16
ENDBRANCH   1  14
TORSDOF 7
ENDMDL
MODEL 9
REMARK VINA RESULT:   -11.724      2.162      2.837
REMARK INTER + INTRA:         -14.518
REMARK INTER:                 -13.812
REMARK INTRA:                  -0.706
REMARK CONF_INDEPENDENT:        2.088
REMARK UNBOUND:                -0.706
REMARK  7 active torsions:
REMARK  status: ('A' for Active; 'I' for Inactive)
REMARK    1  A    between atoms: C2_2  and  C3_3 
REMARK    2  A    between atoms: C4_4  and  C5_5 
REMARK       I    between atoms: C5_5  and  N1_7 
REMARK    3  A    between atoms: N1_7  and  O2_8 
REMARK    4  A    between atoms: C7_10  and  C6_9 
REMARK    5  A    between atoms: C7_10  and  C9_12 
REMARK    6  A    between atoms: C9_12  and  C10_14 
REMARK    7  A    between atoms: C13_17  and  N2_18 
ROOT
ATOM      1  C7  NON d   1     -40.661  19.318  -5.172  0.00  0.00     0.079 C 
ATOM      2  C8  NON d   1     -39.534  18.712  -4.313  0.00  0.00     0.022 C 
ENDROOT
BRANCH   1   3
ATOM      3  C6  NON d   1     -42.175  19.039  -5.312  0.00  0.00    -0.008 C 
ATOM      4  C2  NON d   1     -42.981  18.436  -4.405  0.00  0.00    -0.065 C 
ATOM      5  C1  NON d   1     -42.517  18.004  -3.032  0.00  0.00     0.048 C 
BRANCH   4   6
ATOM      6  C3  NON d   1     -44.379  18.165  -4.741  0.00  0.00     0.012 C 
ATOM      7  C4  NON d   1     -44.853  16.995  -5.195  0.00  0.00     0.076 C 
BRANCH   7   8
ATOM      8  C5  NON d   1     -46.276  16.863  -5.596  0.00  0.00     0.264 C 
ATOM      9  O1  NON d   1     -46.898  17.736  -6.185  0.00  0.00    -0.266 OA
ATOM     10  N1  NON d   1     -46.812  15.636  -5.298  0.00  0.00    -0.234 N 
ATOM     11  H6  NON d   1     -46.303  14.849  -4.914  0.00  0.00     0.197 HD
BRANCH  10  12
ATOM     12  O2  NON d   1     -48.102  15.380  -5.810  0.00  0.00    -0.287 OA
ATOM     13  H7  NON d   1     -48.657  15.411  -4.999  0.00  0.00     0.244 HD
ENDBRANCH  10  12
ENDBRANCH   7   8
ENDBRANCH   4   6
ENDBRANCH   1   3
BRANCH   1  14
ATOM     14  C9  NON d   1     -40.321  20.049  -6.485  0.00  0.00     0.166 C 
ATOM     15  O3  NON d   1     -40.259  19.544  -7.607  0.00  0.00    -0.292 OA
BRANCH  14  16
ATOM     16  C10 NON d   1     -39.811  21.643  -6.460  0.00  0.00     0.011 A 
ATOM     17  C11 NON d   1     -40.311  22.537  -5.493  0.00  0.00     0.017 A 
ATOM     18  C12 NON d   1     -40.004  23.975  -5.470  0.00  0.00     0.030 A 
ATOM     19  C13 NON d   1     -39.208  24.643  -6.429  0.00  0.00     0.029 A 
ATOM     20  C16 NON d   1     -38.664  23.736  -7.359  0.00  0.00     0.030 A 
ATOM     21  C17 NON d   1     -38.911  22.287  -7.342  0.00  0.00     0.017 A 
BRANCH  19  22
ATOM     22  N2  NON d   1     -38.967  26.058  -6.439  0.00  0.00    -0.390 N 
ATOM     23  C14 NON d   1     -38.833  26.752  -5.170  0.00  0.00     0.149 C 
ATOM     24  C15 NON d   1     -38.816  26.824  -7.767  0.00  0.00     0.149 C 
ENDBRANCH  19  22
ENDBRANCH  14  16
ENDBRANCH   1  14
TORSDOF 7
ENDMDL
