MODEL 1
REMARK VINA RESULT:   -23.472      0.000      0.000
REMARK INTER + INTRA:         -29.025
REMARK INTER:                 -26.754
REMARK INTRA:                  -2.271
REMARK CONF_INDEPENDENT:        3.281
REMARK UNBOUND:                -2.271
REMARK  11 active torsions:
REMARK  status: ('A' for Active; 'I' for Inactive)
REMARK    1  A    between atoms: N1_1  and  C1_2 
REMARK    2  A    between atoms: C4_5  and  C5_6 
REMARK    3  A    between atoms: C10_12  and  N2_13 
REMARK       I    between atoms: N2_13  and  C11_14 
REMARK    4  A    between atoms: C11_14  and  C12_16 
REMARK    5  A    between atoms: C15_19  and  C16_20 
REMARK    6  A    between atoms: C16_20  and  N3_21 
REMARK    7  A    between atoms: N3_21  and  C17_22 
REMARK    8  A    between atoms: N3_21  and  C19_25 
REMARK    9  A    between atoms: C17_22  and  C18_23 
REMARK   10  A    between atoms: C18_23  and  O2_24 
REMARK   11  A    between atoms: C19_25  and  C20_26 
ROOT
ATOM      1  C12 NON d   1     -43.712  18.002  -4.460  0.00  0.00     0.032 A 
ATOM      2  C13 NON d   1     -43.089  18.812  -5.427  0.00  0.00     0.017 A 
ATOM      3  C14 NON d   1     -41.735  19.170  -5.348  0.00  0.00     0.010 A 
ATOM      4  C15 NON d   1     -40.948  18.780  -4.263  0.00  0.00    -0.033 A 
ATOM      5  C27 NON d   1     -41.567  17.937  -3.309  0.00  0.00     0.010 A 
ATOM      6  C28 NON d   1     -42.922  17.550  -3.398  0.00  0.00     0.017 A 
ENDROOT
BRANCH   1   7
ATOM      7  C11 NON d   1     -45.171  17.711  -4.658  0.00  0.00     0.256 C 
ATOM      8  N2  NON d   1     -45.946  17.377  -3.559  0.00  0.00    -0.321 N 
ATOM      9  H9  NON d   1     -45.534  17.344  -2.635  0.00  0.00     0.169 HD
ATOM     10  O1  NON d   1     -45.577  17.775  -5.816  0.00  0.00    -0.267 OA
BRANCH   8  11
ATOM     11  C10 NON d   1     -47.344  17.087  -3.560  0.00  0.00     0.057 A 
ATOM     12  C9  NON d   1     -48.202  17.386  -2.489  0.00  0.00     0.044 A 
ATOM     13  C4  NON d   1     -49.568  17.034  -2.486  0.00  0.00    -0.017 A 
ATOM     14  C3  NON d   1     -50.051  16.339  -3.603  0.00  0.00     0.014 A 
ATOM     15  C2  NON d   1     -49.217  16.034  -4.684  0.00  0.00     0.026 A 
ATOM     16  C1  NON d   1     -47.877  16.442  -4.694  0.00  0.00     0.033 A 
BRANCH  13  17
ATOM     17  C5  NON d   1     -50.479  17.364  -1.354  0.00  0.00     0.015 A 
ATOM     18  C6  NON d   1     -51.863  17.256  -1.278  0.00  0.00     0.020 A 
ATOM     19  C7  NON d   1     -52.400  17.668  -0.023  0.00  0.00     0.008 A 
ATOM     20  C8  NON d   1     -51.420  18.088   0.841  0.00  0.00     0.050 A 
ATOM     21  S1  NON d   1     -49.872  17.980   0.141  0.00  0.00    -0.101 SA
ENDBRANCH  13  17
BRANCH  16  22
ATOM     22  N1  NON d   1     -47.065  16.131  -5.810  0.00  0.00    -0.301 NA
ATOM     23  H1  NON d   1     -47.046  16.883  -6.494  0.00  0.00     0.124 HD
ATOM     24  H2  NON d   1     -46.118  15.913  -5.508  0.00  0.00     0.124 HD
ENDBRANCH  16  22
ENDBRANCH   8  11
ENDBRANCH   1   7
BRANCH   4  25
ATOM     25  C16 NON d   1     -39.482  19.127  -4.084  0.00  0.00     0.273 C 
BRANCH  25  26
ATOM     26  N3  NON d   1     -38.966  20.172  -3.078  0.00  0.00    -0.061 N 
ATOM     27  H14 NON d   1     -39.405  21.030  -3.432  0.00  0.00     0.280 HD
BRANCH  26  28
ATOM     28  C17 NON d   1     -37.490  20.518  -3.210  0.00  0.00     0.261 C 
BRANCH  28  29
ATOM     29  C18 NON d   1     -37.144  21.431  -4.389  0.00  0.00     0.192 C 
BRANCH  29  30
ATOM     30  O2  NON d   1     -38.079  22.497  -4.440  0.00  0.00    -0.399 OA
ATOM     31  H19 NON d   1     -37.623  23.294  -4.775  0.00  0.00     0.209 HD
ENDBRANCH  29  30
ENDBRANCH  28  29
ENDBRANCH  26  28
BRANCH  26  32
ATOM     32  C19 NON d   1     -39.575  20.074  -1.694  0.00  0.00     0.274 C 
BRANCH  32  33
ATOM     33  C20 NON d   1     -39.686  21.338  -0.865  0.00  0.00    -0.030 A 
ATOM     34  C21 NON d   1     -39.211  21.382   0.471  0.00  0.00     0.012 A 
ATOM     35  C22 NON d   1     -39.429  22.491   1.298  0.00  0.00     0.040 A 
ATOM     36  C23 NON d   1     -40.173  23.531   0.794  0.00  0.00     0.105 A 
ATOM     37  C24 NON d   1     -40.653  23.509  -0.492  0.00  0.00     0.105 A 
ATOM     38  O4  NON d   1     -40.551  24.639   1.476  0.00  0.00    -0.323 OA
ATOM     39  C25 NON d   1     -40.412  22.447  -1.348  0.00  0.00     0.048 A 
ATOM     40  O3  NON d   1     -41.406  24.606  -0.774  0.00  0.00    -0.323 OA
ATOM     41  C26 NON d   1     -41.415  25.274   0.510  0.00  0.00     0.352 A 
ENDBRANCH  32  33
ENDBRANCH  26  32
ENDBRANCH  25  26
ENDBRANCH   4  25
TORSDOF 11
ENDMDL
MODEL 2
REMARK VINA RESULT:   -23.265      1.990      4.685
REMARK INTER + INTRA:         -28.539
REMARK INTER:                 -26.547
REMARK INTRA:                  -1.992
REMARK CONF_INDEPENDENT:        3.281
REMARK UNBOUND:                -1.992
REMARK  11 active torsions:
REMARK  status: ('A' for Active; 'I' for Inactive)
REMARK    1  A    between atoms: N1_1  and  C1_2 
REMARK    2  A    between atoms: C4_5  and  C5_6 
REMARK    3  A    between atoms: C10_12  and  N2_13 
REMARK       I    between atoms: N2_13  and  C11_14 
REMARK    4  A    between atoms: C11_14  and  C12_16 
REMARK    5  A    between atoms: C15_19  and  C16_20 
REMARK    6  A    between atoms: C16_20  and  N3_21 
REMARK    7  A    between atoms: N3_21  and  C17_22 
REMARK    8  A    between atoms: N3_21  and  C19_25 
REMARK    9  A    between atoms: C17_22  and  C18_23 
REMARK   10  A    between atoms: C18_23  and  O2_24 
REMARK   11  A    between atoms: C19_25  and  C20_26 
ROOT
ATOM      1  C12 NON d   1     -43.636  17.785  -4.388  0.00  0.00     0.032 A 
ATOM      2  C13 NON d   1     -43.160  17.670  -3.069  0.00  0.00     0.017 A 
ATOM      3  C14 NON d   1     -41.802  17.809  -2.746  0.00  0.00     0.010 A 
ATOM      4  C15 NON d   1     -40.842  18.016  -3.738  0.00  0.00    -0.033 A 
ATOM      5  C27 NON d   1     -41.327  18.166  -5.059  0.00  0.00     0.010 A 
ATOM      6  C28 NON d   1     -42.696  18.054  -5.387  0.00  0.00     0.017 A 
ENDROOT
BRANCH   1   7
ATOM      7  C11 NON d   1     -45.111  17.595  -4.594  0.00  0.00     0.256 C 
ATOM      8  N2  NON d   1     -45.898  17.224  -3.515  0.00  0.00    -0.321 N 
ATOM      9  H9  NON d   1     -45.485  17.096  -2.601  0.00  0.00     0.169 HD
ATOM     10  O1  NON d   1     -45.518  17.771  -5.740  0.00  0.00    -0.267 OA
BRANCH   8  11
ATOM     11  C10 NON d   1     -47.312  17.017  -3.526  0.00  0.00     0.057 A 
ATOM     12  C9  NON d   1     -48.151  17.325  -2.442  0.00  0.00     0.044 A 
ATOM     13  C4  NON d   1     -49.536  17.054  -2.451  0.00  0.00    -0.017 A 
ATOM     14  C3  NON d   1     -50.058  16.431  -3.592  0.00  0.00     0.014 A 
ATOM     15  C2  NON d   1     -49.242  16.117  -4.685  0.00  0.00     0.026 A 
ATOM     16  C1  NON d   1     -47.881  16.447  -4.682  0.00  0.00     0.033 A 
BRANCH  13  17
ATOM     17  C5  NON d   1     -50.427  17.394  -1.306  0.00  0.00     0.015 A 
ATOM     18  C6  NON d   1     -51.811  17.314  -1.215  0.00  0.00     0.020 A 
ATOM     19  C7  NON d   1     -52.326  17.728   0.050  0.00  0.00     0.008 A 
ATOM     20  C8  NON d   1     -51.326  18.123   0.905  0.00  0.00     0.050 A 
ATOM     21  S1  NON d   1     -49.789  17.988   0.186  0.00  0.00    -0.101 SA
ENDBRANCH  13  17
BRANCH  16  22
ATOM     22  N1  NON d   1     -47.088  16.130  -5.810  0.00  0.00    -0.301 NA
ATOM     23  H1  NON d   1     -46.960  16.928  -6.427  0.00  0.00     0.124 HD
ATOM     24  H2  NON d   1     -46.181  15.771  -5.516  0.00  0.00     0.124 HD
ENDBRANCH  16  22
ENDBRANCH   8  11
ENDBRANCH   1   7
BRANCH   4  25
ATOM     25  C16 NON d   1     -39.353  18.167  -3.488  0.00  0.00     0.273 C 
BRANCH  25  26
ATOM     26  N3  NON d   1     -38.726  19.367  -2.754  0.00  0.00    -0.061 N 
ATOM     27  H14 NON d   1     -38.486  18.949  -1.848  0.00  0.00     0.280 HD
BRANCH  26  28
ATOM     28  C17 NON d   1     -39.710  20.448  -2.332  0.00  0.00     0.261 C 
BRANCH  28  29
ATOM     29  C18 NON d   1     -39.142  21.500  -1.376  0.00  0.00     0.192 C 
BRANCH  29  30
ATOM     30  O2  NON d   1     -39.201  21.000  -0.049  0.00  0.00    -0.399 OA
ATOM     31  H19 NON d   1     -38.519  20.307   0.052  0.00  0.00     0.209 HD
ENDBRANCH  29  30
ENDBRANCH  28  29
ENDBRANCH  26  28
BRANCH  26  32
ATOM     32  C19 NON d   1     -37.360  19.777  -3.265  0.00  0.00     0.274 C 
BRANCH  32  33
ATOM     33  C20 NON d   1     -37.204  20.082  -4.742  0.00  0.00    -0.030 A 
ATOM     34  C21 NON d   1     -37.373  21.399  -5.240  0.00  0.00     0.012 A 
ATOM     35  C22 NON d   1     -37.372  21.677  -6.612  0.00  0.00     0.040 A 
ATOM     36  C23 NON d   1     -37.255  20.619  -7.481  0.00  0.00     0.105 A 
ATOM     37  C24 NON d   1     -37.101  19.334  -7.025  0.00  0.00     0.105 A 
ATOM     38  O4  NON d   1     -37.319  20.692  -8.833  0.00  0.00    -0.323 OA
ATOM     39  C25 NON d   1     -37.050  19.035  -5.673  0.00  0.00     0.048 A 
ATOM     40  O3  NON d   1     -37.058  18.433  -8.043  0.00  0.00    -0.323 OA
ATOM     41  C26 NON d   1     -37.290  19.292  -9.184  0.00  0.00     0.352 A 
ENDBRANCH  32  33
ENDBRANCH  26  32
ENDBRANCH  25  26
ENDBRANCH   4  25
TORSDOF 11
ENDMDL
MODEL 3
REMARK VINA RESULT:   -23.127      2.128      4.530
REMARK INTER + INTRA:         -29.183
REMARK INTER:                 -26.408
REMARK INTRA:                  -2.775
REMARK CONF_INDEPENDENT:        3.281
REMARK UNBOUND:                -2.775
REMARK  11 active torsions:
REMARK  status: ('A' for Active; 'I' for Inactive)
REMARK    1  A    between atoms: N1_1  and  C1_2 
REMARK    2  A    between atoms: C4_5  and  C5_6 
REMARK    3  A    between atoms: C10_12  and  N2_13 
REMARK       I    between atoms: N2_13  and  C11_14 
REMARK    4  A    between atoms: C11_14  and  C12_16 
REMARK    5  A    between atoms: C15_19  and  C16_20 
REMARK    6  A    between atoms: C16_20  and  N3_21 
REMARK    7  A    between atoms: N3_21  and  C17_22 
REMARK    8  A    between atoms: N3_21  and  C19_25 
REMARK    9  A    between atoms: C17_22  and  C18_23 
REMARK   10  A    between atoms: C18_23  and  O2_24 
REMARK   11  A    between atoms: C19_25  and  C20_26 
ROOT
ATOM      1  C12 NON d   1     -43.619  17.789  -4.405  0.00  0.00     0.032 A 
ATOM      2  C13 NON d   1     -43.157  17.797  -3.076  0.00  0.00     0.017 A 
ATOM      3  C14 NON d   1     -41.801  17.955  -2.752  0.00  0.00     0.010 A 
ATOM      4  C15 NON d   1     -40.830  18.059  -3.749  0.00  0.00    -0.033 A 
ATOM      5  C27 NON d   1     -41.300  18.086  -5.084  0.00  0.00     0.010 A 
ATOM      6  C28 NON d   1     -42.666  17.955  -5.415  0.00  0.00     0.017 A 
ENDROOT
BRANCH   1   7
ATOM      7  C11 NON d   1     -45.093  17.593  -4.608  0.00  0.00     0.256 C 
ATOM      8  N2  NON d   1     -45.881  17.240  -3.524  0.00  0.00    -0.321 N 
ATOM      9  H9  NON d   1     -45.467  17.131  -2.607  0.00  0.00     0.169 HD
ATOM     10  O1  NON d   1     -45.500  17.746  -5.758  0.00  0.00    -0.267 OA
BRANCH   8  11
ATOM     11  C10 NON d   1     -47.293  17.030  -3.531  0.00  0.00     0.057 A 
ATOM     12  C9  NON d   1     -48.133  17.344  -2.449  0.00  0.00     0.044 A 
ATOM     13  C4  NON d   1     -49.516  17.069  -2.454  0.00  0.00    -0.017 A 
ATOM     14  C3  NON d   1     -50.038  16.438  -3.591  0.00  0.00     0.014 A 
ATOM     15  C2  NON d   1     -49.223  16.120  -4.683  0.00  0.00     0.026 A 
ATOM     16  C1  NON d   1     -47.863  16.452  -4.683  0.00  0.00     0.033 A 
BRANCH  13  17
ATOM     17  C5  NON d   1     -50.407  17.415  -1.311  0.00  0.00     0.015 A 
ATOM     18  C6  NON d   1     -51.792  17.348  -1.223  0.00  0.00     0.020 A 
ATOM     19  C7  NON d   1     -52.306  17.763   0.042  0.00  0.00     0.008 A 
ATOM     20  C8  NON d   1     -51.305  18.145   0.900  0.00  0.00     0.050 A 
ATOM     21  S1  NON d   1     -49.767  17.996   0.185  0.00  0.00    -0.101 SA
ENDBRANCH  13  17
BRANCH  16  22
ATOM     22  N1  NON d   1     -47.070  16.130  -5.810  0.00  0.00    -0.301 NA
ATOM     23  H1  NON d   1     -47.057  16.879  -6.498  0.00  0.00     0.124 HD
ATOM     24  H2  NON d   1     -46.119  15.907  -5.522  0.00  0.00     0.124 HD
ENDBRANCH  16  22
ENDBRANCH   8  11
ENDBRANCH   1   7
BRANCH   4  25
ATOM     25  C16 NON d   1     -39.342  18.221  -3.498  0.00  0.00     0.273 C 
BRANCH  25  26
ATOM     26  N3  NON d   1     -38.638  19.586  -3.381  0.00  0.00    -0.061 N 
ATOM     27  H14 NON d   1     -38.029  19.432  -2.570  0.00  0.00     0.280 HD
BRANCH  26  28
ATOM     28  C17 NON d   1     -39.517  20.722  -2.881  0.00  0.00     0.261 C 
BRANCH  28  29
ATOM     29  C18 NON d   1     -38.998  21.440  -1.633  0.00  0.00     0.192 C 
BRANCH  29  30
ATOM     30  O2  NON d   1     -38.191  20.543  -0.885  0.00  0.00    -0.399 OA
ATOM     31  H19 NON d   1     -38.758  20.086  -0.234  0.00  0.00     0.209 HD
ENDBRANCH  29  30
ENDBRANCH  28  29
ENDBRANCH  26  28
BRANCH  26  32
ATOM     32  C19 NON d   1     -37.621  19.869  -4.468  0.00  0.00     0.274 C 
BRANCH  32  33
ATOM     33  C20 NON d   1     -38.116  20.414  -5.794  0.00  0.00    -0.030 A 
ATOM     34  C21 NON d   1     -38.042  21.799  -6.090  0.00  0.00     0.012 A 
ATOM     35  C22 NON d   1     -38.619  22.341  -7.245  0.00  0.00     0.040 A 
ATOM     36  C23 NON d   1     -39.317  21.493  -8.072  0.00  0.00     0.105 A 
ATOM     37  C24 NON d   1     -39.413  20.151  -7.803  0.00  0.00     0.105 A 
ATOM     38  O4  NON d   1     -40.006  21.857  -9.181  0.00  0.00    -0.323 OA
ATOM     39  C25 NON d   1     -38.811  19.579  -6.693  0.00  0.00     0.048 A 
ATOM     40  O3  NON d   1     -40.189  19.502  -8.712  0.00  0.00    -0.323 OA
ATOM     41  C26 NON d   1     -40.638  20.607  -9.531  0.00  0.00     0.352 A 
ENDBRANCH  32  33
ENDBRANCH  26  32
ENDBRANCH  25  26
ENDBRANCH   4  25
TORSDOF 11
ENDMDL
MODEL 4
REMARK VINA RESULT:   -23.024      1.343      2.048
REMARK INTER + INTRA:         -28.626
REMARK INTER:                 -26.306
REMARK INTRA:                  -2.321
REMARK CONF_INDEPENDENT:        3.281
REMARK UNBOUND:                -2.321
REMARK  11 active torsions:
REMARK  status: ('A' for Active; 'I' for Inactive)
REMARK    1  A    between atoms: N1_1  and  C1_2 
REMARK    2  A    between atoms: C4_5  and  C5_6 
REMARK    3  A    between atoms: C10_12  and  N2_13 
REMARK       I    between atoms: N2_13  and  C11_14 
REMARK    4  A    between atoms: C11_14  and  C12_16 
REMARK    5  A    between atoms: C15_19  and  C16_20 
REMARK    6  A    between atoms: C16_20  and  N3_21 
REMARK    7  A    between atoms: N3_21  and  C17_22 
REMARK    8  A    between atoms: N3_21  and  C19_25 
REMARK    9  A    between atoms: C17_22  and  C18_23 
REMARK   10  A    between atoms: C18_23  and  O2_24 
REMARK   11  A    between atoms: C19_25  and  C20_26 
ROOT
ATOM      1  C12 NON d   1     -43.743  18.098  -4.589  0.00  0.00     0.032 A 
ATOM      2  C13 NON d   1     -43.044  17.441  -3.561  0.00  0.00     0.017 A 
ATOM      3  C14 NON d   1     -41.681  17.664  -3.317  0.00  0.00     0.010 A 
ATOM      4  C15 NON d   1     -40.934  18.519  -4.129  0.00  0.00    -0.033 A 
ATOM      5  C27 NON d   1     -41.647  19.205  -5.142  0.00  0.00     0.010 A 
ATOM      6  C28 NON d   1     -43.025  19.005  -5.374  0.00  0.00     0.017 A 
ENDROOT
BRANCH   1   7
ATOM      7  C11 NON d   1     -45.195  17.751  -4.750  0.00  0.00     0.256 C 
ATOM      8  N2  NON d   1     -45.951  17.479  -3.621  0.00  0.00    -0.321 N 
ATOM      9  H9  NON d   1     -45.531  17.528  -2.702  0.00  0.00     0.169 HD
ATOM     10  O1  NON d   1     -45.612  17.715  -5.906  0.00  0.00    -0.267 OA
BRANCH   8  11
ATOM     11  C10 NON d   1     -47.340  17.149  -3.587  0.00  0.00     0.057 A 
ATOM     12  C9  NON d   1     -48.187  17.457  -2.509  0.00  0.00     0.044 A 
ATOM     13  C4  NON d   1     -49.541  17.066  -2.468  0.00  0.00    -0.017 A 
ATOM     14  C3  NON d   1     -50.024  16.323  -3.554  0.00  0.00     0.014 A 
ATOM     15  C2  NON d   1     -49.201  16.007  -4.641  0.00  0.00     0.026 A 
ATOM     16  C1  NON d   1     -47.875  16.453  -4.689  0.00  0.00     0.033 A 
BRANCH  13  17
ATOM     17  C5  NON d   1     -50.441  17.406  -1.330  0.00  0.00     0.015 A 
ATOM     18  C6  NON d   1     -51.828  17.367  -1.263  0.00  0.00     0.020 A 
ATOM     19  C7  NON d   1     -52.351  17.766   0.003  0.00  0.00     0.008 A 
ATOM     20  C8  NON d   1     -51.355  18.106   0.884  0.00  0.00     0.050 A 
ATOM     21  S1  NON d   1     -49.811  17.941   0.187  0.00  0.00    -0.101 SA
ENDBRANCH  13  17
BRANCH  16  22
ATOM     22  N1  NON d   1     -47.075  16.130  -5.811  0.00  0.00    -0.301 NA
ATOM     23  H1  NON d   1     -46.955  16.921  -6.439  0.00  0.00     0.124 HD
ATOM     24  H2  NON d   1     -46.165  15.787  -5.509  0.00  0.00     0.124 HD
ENDBRANCH  16  22
ENDBRANCH   8  11
ENDBRANCH   1   7
BRANCH   4  25
ATOM     25  C16 NON d   1     -39.457  18.815  -3.952  0.00  0.00     0.273 C 
BRANCH  25  26
ATOM     26  N3  NON d   1     -38.665  19.786  -4.847  0.00  0.00    -0.061 N 
ATOM     27  H14 NON d   1     -39.394  20.112  -5.491  0.00  0.00     0.280 HD
BRANCH  26  28
ATOM     28  C17 NON d   1     -37.693  19.122  -5.812  0.00  0.00     0.261 C 
BRANCH  28  29
ATOM     29  C18 NON d   1     -38.182  19.029  -7.259  0.00  0.00     0.192 C 
BRANCH  29  30
ATOM     30  O2  NON d   1     -39.461  19.635  -7.356  0.00  0.00    -0.399 OA
ATOM     31  H19 NON d   1     -39.624  19.867  -8.291  0.00  0.00     0.209 HD
ENDBRANCH  29  30
ENDBRANCH  28  29
ENDBRANCH  26  28
BRANCH  26  32
ATOM     32  C19 NON d   1     -38.260  21.082  -4.174  0.00  0.00     0.274 C 
BRANCH  32  33
ATOM     33  C20 NON d   1     -39.222  21.711  -3.186  0.00  0.00    -0.030 A 
ATOM     34  C21 NON d   1     -40.301  22.520  -3.627  0.00  0.00     0.012 A 
ATOM     35  C22 NON d   1     -41.115  23.222  -2.729  0.00  0.00     0.040 A 
ATOM     36  C23 NON d   1     -40.805  23.151  -1.392  0.00  0.00     0.105 A 
ATOM     37  C24 NON d   1     -39.760  22.384  -0.940  0.00  0.00     0.105 A 
ATOM     38  O4  NON d   1     -41.427  23.828  -0.397  0.00  0.00    -0.323 OA
ATOM     39  C25 NON d   1     -38.968  21.641  -1.800  0.00  0.00     0.048 A 
ATOM     40  O3  NON d   1     -39.591  22.494   0.405  0.00  0.00    -0.323 OA
ATOM     41  C26 NON d   1     -40.594  23.485   0.730  0.00  0.00     0.352 A 
ENDBRANCH  32  33
ENDBRANCH  26  32
ENDBRANCH  25  26
ENDBRANCH   4  25
TORSDOF 11
ENDMDL
MODEL 5
REMARK VINA RESULT:   -23.006      2.445      4.704
REMARK INTER + INTRA:         -28.784
REMARK INTER:                 -26.288
REMARK INTRA:                  -2.496
REMARK CONF_INDEPENDENT:        3.281
REMARK UNBOUND:                -2.496
REMARK  11 active torsions:
REMARK  status: ('A' for Active; 'I' for Inactive)
REMARK    1  A    between atoms: N1_1  and  C1_2 
REMARK    2  A    between atoms: C4_5  and  C5_6 
REMARK    3  A    between atoms: C10_12  and  N2_13 
REMARK       I    between atoms: N2_13  and  C11_14 
REMARK    4  A    between atoms: C11_14  and  C12_16 
REMARK    5  A    between atoms: C15_19  and  C16_20 
REMARK    6  A    between atoms: C16_20  and  N3_21 
REMARK    7  A    between atoms: N3_21  and  C17_22 
REMARK    8  A    between atoms: N3_21  and  C19_25 
REMARK    9  A    between atoms: C17_22  and  C18_23 
REMARK   10  A    between atoms: C18_23  and  O2_24 
REMARK   11  A    between atoms: C19_25  and  C20_26 
ROOT
ATOM      1  C12 NON d   1     -43.686  17.944  -4.435  0.00  0.00     0.032 A 
ATOM      2  C13 NON d   1     -43.031  18.687  -5.433  0.00  0.00     0.017 A 
ATOM      3  C14 NON d   1     -41.667  19.009  -5.357  0.00  0.00     0.010 A 
ATOM      4  C15 NON d   1     -40.902  18.648  -4.247  0.00  0.00    -0.033 A 
ATOM      5  C27 NON d   1     -41.555  17.871  -3.261  0.00  0.00     0.010 A 
ATOM      6  C28 NON d   1     -42.920  17.521  -3.344  0.00  0.00     0.017 A 
ENDROOT
BRANCH   1   7
ATOM      7  C11 NON d   1     -45.152  17.687  -4.634  0.00  0.00     0.256 C 
ATOM      8  N2  NON d   1     -45.925  17.324  -3.543  0.00  0.00    -0.321 N 
ATOM      9  H9  NON d   1     -45.509  17.247  -2.625  0.00  0.00     0.169 HD
ATOM     10  O1  NON d   1     -45.564  17.804  -5.786  0.00  0.00    -0.267 OA
BRANCH   8  11
ATOM     11  C10 NON d   1     -47.329  17.059  -3.546  0.00  0.00     0.057 A 
ATOM     12  C9  NON d   1     -48.180  17.359  -2.469  0.00  0.00     0.044 A 
ATOM     13  C4  NON d   1     -49.552  17.031  -2.469  0.00  0.00    -0.017 A 
ATOM     14  C3  NON d   1     -50.049  16.361  -3.595  0.00  0.00     0.014 A 
ATOM     15  C2  NON d   1     -49.222  16.056  -4.682  0.00  0.00     0.026 A 
ATOM     16  C1  NON d   1     -47.875  16.440  -4.688  0.00  0.00     0.033 A 
BRANCH  13  17
ATOM     17  C5  NON d   1     -50.455  17.362  -1.331  0.00  0.00     0.015 A 
ATOM     18  C6  NON d   1     -51.838  17.255  -1.246  0.00  0.00     0.020 A 
ATOM     19  C7  NON d   1     -52.367  17.667   0.013  0.00  0.00     0.008 A 
ATOM     20  C8  NON d   1     -51.380  18.086   0.871  0.00  0.00     0.050 A 
ATOM     21  S1  NON d   1     -49.837  17.976   0.161  0.00  0.00    -0.101 SA
ENDBRANCH  13  17
BRANCH  16  22
ATOM     22  N1  NON d   1     -47.071  16.130  -5.810  0.00  0.00    -0.301 NA
ATOM     23  H1  NON d   1     -47.176  16.811  -6.558  0.00  0.00     0.124 HD
ATOM     24  H2  NON d   1     -46.093  16.064  -5.536  0.00  0.00     0.124 HD
ENDBRANCH  16  22
ENDBRANCH   8  11
ENDBRANCH   1   7
BRANCH   4  25
ATOM     25  C16 NON d   1     -39.428  18.960  -4.070  0.00  0.00     0.273 C 
BRANCH  25  26
ATOM     26  N3  NON d   1     -38.851  20.387  -4.050  0.00  0.00    -0.061 N 
ATOM     27  H14 NON d   1     -38.185  20.328  -3.272  0.00  0.00     0.280 HD
BRANCH  26  28
ATOM     28  C17 NON d   1     -39.805  21.459  -3.544  0.00  0.00     0.261 C 
BRANCH  28  29
ATOM     29  C18 NON d   1     -40.250  21.292  -2.088  0.00  0.00     0.192 C 
BRANCH  29  30
ATOM     30  O2  NON d   1     -39.192  20.709  -1.344  0.00  0.00    -0.399 OA
ATOM     31  H19 NON d   1     -39.304  19.738  -1.355  0.00  0.00     0.209 HD
ENDBRANCH  29  30
ENDBRANCH  28  29
ENDBRANCH  26  28
BRANCH  26  32
ATOM     32  C19 NON d   1     -37.929  20.714  -5.208  0.00  0.00     0.274 C 
BRANCH  32  33
ATOM     33  C20 NON d   1     -38.545  21.207  -6.503  0.00  0.00    -0.030 A 
ATOM     34  C21 NON d   1     -39.377  20.366  -7.285  0.00  0.00     0.012 A 
ATOM     35  C22 NON d   1     -39.840  20.752  -8.549  0.00  0.00     0.040 A 
ATOM     36  C23 NON d   1     -39.419  21.963  -9.044  0.00  0.00     0.105 A 
ATOM     37  C24 NON d   1     -38.606  22.791  -8.312  0.00  0.00     0.105 A 
ATOM     38  O4  NON d   1     -39.698  22.457 -10.275  0.00  0.00    -0.323 OA
ATOM     39  C25 NON d   1     -38.171  22.457  -7.039  0.00  0.00     0.048 A 
ATOM     40  O3  NON d   1     -38.264  23.912  -9.002  0.00  0.00    -0.323 OA
ATOM     41  C26 NON d   1     -38.885  23.649 -10.282  0.00  0.00     0.352 A 
ENDBRANCH  32  33
ENDBRANCH  26  32
ENDBRANCH  25  26
ENDBRANCH   4  25
TORSDOF 11
ENDMDL
MODEL 6
REMARK VINA RESULT:   -22.896      1.355      1.953
REMARK INTER + INTRA:         -28.937
REMARK INTER:                 -26.177
REMARK INTRA:                  -2.760
REMARK CONF_INDEPENDENT:        3.281
REMARK UNBOUND:                -2.760
REMARK  11 active torsions:
REMARK  status: ('A' for Active; 'I' for Inactive)
REMARK    1  A    between atoms: N1_1  and  C1_2 
REMARK    2  A    between atoms: C4_5  and  C5_6 
REMARK    3  A    between atoms: C10_12  and  N2_13 
REMARK       I    between atoms: N2_13  and  C11_14 
REMARK    4  A    between atoms: C11_14  and  C12_16 
REMARK    5  A    between atoms: C15_19  and  C16_20 
REMARK    6  A    between atoms: C16_20  and  N3_21 
REMARK    7  A    between atoms: N3_21  and  C17_22 
REMARK    8  A    between atoms: N3_21  and  C19_25 
REMARK    9  A    between atoms: C17_22  and  C18_23 
REMARK   10  A    between atoms: C18_23  and  O2_24 
REMARK   11  A    between atoms: C19_25  and  C20_26 
ROOT
ATOM      1  C12 NON d   1     -43.694  18.050  -4.518  0.00  0.00     0.032 A 
ATOM      2  C13 NON d   1     -43.031  17.335  -3.504  0.00  0.00     0.017 A 
ATOM      3  C14 NON d   1     -41.659  17.483  -3.254  0.00  0.00     0.010 A 
ATOM      4  C15 NON d   1     -40.868  18.317  -4.046  0.00  0.00    -0.033 A 
ATOM      5  C27 NON d   1     -41.542  19.061  -5.042  0.00  0.00     0.010 A 
ATOM      6  C28 NON d   1     -42.928  18.938  -5.281  0.00  0.00     0.017 A 
ENDROOT
BRANCH   1   7
ATOM      7  C11 NON d   1     -45.160  17.782  -4.689  0.00  0.00     0.256 C 
ATOM      8  N2  NON d   1     -45.905  17.387  -3.588  0.00  0.00    -0.321 N 
ATOM      9  H9  NON d   1     -45.466  17.296  -2.681  0.00  0.00     0.169 HD
ATOM     10  O1  NON d   1     -45.601  17.917  -5.828  0.00  0.00    -0.267 OA
BRANCH   8  11
ATOM     11  C10 NON d   1     -47.305  17.107  -3.564  0.00  0.00     0.057 A 
ATOM     12  C9  NON d   1     -48.143  17.421  -2.481  0.00  0.00     0.044 A 
ATOM     13  C4  NON d   1     -49.511  17.078  -2.453  0.00  0.00    -0.017 A 
ATOM     14  C3  NON d   1     -50.017  16.377  -3.556  0.00  0.00     0.014 A 
ATOM     15  C2  NON d   1     -49.203  16.058  -4.648  0.00  0.00     0.026 A 
ATOM     16  C1  NON d   1     -47.861  16.457  -4.684  0.00  0.00     0.033 A 
BRANCH  13  17
ATOM     17  C5  NON d   1     -50.401  17.423  -1.309  0.00  0.00     0.015 A 
ATOM     18  C6  NON d   1     -51.788  17.387  -1.231  0.00  0.00     0.020 A 
ATOM     19  C7  NON d   1     -52.300  17.791   0.038  0.00  0.00     0.008 A 
ATOM     20  C8  NON d   1     -51.297  18.134   0.909  0.00  0.00     0.050 A 
ATOM     21  S1  NON d   1     -49.758  17.964   0.201  0.00  0.00    -0.101 SA
ENDBRANCH  13  17
BRANCH  16  22
ATOM     22  N1  NON d   1     -47.070  16.131  -5.810  0.00  0.00    -0.301 NA
ATOM     23  H1  NON d   1     -47.230  16.765  -6.589  0.00  0.00     0.124 HD
ATOM     24  H2  NON d   1     -46.083  16.130  -5.561  0.00  0.00     0.124 HD
ENDBRANCH  16  22
ENDBRANCH   8  11
ENDBRANCH   1   7
BRANCH   4  25
ATOM     25  C16 NON d   1     -39.377  18.533  -3.860  0.00  0.00     0.273 C 
BRANCH  25  26
ATOM     26  N3  NON d   1     -38.765  19.291  -2.668  0.00  0.00    -0.061 N 
ATOM     27  H14 NON d   1     -38.346  20.103  -3.135  0.00  0.00     0.280 HD
BRANCH  26  28
ATOM     28  C17 NON d   1     -37.536  18.637  -2.053  0.00  0.00     0.261 C 
BRANCH  28  29
ATOM     29  C18 NON d   1     -36.663  19.568  -1.208  0.00  0.00     0.192 C 
BRANCH  29  30
ATOM     30  O2  NON d   1     -36.981  20.914  -1.523  0.00  0.00    -0.399 OA
ATOM     31  H19 NON d   1     -37.071  21.415  -0.689  0.00  0.00     0.209 HD
ENDBRANCH  29  30
ENDBRANCH  28  29
ENDBRANCH  26  28
BRANCH  26  32
ATOM     32  C19 NON d   1     -39.773  19.959  -1.755  0.00  0.00     0.274 C 
BRANCH  32  33
ATOM     33  C20 NON d   1     -39.991  21.454  -1.893  0.00  0.00    -0.030 A 
ATOM     34  C21 NON d   1     -40.230  22.267  -0.757  0.00  0.00     0.012 A 
ATOM     35  C22 NON d   1     -40.571  23.620  -0.874  0.00  0.00     0.040 A 
ATOM     36  C23 NON d   1     -40.724  24.136  -2.138  0.00  0.00     0.105 A 
ATOM     37  C24 NON d   1     -40.508  23.368  -3.255  0.00  0.00     0.105 A 
ATOM     38  O4  NON d   1     -41.130  25.394  -2.438  0.00  0.00    -0.323 OA
ATOM     39  C25 NON d   1     -40.123  22.039  -3.169  0.00  0.00     0.048 A 
ATOM     40  O3  NON d   1     -40.764  24.052  -4.402  0.00  0.00    -0.323 OA
ATOM     41  C26 NON d   1     -41.248  25.309  -3.874  0.00  0.00     0.352 A 
ENDBRANCH  32  33
ENDBRANCH  26  32
ENDBRANCH  25  26
ENDBRANCH   4  25
TORSDOF 11
ENDMDL
MODEL 7
REMARK VINA RESULT:   -22.496      3.128      4.148
REMARK INTER + INTRA:         -28.238
REMARK INTER:                 -25.777
REMARK INTRA:                  -2.460
REMARK CONF_INDEPENDENT:        3.281
REMARK UNBOUND:                -2.460
REMARK  11 active torsions:
REMARK  status: ('A' for Active; 'I' for Inactive)
REMARK    1  A    between atoms: N1_1  and  C1_2 
REMARK    2  A    between atoms: C4_5  and  C5_6 
REMARK    3  A    between atoms: C10_12  and  N2_13 
REMARK       I    between atoms: N2_13  and  C11_14 
REMARK    4  A    between atoms: C11_14  and  C12_16 
REMARK    5  A    between atoms: C15_19  and  C16_20 
REMARK    6  A    between atoms: C16_20  and  N3_21 
REMARK    7  A    between atoms: N3_21  and  C17_22 
REMARK    8  A    between atoms: N3_21  and  C19_25 
REMARK    9  A    between atoms: C17_22  and  C18_23 
REMARK   10  A    between atoms: C18_23  and  O2_24 
REMARK   11  A    between atoms: C19_25  and  C20_26 
ROOT
ATOM      1  C12 NON d   1     -43.689  17.976  -4.501  0.00  0.00     0.032 A 
ATOM      2  C13 NON d   1     -43.065  17.391  -3.384  0.00  0.00     0.017 A 
ATOM      3  C14 NON d   1     -41.700  17.561  -3.111  0.00  0.00     0.010 A 
ATOM      4  C15 NON d   1     -40.876  18.284  -3.976  0.00  0.00    -0.033 A 
ATOM      5  C27 NON d   1     -41.512  18.900  -5.080  0.00  0.00     0.010 A 
ATOM      6  C28 NON d   1     -42.892  18.755  -5.345  0.00  0.00     0.017 A 
ENDROOT
BRANCH   1   7
ATOM      7  C11 NON d   1     -45.152  17.697  -4.683  0.00  0.00     0.256 C 
ATOM      8  N2  NON d   1     -45.919  17.375  -3.574  0.00  0.00    -0.321 N 
ATOM      9  H9  NON d   1     -45.498  17.344  -2.655  0.00  0.00     0.169 HD
ATOM     10  O1  NON d   1     -45.570  17.757  -5.838  0.00  0.00    -0.267 OA
BRANCH   8  11
ATOM     11  C10 NON d   1     -47.320  17.097  -3.560  0.00  0.00     0.057 A 
ATOM     12  C9  NON d   1     -48.164  17.408  -2.481  0.00  0.00     0.044 A 
ATOM     13  C4  NON d   1     -49.533  17.067  -2.462  0.00  0.00    -0.017 A 
ATOM     14  C3  NON d   1     -50.033  16.372  -3.572  0.00  0.00     0.014 A 
ATOM     15  C2  NON d   1     -49.213  16.056  -4.660  0.00  0.00     0.026 A 
ATOM     16  C1  NON d   1     -47.870  16.453  -4.686  0.00  0.00     0.033 A 
BRANCH  13  17
ATOM     17  C5  NON d   1     -50.429  17.409  -1.323  0.00  0.00     0.015 A 
ATOM     18  C6  NON d   1     -51.816  17.353  -1.246  0.00  0.00     0.020 A 
ATOM     19  C7  NON d   1     -52.336  17.760   0.018  0.00  0.00     0.008 A 
ATOM     20  C8  NON d   1     -51.338  18.125   0.888  0.00  0.00     0.050 A 
ATOM     21  S1  NON d   1     -49.797  17.972   0.184  0.00  0.00    -0.101 SA
ENDBRANCH  13  17
BRANCH  16  22
ATOM     22  N1  NON d   1     -47.073  16.130  -5.809  0.00  0.00    -0.301 NA
ATOM     23  H1  NON d   1     -46.917  16.933  -6.413  0.00  0.00     0.124 HD
ATOM     24  H2  NON d   1     -46.180  15.744  -5.510  0.00  0.00     0.124 HD
ENDBRANCH  16  22
ENDBRANCH   8  11
ENDBRANCH   1   7
BRANCH   4  25
ATOM     25  C16 NON d   1     -39.391  18.512  -3.771  0.00  0.00     0.273 C 
BRANCH  25  26
ATOM     26  N3  NON d   1     -38.550  19.487  -4.617  0.00  0.00    -0.061 N 
ATOM     27  H14 NON d   1     -38.905  19.298  -5.561  0.00  0.00     0.280 HD
BRANCH  26  28
ATOM     28  C17 NON d   1     -37.085  19.107  -4.769  0.00  0.00     0.261 C 
BRANCH  28  29
ATOM     29  C18 NON d   1     -36.573  19.073  -6.211  0.00  0.00     0.192 C 
BRANCH  29  30
ATOM     30  O2  NON d   1     -37.571  18.502  -7.044  0.00  0.00    -0.399 OA
ATOM     31  H19 NON d   1     -37.620  17.544  -6.857  0.00  0.00     0.209 HD
ENDBRANCH  29  30
ENDBRANCH  28  29
ENDBRANCH  26  28
BRANCH  26  32
ATOM     32  C19 NON d   1     -38.915  20.948  -4.449  0.00  0.00     0.274 C 
BRANCH  32  33
ATOM     33  C20 NON d   1     -39.444  21.702  -5.653  0.00  0.00    -0.030 A 
ATOM     34  C21 NON d   1     -39.920  21.013  -6.798  0.00  0.00     0.012 A 
ATOM     35  C22 NON d   1     -40.280  21.687  -7.971  0.00  0.00     0.040 A 
ATOM     36  C23 NON d   1     -40.107  23.050  -8.006  0.00  0.00     0.105 A 
ATOM     37  C24 NON d   1     -39.639  23.740  -6.916  0.00  0.00     0.105 A 
ATOM     38  O4  NON d   1     -40.323  23.849  -9.080  0.00  0.00    -0.323 OA
ATOM     39  C25 NON d   1     -39.320  23.105  -5.727  0.00  0.00     0.048 A 
ATOM     40  O3  NON d   1     -39.491  25.066  -7.177  0.00  0.00    -0.323 OA
ATOM     41  C26 NON d   1     -39.839  25.114  -8.581  0.00  0.00     0.352 A 
ENDBRANCH  32  33
ENDBRANCH  26  32
ENDBRANCH  25  26
ENDBRANCH   4  25
TORSDOF 11
ENDMDL
MODEL 8
REMARK VINA RESULT:   -21.930      3.522      4.398
REMARK INTER + INTRA:         -28.215
REMARK INTER:                 -25.212
REMARK INTRA:                  -3.004
REMARK CONF_INDEPENDENT:        3.281
REMARK UNBOUND:                -3.004
REMARK  11 active torsions:
REMARK  status: ('A' for Active; 'I' for Inactive)
REMARK    1  A    between atoms: N1_1  and  C1_2 
REMARK    2  A    between atoms: C4_5  and  C5_6 
REMARK    3  A    between atoms: C10_12  and  N2_13 
REMARK       I    between atoms: N2_13  and  C11_14 
REMARK    4  A    between atoms: C11_14  and  C12_16 
REMARK    5  A    between atoms: C15_19  and  C16_20 
REMARK    6  A    between atoms: C16_20  and  N3_21 
REMARK    7  A    between atoms: N3_21  and  C17_22 
REMARK    8  A    between atoms: N3_21  and  C19_25 
REMARK    9  A    between atoms: C17_22  and  C18_23 
REMARK   10  A    between atoms: C18_23  and  O2_24 
REMARK   11  A    between atoms: C19_25  and  C20_26 
ROOT
ATOM      1  C12 NON d   1     -43.551  17.853  -4.575  0.00  0.00     0.032 A 
ATOM      2  C13 NON d   1     -42.943  18.793  -5.427  0.00  0.00     0.017 A 
ATOM      3  C14 NON d   1     -41.566  19.059  -5.391  0.00  0.00     0.010 A 
ATOM      4  C15 NON d   1     -40.736  18.437  -4.458  0.00  0.00    -0.033 A 
ATOM      5  C27 NON d   1     -41.343  17.467  -3.625  0.00  0.00     0.010 A 
ATOM      6  C28 NON d   1     -42.724  17.174  -3.675  0.00  0.00     0.017 A 
ENDROOT
BRANCH   1   7
ATOM      7  C11 NON d   1     -45.036  17.680  -4.708  0.00  0.00     0.256 C 
ATOM      8  N2  NON d   1     -45.768  17.278  -3.602  0.00  0.00    -0.321 N 
ATOM      9  H9  NON d   1     -45.308  17.118  -2.716  0.00  0.00     0.169 HD
ATOM     10  O1  NON d   1     -45.503  17.897  -5.824  0.00  0.00    -0.267 OA
BRANCH   8  11
ATOM     11  C10 NON d   1     -47.182  17.081  -3.544  0.00  0.00     0.057 A 
ATOM     12  C9  NON d   1     -47.971  17.425  -2.433  0.00  0.00     0.044 A 
ATOM     13  C4  NON d   1     -49.355  17.163  -2.372  0.00  0.00    -0.017 A 
ATOM     14  C3  NON d   1     -49.932  16.512  -3.471  0.00  0.00     0.014 A 
ATOM     15  C2  NON d   1     -49.167  16.163  -4.591  0.00  0.00     0.026 A 
ATOM     16  C1  NON d   1     -47.805  16.483  -4.657  0.00  0.00     0.033 A 
BRANCH  13  17
ATOM     17  C5  NON d   1     -50.193  17.541  -1.199  0.00  0.00     0.015 A 
ATOM     18  C6  NON d   1     -49.798  17.990   0.055  0.00  0.00     0.020 A 
ATOM     19  C7  NON d   1     -50.888  18.258   0.936  0.00  0.00     0.008 A 
ATOM     20  C8  NON d   1     -52.100  18.007   0.341  0.00  0.00     0.050 A 
ATOM     21  S1  NON d   1     -51.917  17.460  -1.260  0.00  0.00    -0.101 SA
ENDBRANCH  13  17
BRANCH  16  22
ATOM     22  N1  NON d   1     -47.065  16.130  -5.810  0.00  0.00    -0.301 NA
ATOM     23  H1  NON d   1     -47.056  16.873  -6.504  0.00  0.00     0.124 HD
ATOM     24  H2  NON d   1     -46.111  15.882  -5.556  0.00  0.00     0.124 HD
ENDBRANCH  16  22
ENDBRANCH   8  11
ENDBRANCH   1   7
BRANCH   4  25
ATOM     25  C16 NON d   1     -39.241  18.668  -4.335  0.00  0.00     0.273 C 
BRANCH  25  26
ATOM     26  N3  NON d   1     -38.409  19.452  -5.365  0.00  0.00    -0.061 N 
ATOM     27  H14 NON d   1     -39.087  19.575  -6.125  0.00  0.00     0.280 HD
BRANCH  26  28
ATOM     28  C17 NON d   1     -37.324  18.646  -6.063  0.00  0.00     0.261 C 
BRANCH  28  29
ATOM     29  C18 NON d   1     -37.441  18.589  -7.588  0.00  0.00     0.192 C 
BRANCH  29  30
ATOM     30  O2  NON d   1     -38.804  18.408  -7.942  0.00  0.00    -0.399 OA
ATOM     31  H19 NON d   1     -38.920  18.676  -8.874  0.00  0.00     0.209 HD
ENDBRANCH  29  30
ENDBRANCH  28  29
ENDBRANCH  26  28
BRANCH  26  32
ATOM     32  C19 NON d   1     -38.123  20.891  -4.986  0.00  0.00     0.274 C 
BRANCH  32  33
ATOM     33  C20 NON d   1     -38.596  21.990  -5.917  0.00  0.00    -0.030 A 
ATOM     34  C21 NON d   1     -39.412  23.050  -5.446  0.00  0.00     0.012 A 
ATOM     35  C22 NON d   1     -39.974  23.994  -6.314  0.00  0.00     0.040 A 
ATOM     36  C23 NON d   1     -39.757  23.835  -7.661  0.00  0.00     0.105 A 
ATOM     37  C24 NON d   1     -38.980  22.813  -8.145  0.00  0.00     0.105 A 
ATOM     38  O4  NON d   1     -40.289  24.600  -8.646  0.00  0.00    -0.323 OA
ATOM     39  C25 NON d   1     -38.372  21.892  -7.306  0.00  0.00     0.048 A 
ATOM     40  O3  NON d   1     -38.937  22.803  -9.504  0.00  0.00    -0.323 OA
ATOM     41  C26 NON d   1     -39.846  23.885  -9.818  0.00  0.00     0.352 A 
ENDBRANCH  32  33
ENDBRANCH  26  32
ENDBRANCH  25  26
ENDBRANCH   4  25
TORSDOF 11
ENDMDL
MODEL 9
REMARK VINA RESULT:   -21.928      3.875      5.077
REMARK INTER + INTRA:         -28.214
REMARK INTER:                 -25.209
REMARK INTRA:                  -3.005
REMARK CONF_INDEPENDENT:        3.281
REMARK UNBOUND:                -3.005
REMARK  11 active torsions:
REMARK  status: ('A' for Active; 'I' for Inactive)
REMARK    1  A    between atoms: N1_1  and  C1_2 
REMARK    2  A    between atoms: C4_5  and  C5_6 
REMARK    3  A    between atoms: C10_12  and  N2_13 
REMARK       I    between atoms: N2_13  and  C11_14 
REMARK    4  A    between atoms: C11_14  and  C12_16 
REMARK    5  A    between atoms: C15_19  and  C16_20 
REMARK    6  A    between atoms: C16_20  and  N3_21 
REMARK    7  A    between atoms: N3_21  and  C17_22 
REMARK    8  A    between atoms: N3_21  and  C19_25 
REMARK    9  A    between atoms: C17_22  and  C18_23 
REMARK   10  A    between atoms: C18_23  and  O2_24 
REMARK   11  A    between atoms: C19_25  and  C20_26 
ROOT
ATOM      1  C12 NON d   1     -43.611  17.984  -4.567  0.00  0.00     0.032 A 
ATOM      2  C13 NON d   1     -42.961  17.268  -3.545  0.00  0.00     0.017 A 
ATOM      3  C14 NON d   1     -41.578  17.360  -3.326  0.00  0.00     0.010 A 
ATOM      4  C15 NON d   1     -40.766  18.134  -4.156  0.00  0.00    -0.033 A 
ATOM      5  C27 NON d   1     -41.426  18.880  -5.161  0.00  0.00     0.010 A 
ATOM      6  C28 NON d   1     -42.822  18.813  -5.370  0.00  0.00     0.017 A 
ENDROOT
BRANCH   1   7
ATOM      7  C11 NON d   1     -45.091  17.777  -4.702  0.00  0.00     0.256 C 
ATOM      8  N2  NON d   1     -45.810  17.327  -3.606  0.00  0.00    -0.321 N 
ATOM      9  H9  NON d   1     -45.344  17.155  -2.725  0.00  0.00     0.169 HD
ATOM     10  O1  NON d   1     -45.566  18.012  -5.811  0.00  0.00    -0.267 OA
BRANCH   8  11
ATOM     11  C10 NON d   1     -47.218  17.093  -3.551  0.00  0.00     0.057 A 
ATOM     12  C9  NON d   1     -48.019  17.424  -2.445  0.00  0.00     0.044 A 
ATOM     13  C4  NON d   1     -49.397  17.126  -2.386  0.00  0.00    -0.017 A 
ATOM     14  C3  NON d   1     -49.952  16.453  -3.482  0.00  0.00     0.014 A 
ATOM     15  C2  NON d   1     -49.176  16.117  -4.597  0.00  0.00     0.026 A 
ATOM     16  C1  NON d   1     -47.822  16.472  -4.661  0.00  0.00     0.033 A 
BRANCH  13  17
ATOM     17  C5  NON d   1     -50.247  17.490  -1.218  0.00  0.00     0.015 A 
ATOM     18  C6  NON d   1     -49.868  17.819   0.078  0.00  0.00     0.020 A 
ATOM     19  C7  NON d   1     -50.968  18.114   0.938  0.00  0.00     0.008 A 
ATOM     20  C8  NON d   1     -52.171  18.003   0.286  0.00  0.00     0.050 A 
ATOM     21  S1  NON d   1     -51.969  17.553  -1.343  0.00  0.00    -0.101 SA
ENDBRANCH  13  17
BRANCH  16  22
ATOM     22  N1  NON d   1     -47.070  16.131  -5.810  0.00  0.00    -0.301 NA
ATOM     23  H1  NON d   1     -47.178  16.811  -6.558  0.00  0.00     0.124 HD
ATOM     24  H2  NON d   1     -46.085  16.033  -5.571  0.00  0.00     0.124 HD
ENDBRANCH  16  22
ENDBRANCH   8  11
ENDBRANCH   1   7
BRANCH   4  25
ATOM     25  C16 NON d   1     -39.265  18.287  -4.005  0.00  0.00     0.273 C 
BRANCH  25  26
ATOM     26  N3  NON d   1     -38.352  18.887  -5.090  0.00  0.00    -0.061 N 
ATOM     27  H14 NON d   1     -38.830  18.589  -5.947  0.00  0.00     0.280 HD
BRANCH  26  28
ATOM     28  C17 NON d   1     -37.004  18.199  -5.248  0.00  0.00     0.261 C 
BRANCH  28  29
ATOM     29  C18 NON d   1     -36.531  18.028  -6.694  0.00  0.00     0.192 C 
BRANCH  29  30
ATOM     30  O2  NON d   1     -37.643  18.170  -7.565  0.00  0.00    -0.399 OA
ATOM     31  H19 NON d   1     -37.914  19.109  -7.571  0.00  0.00     0.209 HD
ENDBRANCH  29  30
ENDBRANCH  28  29
ENDBRANCH  26  28
BRANCH  26  32
ATOM     32  C19 NON d   1     -38.424  20.395  -5.217  0.00  0.00     0.274 C 
BRANCH  32  33
ATOM     33  C20 NON d   1     -38.770  20.989  -6.569  0.00  0.00    -0.030 A 
ATOM     34  C21 NON d   1     -40.066  20.838  -7.125  0.00  0.00     0.012 A 
ATOM     35  C22 NON d   1     -40.364  21.255  -8.428  0.00  0.00     0.040 A 
ATOM     36  C23 NON d   1     -39.342  21.774  -9.186  0.00  0.00     0.105 A 
ATOM     37  C24 NON d   1     -38.077  21.921  -8.675  0.00  0.00     0.105 A 
ATOM     38  O4  NON d   1     -39.429  22.148 -10.486  0.00  0.00    -0.323 OA
ATOM     39  C25 NON d   1     -37.764  21.562  -7.373  0.00  0.00     0.048 A 
ATOM     40  O3  NON d   1     -37.204  22.401  -9.601  0.00  0.00    -0.323 OA
ATOM     41  C26 NON d   1     -38.049  22.455 -10.775  0.00  0.00     0.352 A 
ENDBRANCH  32  33
ENDBRANCH  26  32
ENDBRANCH  25  26
ENDBRANCH   4  25
TORSDOF 11
ENDMDL
