MODEL 1
REMARK VINA RESULT:   -13.123      0.000      0.000
REMARK INTER + INTRA:         -14.546
REMARK INTER:                 -13.719
REMARK INTRA:                  -0.826
REMARK CONF_INDEPENDENT:        0.597
REMARK UNBOUND:                -0.826
REMARK  2 active torsions:
REMARK  status: ('A' for Active; 'I' for Inactive)
REMARK       I    between atoms: C1_2  and  N1_3 
REMARK    1  A    between atoms: C1_2  and  C2_5 
REMARK    2  A    between atoms: N1_3  and  O2_4 
ROOT
ATOM      1  O1  NON d   1     -46.904  15.075  -6.104  0.00  0.00    -0.266 OA
ATOM      2  C1  NON d   1     -47.506  15.918  -5.443  0.00  0.00     0.270 C 
ATOM      3  N1  NON d   1     -47.270  17.257  -5.586  0.00  0.00    -0.234 N 
ATOM      4  H1  NON d   1     -47.757  18.004  -5.108  0.00  0.00     0.197 HD
ENDROOT
BRANCH   2   5
ATOM      5  C2  NON d   1     -48.543  15.562  -4.451  0.00  0.00     0.008 C 
ATOM      6  C3  NON d   1     -48.544  16.053  -3.205  0.00  0.00    -0.014 C 
ATOM      7  C4  NON d   1     -49.673  15.517  -2.394  0.00  0.00     0.028 C 
ATOM      8  C5  NON d   1     -50.541  14.805  -3.430  0.00  0.00     0.009 C 
ATOM      9  C6  NON d   1     -49.676  14.619  -4.679  0.00  0.00     0.044 C 
ENDBRANCH   2   5
BRANCH   3  10
ATOM     10  O2  NON d   1     -46.316  17.630  -6.557  0.00  0.00    -0.287 OA
ATOM     11  H2  NON d   1     -46.374  16.886  -7.197  0.00  0.00     0.244 HD
ENDBRANCH   3  10
TORSDOF 2
ENDMDL
MODEL 2
REMARK VINA RESULT:   -13.042      0.180      1.324
REMARK INTER + INTRA:         -14.442
REMARK INTER:                 -13.638
REMARK INTRA:                  -0.804
REMARK CONF_INDEPENDENT:        0.597
REMARK UNBOUND:                -0.804
REMARK  2 active torsions:
REMARK  status: ('A' for Active; 'I' for Inactive)
REMARK       I    between atoms: C1_2  and  N1_3 
REMARK    1  A    between atoms: C1_2  and  C2_5 
REMARK    2  A    between atoms: N1_3  and  O2_4 
ROOT
ATOM      1  O1  NON d   1     -46.863  15.074  -6.063  0.00  0.00    -0.266 OA
ATOM      2  C1  NON d   1     -47.490  15.917  -5.427  0.00  0.00     0.270 C 
ATOM      3  N1  NON d   1     -47.277  17.258  -5.593  0.00  0.00    -0.234 N 
ATOM      4  H1  NON d   1     -47.784  18.005  -5.136  0.00  0.00     0.197 HD
ENDROOT
BRANCH   2   5
ATOM      5  C2  NON d   1     -48.534  15.561  -4.444  0.00  0.00     0.008 C 
ATOM      6  C3  NON d   1     -49.474  14.640  -4.695  0.00  0.00    -0.014 C 
ATOM      7  C4  NON d   1     -50.426  14.488  -3.560  0.00  0.00     0.028 C 
ATOM      8  C5  NON d   1     -49.762  15.285  -2.438  0.00  0.00     0.009 C 
ATOM      9  C6  NON d   1     -48.701  16.172  -3.094  0.00  0.00     0.044 C 
ENDBRANCH   2   5
BRANCH   3  10
ATOM     10  O2  NON d   1     -46.315  17.630  -6.558  0.00  0.00    -0.287 OA
ATOM     11  H2  NON d   1     -46.384  16.896  -7.209  0.00  0.00     0.244 HD
ENDBRANCH   3  10
TORSDOF 2
ENDMDL
MODEL 3
REMARK VINA RESULT:   -12.980      1.333      1.898
REMARK INTER + INTRA:         -14.409
REMARK INTER:                 -13.576
REMARK INTRA:                  -0.833
REMARK CONF_INDEPENDENT:        0.597
REMARK UNBOUND:                -0.833
REMARK  2 active torsions:
REMARK  status: ('A' for Active; 'I' for Inactive)
REMARK       I    between atoms: C1_2  and  N1_3 
REMARK    1  A    between atoms: C1_2  and  C2_5 
REMARK    2  A    between atoms: N1_3  and  O2_4 
ROOT
ATOM      1  O1  NON d   1     -47.442  17.257  -5.814  0.00  0.00    -0.266 OA
ATOM      2  C1  NON d   1     -47.554  16.300  -5.052  0.00  0.00     0.270 C 
ATOM      3  N1  NON d   1     -47.025  15.073  -5.345  0.00  0.00    -0.234 N 
ATOM      4  H1  NON d   1     -47.042  14.257  -4.747  0.00  0.00     0.197 HD
ENDROOT
BRANCH   2   5
ATOM      5  C2  NON d   1     -48.252  16.392  -3.752  0.00  0.00     0.008 C 
ATOM      6  C3  NON d   1     -47.677  16.922  -2.664  0.00  0.00    -0.014 C 
ATOM      7  C4  NON d   1     -48.574  16.869  -1.476  0.00  0.00     0.028 C 
ATOM      8  C5  NON d   1     -49.918  16.455  -2.072  0.00  0.00     0.009 C 
ATOM      9  C6  NON d   1     -49.632  15.903  -3.470  0.00  0.00     0.044 C 
ENDBRANCH   2   5
BRANCH   3  10
ATOM     10  O2  NON d   1     -46.315  14.965  -6.560  0.00  0.00    -0.287 OA
ATOM     11  H2  NON d   1     -46.738  15.664  -7.107  0.00  0.00     0.244 HD
ENDBRANCH   3  10
TORSDOF 2
ENDMDL
MODEL 4
REMARK VINA RESULT:   -12.002      3.413      5.043
REMARK INTER + INTRA:         -13.432
REMARK INTER:                 -12.598
REMARK INTRA:                  -0.834
REMARK CONF_INDEPENDENT:        0.597
REMARK UNBOUND:                -0.834
REMARK  2 active torsions:
REMARK  status: ('A' for Active; 'I' for Inactive)
REMARK       I    between atoms: C1_2  and  N1_3 
REMARK    1  A    between atoms: C1_2  and  C2_5 
REMARK    2  A    between atoms: N1_3  and  O2_4 
ROOT
ATOM      1  O1  NON d   1     -46.835  17.826  -6.185  0.00  0.00    -0.266 OA
ATOM      2  C1  NON d   1     -46.183  17.061  -5.479  0.00  0.00     0.270 C 
ATOM      3  N1  NON d   1     -46.602  15.787  -5.210  0.00  0.00    -0.234 N 
ATOM      4  H1  NON d   1     -46.097  15.092  -4.675  0.00  0.00     0.197 HD
ENDROOT
BRANCH   2   5
ATOM      5  C2  NON d   1     -44.890  17.441  -4.872  0.00  0.00     0.008 C 
ATOM      6  C3  NON d   1     -44.216  16.628  -4.049  0.00  0.00    -0.014 C 
ATOM      7  C4  NON d   1     -42.961  17.255  -3.547  0.00  0.00     0.028 C 
ATOM      8  C5  NON d   1     -42.827  18.508  -4.411  0.00  0.00     0.009 C 
ATOM      9  C6  NON d   1     -44.193  18.745  -5.060  0.00  0.00     0.044 C 
ENDBRANCH   2   5
BRANCH   3  10
ATOM     10  O2  NON d   1     -47.813  15.380  -5.812  0.00  0.00    -0.287 OA
ATOM     11  H2  NON d   1     -47.848  15.954  -6.610  0.00  0.00     0.244 HD
ENDBRANCH   3  10
TORSDOF 2
ENDMDL
MODEL 5
REMARK VINA RESULT:   -11.854      3.474      5.098
REMARK INTER + INTRA:         -13.280
REMARK INTER:                 -12.451
REMARK INTRA:                  -0.829
REMARK CONF_INDEPENDENT:        0.597
REMARK UNBOUND:                -0.829
REMARK  2 active torsions:
REMARK  status: ('A' for Active; 'I' for Inactive)
REMARK       I    between atoms: C1_2  and  N1_3 
REMARK    1  A    between atoms: C1_2  and  C2_5 
REMARK    2  A    between atoms: N1_3  and  O2_4 
ROOT
ATOM      1  O1  NON d   1     -46.776  17.832  -6.204  0.00  0.00    -0.266 OA
ATOM      2  C1  NON d   1     -46.095  17.060  -5.534  0.00  0.00     0.270 C 
ATOM      3  N1  NON d   1     -46.504  15.784  -5.259  0.00  0.00    -0.234 N 
ATOM      4  H1  NON d   1     -45.977  15.084  -4.753  0.00  0.00     0.197 HD
ENDROOT
BRANCH   2   5
ATOM      5  C2  NON d   1     -44.775  17.433  -4.982  0.00  0.00     0.008 C 
ATOM      6  C3  NON d   1     -44.291  18.679  -5.059  0.00  0.00    -0.014 C 
ATOM      7  C4  NON d   1     -42.931  18.788  -4.459  0.00  0.00     0.028 C 
ATOM      8  C5  NON d   1     -42.755  17.448  -3.749  0.00  0.00     0.009 C 
ATOM      9  C6  NON d   1     -43.821  16.505  -4.311  0.00  0.00     0.044 C 
ENDBRANCH   2   5
BRANCH   3  10
ATOM     10  O2  NON d   1     -47.741  15.385  -5.810  0.00  0.00    -0.287 OA
ATOM     11  H2  NON d   1     -47.817  15.975  -6.592  0.00  0.00     0.244 HD
ENDBRANCH   3  10
TORSDOF 2
ENDMDL
