MODEL 1
REMARK VINA RESULT:   -14.149      0.000      0.000
REMARK INTER + INTRA:         -18.077
REMARK INTER:                 -16.536
REMARK INTRA:                  -1.541
REMARK CONF_INDEPENDENT:        2.386
REMARK UNBOUND:                -1.541
REMARK  8 active torsions:
REMARK  status: ('A' for Active; 'I' for Inactive)
REMARK    1  A    between atoms: C2_2  and  C4_4 
REMARK    2  A    between atoms: C4_4  and  N1_5 
REMARK    3  A    between atoms: N1_5  and  C5_6 
REMARK    4  A    between atoms: C5_6  and  C6_7 
REMARK    5  A    between atoms: C9_10  and  C10_11 
REMARK       I    between atoms: C10_11  and  N2_13 
REMARK    6  A    between atoms: N2_13  and  C11_14 
REMARK    7  A    between atoms: C13_16  and  C14_17 
REMARK    8  A    between atoms: C22_25  and  O2_26 
ROOT
ATOM      1  C10 NON d   1     -45.923  16.967  -4.602  0.00  0.00     0.256 C 
ATOM      2  O1  NON d   1     -46.102  17.067  -5.810  0.00  0.00    -0.267 OA
ATOM      3  N2  NON d   1     -44.805  17.308  -3.860  0.00  0.00    -0.320 N 
ATOM      4  H16 NON d   1     -44.731  16.914  -2.932  0.00  0.00     0.169 HD
ENDROOT
BRANCH   1   5
ATOM      5  C9  NON d   1     -47.017  16.267  -3.879  0.00  0.00     0.032 C 
ATOM      6  C8  NON d   1     -47.763  15.306  -4.562  0.00  0.00     0.017 C 
ATOM      7  C7  NON d   1     -49.074  15.014  -4.149  0.00  0.00     0.010 C 
ATOM      8  C6  NON d   1     -49.668  15.687  -3.062  0.00  0.00    -0.033 C 
ATOM      9  C24 NON d   1     -48.836  16.505  -2.274  0.00  0.00     0.010 C 
ATOM     10  C23 NON d   1     -47.530  16.824  -2.702  0.00  0.00     0.017 C 
BRANCH   8  11
ATOM     11  C5  NON d   1     -51.159  15.519  -2.810  0.00  0.00     0.270 C 
BRANCH  11  12
ATOM     12  N1  NON d   1     -51.925  16.732  -2.317  0.00  0.00    -0.071 N 
ATOM     13  H10 NON d   1     -51.508  17.586  -2.706  0.00  0.00     0.277 HD
ATOM     14  H11 NON d   1     -51.725  16.794  -1.311  0.00  0.00     0.277 HD
BRANCH  12  15
ATOM     15  C4  NON d   1     -53.447  16.801  -2.434  0.00  0.00     0.236 C 
BRANCH  15  16
ATOM     16  C2  NON d   1     -54.169  17.605  -1.313  0.00  0.00     0.003 C 
ATOM     17  C1  NON d   1     -53.227  18.416  -0.437  0.00  0.00     0.011 C 
ATOM     18  C3  NON d   1     -55.315  18.380  -1.988  0.00  0.00     0.011 C 
ENDBRANCH  15  16
ENDBRANCH  12  15
ENDBRANCH  11  12
ENDBRANCH   8  11
ENDBRANCH   1   5
BRANCH   3  19
ATOM     19  C11 NON d   1     -43.648  17.995  -4.346  0.00  0.00     0.069 A 
ATOM     20  C12 NON d   1     -42.405  17.692  -3.742  0.00  0.00     0.044 A 
ATOM     21  C13 NON d   1     -41.173  18.263  -4.168  0.00  0.00    -0.024 A 
ATOM     22  C20 NON d   1     -41.247  19.148  -5.259  0.00  0.00     0.015 A 
ATOM     23  C21 NON d   1     -42.471  19.505  -5.833  0.00  0.00     0.040 A 
ATOM     24  C22 NON d   1     -43.655  18.957  -5.361  0.00  0.00     0.092 A 
BRANCH  21  25
ATOM     25  C14 NON d   1     -39.859  17.967  -3.498  0.00  0.00    -0.026 A 
ATOM     26  C15 NON d   1     -38.627  18.410  -4.016  0.00  0.00     0.012 A 
ATOM     27  C16 NON d   1     -37.400  18.103  -3.405  0.00  0.00     0.001 A 
ATOM     28  C17 NON d   1     -37.365  17.353  -2.237  0.00  0.00     0.000 A 
ATOM     29  C18 NON d   1     -38.555  16.906  -1.685  0.00  0.00     0.001 A 
ATOM     30  C19 NON d   1     -39.776  17.203  -2.310  0.00  0.00     0.012 A 
ENDBRANCH  21  25
BRANCH  24  31
ATOM     31  O2  NON d   1     -44.815  19.492  -5.839  0.00  0.00    -0.358 OA
ATOM     32  H25 NON d   1     -45.542  19.114  -5.316  0.00  0.00     0.217 HD
ENDBRANCH  24  31
ENDBRANCH   3  19
TORSDOF 8
ENDMDL
MODEL 2
REMARK VINA RESULT:   -12.362      1.973     10.522
REMARK INTER + INTRA:         -16.567
REMARK INTER:                 -14.749
REMARK INTRA:                  -1.818
REMARK CONF_INDEPENDENT:        2.386
REMARK UNBOUND:                -1.818
REMARK  8 active torsions:
REMARK  status: ('A' for Active; 'I' for Inactive)
REMARK    1  A    between atoms: C2_2  and  C4_4 
REMARK    2  A    between atoms: C4_4  and  N1_5 
REMARK    3  A    between atoms: N1_5  and  C5_6 
REMARK    4  A    between atoms: C5_6  and  C6_7 
REMARK    5  A    between atoms: C9_10  and  C10_11 
REMARK       I    between atoms: C10_11  and  N2_13 
REMARK    6  A    between atoms: N2_13  and  C11_14 
REMARK    7  A    between atoms: C13_16  and  C14_17 
REMARK    8  A    between atoms: C22_25  and  O2_26 
ROOT
ATOM      1  C10 NON d   1     -45.552  17.226  -4.653  0.00  0.00     0.256 C 
ATOM      2  O1  NON d   1     -45.610  16.827  -5.810  0.00  0.00    -0.267 OA
ATOM      3  N2  NON d   1     -46.523  17.173  -3.668  0.00  0.00    -0.320 N 
ATOM      4  H16 NON d   1     -46.403  17.780  -2.869  0.00  0.00     0.169 HD
ENDROOT
BRANCH   1   5
ATOM      5  C9  NON d   1     -44.310  17.975  -4.328  0.00  0.00     0.032 C 
ATOM      6  C8  NON d   1     -43.876  18.967  -5.207  0.00  0.00     0.017 C 
ATOM      7  C7  NON d   1     -42.516  19.317  -5.252  0.00  0.00     0.010 C 
ATOM      8  C6  NON d   1     -41.565  18.673  -4.433  0.00  0.00    -0.033 C 
ATOM      9  C24 NON d   1     -42.052  17.822  -3.422  0.00  0.00     0.010 C 
ATOM     10  C23 NON d   1     -43.411  17.444  -3.395  0.00  0.00     0.017 C 
BRANCH   8  11
ATOM     11  C5  NON d   1     -40.085  18.907  -4.689  0.00  0.00     0.270 C 
BRANCH  11  12
ATOM     12  N1  NON d   1     -39.690  20.207  -5.367  0.00  0.00    -0.071 N 
ATOM     13  H10 NON d   1     -38.978  20.688  -4.804  0.00  0.00     0.277 HD
ATOM     14  H11 NON d   1     -40.515  20.815  -5.296  0.00  0.00     0.277 HD
BRANCH  12  15
ATOM     15  C4  NON d   1     -39.289  20.235  -6.841  0.00  0.00     0.236 C 
BRANCH  15  16
ATOM     16  C2  NON d   1     -40.282  19.543  -7.819  0.00  0.00     0.003 C 
ATOM     17  C1  NON d   1     -40.954  20.502  -8.790  0.00  0.00     0.011 C 
ATOM     18  C3  NON d   1     -39.538  18.347  -8.440  0.00  0.00     0.011 C 
ENDBRANCH  15  16
ENDBRANCH  12  15
ENDBRANCH  11  12
ENDBRANCH   8  11
ENDBRANCH   1   5
BRANCH   3  19
ATOM     19  C11 NON d   1     -47.782  16.497  -3.760  0.00  0.00     0.069 A 
ATOM     20  C12 NON d   1     -48.844  16.979  -2.960  0.00  0.00     0.044 A 
ATOM     21  C13 NON d   1     -50.158  16.434  -2.999  0.00  0.00    -0.024 A 
ATOM     22  C20 NON d   1     -50.362  15.380  -3.908  0.00  0.00     0.015 A 
ATOM     23  C21 NON d   1     -49.314  14.851  -4.667  0.00  0.00     0.040 A 
ATOM     24  C22 NON d   1     -48.036  15.386  -4.570  0.00  0.00     0.092 A 
BRANCH  21  25
ATOM     25  C14 NON d   1     -51.274  16.924  -2.117  0.00  0.00    -0.026 A 
ATOM     26  C15 NON d   1     -52.632  16.734  -2.437  0.00  0.00     0.012 A 
ATOM     27  C16 NON d   1     -53.670  17.223  -1.628  0.00  0.00     0.001 A 
ATOM     28  C17 NON d   1     -53.384  17.908  -0.454  0.00  0.00     0.000 A 
ATOM     29  C18 NON d   1     -52.061  18.107  -0.094  0.00  0.00     0.001 A 
ATOM     30  C19 NON d   1     -51.028  17.629  -0.915  0.00  0.00     0.012 A 
ENDBRANCH  21  25
BRANCH  24  31
ATOM     31  O2  NON d   1     -47.034  14.702  -5.191  0.00  0.00    -0.358 OA
ATOM     32  H25 NON d   1     -46.739  15.244  -5.942  0.00  0.00     0.217 HD
ENDBRANCH  24  31
ENDBRANCH   3  19
TORSDOF 8
ENDMDL
MODEL 3
REMARK VINA RESULT:   -12.325      1.770     10.484
REMARK INTER + INTRA:         -16.470
REMARK INTER:                 -14.711
REMARK INTRA:                  -1.759
REMARK CONF_INDEPENDENT:        2.386
REMARK UNBOUND:                -1.759
REMARK  8 active torsions:
REMARK  status: ('A' for Active; 'I' for Inactive)
REMARK    1  A    between atoms: C2_2  and  C4_4 
REMARK    2  A    between atoms: C4_4  and  N1_5 
REMARK    3  A    between atoms: N1_5  and  C5_6 
REMARK    4  A    between atoms: C5_6  and  C6_7 
REMARK    5  A    between atoms: C9_10  and  C10_11 
REMARK       I    between atoms: C10_11  and  N2_13 
REMARK    6  A    between atoms: N2_13  and  C11_14 
REMARK    7  A    between atoms: C13_16  and  C14_17 
REMARK    8  A    between atoms: C22_25  and  O2_26 
ROOT
ATOM      1  C10 NON d   1     -45.214  17.077  -4.648  0.00  0.00     0.256 C 
ATOM      2  O1  NON d   1     -45.563  17.057  -5.822  0.00  0.00    -0.267 OA
ATOM      3  N2  NON d   1     -45.976  16.852  -3.514  0.00  0.00    -0.320 N 
ATOM      4  H16 NON d   1     -45.596  17.169  -2.633  0.00  0.00     0.169 HD
ENDROOT
BRANCH   1   5
ATOM      5  C9  NON d   1     -43.815  17.530  -4.434  0.00  0.00     0.032 C 
ATOM      6  C8  NON d   1     -43.069  16.944  -3.412  0.00  0.00     0.017 C 
ATOM      7  C7  NON d   1     -42.003  17.649  -2.830  0.00  0.00     0.010 C 
ATOM      8  C6  NON d   1     -41.674  18.956  -3.245  0.00  0.00    -0.033 C 
ATOM      9  C24 NON d   1     -42.310  19.448  -4.401  0.00  0.00     0.010 C 
ATOM     10  C23 NON d   1     -43.401  18.756  -4.968  0.00  0.00     0.017 C 
BRANCH   8  11
ATOM     11  C5  NON d   1     -40.682  19.767  -2.426  0.00  0.00     0.270 C 
BRANCH  11  12
ATOM     12  N1  NON d   1     -39.392  19.083  -2.011  0.00  0.00    -0.071 N 
ATOM     13  H10 NON d   1     -39.598  18.138  -1.667  0.00  0.00     0.277 HD
ATOM     14  H11 NON d   1     -39.070  19.587  -1.176  0.00  0.00     0.277 HD
BRANCH  12  15
ATOM     15  C4  NON d   1     -38.188  19.040  -2.951  0.00  0.00     0.236 C 
BRANCH  15  16
ATOM     16  C2  NON d   1     -37.573  17.630  -3.187  0.00  0.00     0.003 C 
ATOM     17  C1  NON d   1     -36.426  17.621  -4.186  0.00  0.00     0.011 C 
ATOM     18  C3  NON d   1     -37.278  17.034  -1.798  0.00  0.00     0.011 C 
ENDBRANCH  15  16
ENDBRANCH  12  15
ENDBRANCH  11  12
ENDBRANCH   8  11
ENDBRANCH   1   5
BRANCH   3  19
ATOM     19  C11 NON d   1     -47.334  16.400  -3.486  0.00  0.00     0.069 A 
ATOM     20  C12 NON d   1     -48.197  16.981  -2.528  0.00  0.00     0.044 A 
ATOM     21  C13 NON d   1     -49.581  16.662  -2.432  0.00  0.00    -0.024 A 
ATOM     22  C20 NON d   1     -50.067  15.735  -3.371  0.00  0.00     0.015 A 
ATOM     23  C21 NON d   1     -49.220  15.106  -4.289  0.00  0.00     0.040 A 
ATOM     24  C22 NON d   1     -47.867  15.416  -4.323  0.00  0.00     0.092 A 
BRANCH  21  25
ATOM     25  C14 NON d   1     -50.487  17.255  -1.387  0.00  0.00    -0.026 A 
ATOM     26  C15 NON d   1     -51.885  17.315  -1.542  0.00  0.00     0.012 A 
ATOM     27  C16 NON d   1     -52.724  17.899  -0.578  0.00  0.00     0.001 A 
ATOM     28  C17 NON d   1     -52.190  18.429   0.589  0.00  0.00     0.000 A 
ATOM     29  C18 NON d   1     -50.820  18.380   0.789  0.00  0.00     0.001 A 
ATOM     30  C19 NON d   1     -49.986  17.809  -0.185  0.00  0.00     0.012 A 
ENDBRANCH  21  25
BRANCH  24  31
ATOM     31  O2  NON d   1     -47.076  14.630  -5.108  0.00  0.00    -0.358 OA
ATOM     32  H25 NON d   1     -46.498  15.223  -5.616  0.00  0.00     0.217 HD
ENDBRANCH  24  31
ENDBRANCH   3  19
TORSDOF 8
ENDMDL
MODEL 4
REMARK VINA RESULT:   -11.924      2.002     10.368
REMARK INTER + INTRA:         -16.112
REMARK INTER:                 -14.310
REMARK INTRA:                  -1.802
REMARK CONF_INDEPENDENT:        2.386
REMARK UNBOUND:                -1.802
REMARK  8 active torsions:
REMARK  status: ('A' for Active; 'I' for Inactive)
REMARK    1  A    between atoms: C2_2  and  C4_4 
REMARK    2  A    between atoms: C4_4  and  N1_5 
REMARK    3  A    between atoms: N1_5  and  C5_6 
REMARK    4  A    between atoms: C5_6  and  C6_7 
REMARK    5  A    between atoms: C9_10  and  C10_11 
REMARK       I    between atoms: C10_11  and  N2_13 
REMARK    6  A    between atoms: N2_13  and  C11_14 
REMARK    7  A    between atoms: C13_16  and  C14_17 
REMARK    8  A    between atoms: C22_25  and  O2_26 
ROOT
ATOM      1  C10 NON d   1     -45.573  17.216  -4.619  0.00  0.00     0.256 C 
ATOM      2  O1  NON d   1     -45.685  16.951  -5.810  0.00  0.00    -0.267 OA
ATOM      3  N2  NON d   1     -46.505  17.066  -3.606  0.00  0.00    -0.320 N 
ATOM      4  H16 NON d   1     -46.341  17.577  -2.750  0.00  0.00     0.169 HD
ENDROOT
BRANCH   1   5
ATOM      5  C9  NON d   1     -44.305  17.903  -4.263  0.00  0.00     0.032 C 
ATOM      6  C8  NON d   1     -43.864  18.954  -5.067  0.00  0.00     0.017 C 
ATOM      7  C7  NON d   1     -42.496  19.273  -5.116  0.00  0.00     0.010 C 
ATOM      8  C6  NON d   1     -41.545  18.539  -4.379  0.00  0.00    -0.033 C 
ATOM      9  C24 NON d   1     -42.031  17.617  -3.431  0.00  0.00     0.010 C 
ATOM     10  C23 NON d   1     -43.399  17.273  -3.402  0.00  0.00     0.017 C 
BRANCH   8  11
ATOM     11  C5  NON d   1     -40.065  18.756  -4.652  0.00  0.00     0.270 C 
BRANCH  11  12
ATOM     12  N1  NON d   1     -39.135  18.820  -3.454  0.00  0.00    -0.071 N 
ATOM     13  H10 NON d   1     -38.228  19.209  -3.740  0.00  0.00     0.277 HD
ATOM     14  H11 NON d   1     -38.923  17.842  -3.219  0.00  0.00     0.277 HD
BRANCH  12  15
ATOM     15  C4  NON d   1     -39.583  19.466  -2.143  0.00  0.00     0.236 C 
BRANCH  15  16
ATOM     16  C2  NON d   1     -39.170  20.954  -1.955  0.00  0.00     0.003 C 
ATOM     17  C1  NON d   1     -39.235  21.775  -3.234  0.00  0.00     0.011 C 
ATOM     18  C3  NON d   1     -39.971  21.491  -0.755  0.00  0.00     0.011 C 
ENDBRANCH  15  16
ENDBRANCH  12  15
ENDBRANCH  11  12
ENDBRANCH   8  11
ENDBRANCH   1   5
BRANCH   3  19
ATOM     19  C11 NON d   1     -47.780  16.426  -3.722  0.00  0.00     0.069 A 
ATOM     20  C12 NON d   1     -48.838  16.925  -2.926  0.00  0.00     0.044 A 
ATOM     21  C13 NON d   1     -50.165  16.415  -2.987  0.00  0.00    -0.024 A 
ATOM     22  C20 NON d   1     -50.387  15.380  -3.913  0.00  0.00     0.015 A 
ATOM     23  C21 NON d   1     -49.345  14.833  -4.667  0.00  0.00     0.040 A 
ATOM     24  C22 NON d   1     -48.055  15.333  -4.549  0.00  0.00     0.092 A 
BRANCH  21  25
ATOM     25  C14 NON d   1     -51.278  16.924  -2.111  0.00  0.00    -0.026 A 
ATOM     26  C15 NON d   1     -52.637  16.750  -2.435  0.00  0.00     0.012 A 
ATOM     27  C16 NON d   1     -53.672  17.255  -1.631  0.00  0.00     0.001 A 
ATOM     28  C17 NON d   1     -53.381  17.940  -0.460  0.00  0.00     0.000 A 
ATOM     29  C18 NON d   1     -52.057  18.124  -0.095  0.00  0.00     0.001 A 
ATOM     30  C19 NON d   1     -51.027  17.630  -0.911  0.00  0.00     0.012 A 
ENDBRANCH  21  25
BRANCH  24  31
ATOM     31  O2  NON d   1     -47.064  14.630  -5.168  0.00  0.00    -0.358 OA
ATOM     32  H25 NON d   1     -46.625  15.238  -5.786  0.00  0.00     0.217 HD
ENDBRANCH  24  31
ENDBRANCH   3  19
TORSDOF 8
ENDMDL
