MODEL 1
REMARK VINA RESULT:   -34.470      0.000      0.000
REMARK INTER + INTRA:         -37.018
REMARK INTER:                 -36.558
REMARK INTRA:                  -0.460
REMARK CONF_INDEPENDENT:        2.088
REMARK UNBOUND:                -0.460
REMARK  7 active torsions:
REMARK  status: ('A' for Active; 'I' for Inactive)
REMARK    1  A    between atoms: C2_2  and  N1_3 
REMARK    2  A    between atoms: N1_3  and  C3_4 
REMARK    3  A    between atoms: C3_4  and  S2_6 
REMARK    4  A    between atoms: S2_6  and  C4_7 
REMARK    5  A    between atoms: C4_7  and  C5_8 
REMARK    6  A    between atoms: C5_8  and  C6_10 
REMARK    7  A    between atoms: C9_13  and  O2_14 
ROOT
ATOM      1  C5  NON d   1     -43.378  17.684  -5.031  0.00  0.00     0.169 C 
ATOM      2  O1  NON d   1     -43.474  16.495  -5.333  0.00  0.00    -0.291 OA
ENDROOT
BRANCH   1   3
ATOM      3  C4  NON d   1     -44.403  18.759  -5.384  0.00  0.00     0.165 C 
BRANCH   3   4
ATOM      4  S2  NON d   1     -45.909  18.131  -6.187  0.00  0.00    -0.091 SA
BRANCH   4   5
ATOM      5  C3  NON d   1     -46.509  16.827  -5.139  0.00  0.00     0.155 C 
ATOM      6  S1  NON d   1     -45.976  16.594  -3.551  0.00  0.00    -0.051 SA
BRANCH   5   7
ATOM      7  N1  NON d   1     -47.440  16.130  -5.823  0.00  0.00    -0.273 NA
BRANCH   7   8
ATOM      8  C2  NON d   1     -48.279  15.250  -5.001  0.00  0.00     0.146 C 
ATOM      9  C1  NON d   1     -49.071  15.888  -3.845  0.00  0.00     0.028 C 
ENDBRANCH   7   8
ENDBRANCH   5   7
ENDBRANCH   4   5
ENDBRANCH   3   4
ENDBRANCH   1   3
BRANCH   1  10
ATOM     10  C6  NON d   1     -42.107  18.111  -4.346  0.00  0.00     0.011 A 
ATOM     11  C7  NON d   1     -41.173  18.869  -5.078  0.00  0.00     0.018 A 
ATOM     12  C8  NON d   1     -39.993  19.344  -4.486  0.00  0.00     0.037 A 
ATOM     13  C9  NON d   1     -39.724  19.066  -3.149  0.00  0.00     0.068 A 
ATOM     14  C11 NON d   1     -40.647  18.312  -2.414  0.00  0.00     0.037 A 
ATOM     15  C12 NON d   1     -41.828  17.833  -3.006  0.00  0.00     0.018 A 
BRANCH  13  16
ATOM     16  O2  NON d   1     -38.622  19.465  -2.443  0.00  0.00    -0.356 OA
ATOM     17  C10 NON d   1     -37.501  18.587  -2.439  0.00  0.00     0.210 C 
ENDBRANCH  13  16
ENDBRANCH   1  10
TORSDOF 7
ENDMDL
MODEL 2
REMARK VINA RESULT:   -34.459      0.218      1.187
REMARK INTER + INTRA:         -37.028
REMARK INTER:                 -36.547
REMARK INTRA:                  -0.481
REMARK CONF_INDEPENDENT:        2.088
REMARK UNBOUND:                -0.481
REMARK  7 active torsions:
REMARK  status: ('A' for Active; 'I' for Inactive)
REMARK    1  A    between atoms: C2_2  and  N1_3 
REMARK    2  A    between atoms: N1_3  and  C3_4 
REMARK    3  A    between atoms: C3_4  and  S2_6 
REMARK    4  A    between atoms: S2_6  and  C4_7 
REMARK    5  A    between atoms: C4_7  and  C5_8 
REMARK    6  A    between atoms: C5_8  and  C6_10 
REMARK    7  A    between atoms: C9_13  and  O2_14 
ROOT
ATOM      1  C5  NON d   1     -43.364  17.713  -5.071  0.00  0.00     0.169 C 
ATOM      2  O1  NON d   1     -43.477  16.516  -5.335  0.00  0.00    -0.291 OA
ENDROOT
BRANCH   1   3
ATOM      3  C4  NON d   1     -44.417  18.776  -5.378  0.00  0.00     0.165 C 
BRANCH   3   4
ATOM      4  S2  NON d   1     -45.917  18.140  -6.185  0.00  0.00    -0.091 SA
BRANCH   4   5
ATOM      5  C3  NON d   1     -46.506  16.824  -5.145  0.00  0.00     0.155 C 
ATOM      6  S1  NON d   1     -45.962  16.579  -3.563  0.00  0.00    -0.051 SA
BRANCH   5   7
ATOM      7  N1  NON d   1     -47.440  16.131  -5.829  0.00  0.00    -0.273 NA
BRANCH   7   8
ATOM      8  C2  NON d   1     -48.318  15.296  -5.002  0.00  0.00     0.146 C 
ATOM      9  C1  NON d   1     -49.165  15.995  -3.923  0.00  0.00     0.028 C 
ENDBRANCH   7   8
ENDBRANCH   5   7
ENDBRANCH   4   5
ENDBRANCH   3   4
ENDBRANCH   1   3
BRANCH   1  10
ATOM     10  C6  NON d   1     -42.048  18.160  -4.491  0.00  0.00     0.011 A 
ATOM     11  C7  NON d   1     -41.765  17.845  -3.149  0.00  0.00     0.018 A 
ATOM     12  C8  NON d   1     -40.537  18.185  -2.561  0.00  0.00     0.037 A 
ATOM     13  C9  NON d   1     -39.569  18.850  -3.308  0.00  0.00     0.068 A 
ATOM     14  C11 NON d   1     -39.843  19.169  -4.644  0.00  0.00     0.037 A 
ATOM     15  C12 NON d   1     -41.073  18.831  -5.233  0.00  0.00     0.018 A 
BRANCH  13  16
ATOM     16  O2  NON d   1     -38.333  19.239  -2.871  0.00  0.00    -0.356 OA
ATOM     17  C10 NON d   1     -37.438  18.212  -2.457  0.00  0.00     0.210 C 
ENDBRANCH  13  16
ENDBRANCH   1  10
TORSDOF 7
ENDMDL
MODEL 3
REMARK VINA RESULT:   -34.271      0.872      1.362
REMARK INTER + INTRA:         -36.772
REMARK INTER:                 -36.359
REMARK INTRA:                  -0.414
REMARK CONF_INDEPENDENT:        2.088
REMARK UNBOUND:                -0.414
REMARK  7 active torsions:
REMARK  status: ('A' for Active; 'I' for Inactive)
REMARK    1  A    between atoms: C2_2  and  N1_3 
REMARK    2  A    between atoms: N1_3  and  C3_4 
REMARK    3  A    between atoms: C3_4  and  S2_6 
REMARK    4  A    between atoms: S2_6  and  C4_7 
REMARK    5  A    between atoms: C4_7  and  C5_8 
REMARK    6  A    between atoms: C5_8  and  C6_10 
REMARK    7  A    between atoms: C9_13  and  O2_14 
ROOT
ATOM      1  C5  NON d   1     -43.210  17.139  -4.552  0.00  0.00     0.169 C 
ATOM      2  O1  NON d   1     -43.261  16.320  -5.469  0.00  0.00    -0.291 OA
ENDROOT
BRANCH   1   3
ATOM      3  C4  NON d   1     -44.422  17.669  -3.788  0.00  0.00     0.165 C 
BRANCH   3   4
ATOM      4  S2  NON d   1     -45.941  16.695  -4.015  0.00  0.00    -0.091 SA
BRANCH   4   5
ATOM      5  C3  NON d   1     -46.522  17.077  -5.650  0.00  0.00     0.155 C 
ATOM      6  S1  NON d   1     -45.940  18.379  -6.560  0.00  0.00    -0.051 SA
BRANCH   5   7
ATOM      7  N1  NON d   1     -47.440  16.152  -5.999  0.00  0.00    -0.273 NA
BRANCH   7   8
ATOM      8  C2  NON d   1     -48.032  15.415  -4.878  0.00  0.00     0.146 C 
ATOM      9  C1  NON d   1     -48.906  16.202  -3.883  0.00  0.00     0.028 C 
ENDBRANCH   7   8
ENDBRANCH   5   7
ENDBRANCH   4   5
ENDBRANCH   3   4
ENDBRANCH   1   3
BRANCH   1  10
ATOM     10  C6  NON d   1     -41.859  17.724  -4.236  0.00  0.00     0.011 A 
ATOM     11  C7  NON d   1     -41.030  18.114  -5.305  0.00  0.00     0.018 A 
ATOM     12  C8  NON d   1     -39.782  18.715  -5.081  0.00  0.00     0.037 A 
ATOM     13  C9  NON d   1     -39.338  18.933  -3.781  0.00  0.00     0.068 A 
ATOM     14  C11 NON d   1     -40.156  18.547  -2.711  0.00  0.00     0.037 A 
ATOM     15  C12 NON d   1     -41.405  17.944  -2.933  0.00  0.00     0.018 A 
BRANCH  13  16
ATOM     16  O2  NON d   1     -38.152  19.508  -3.415  0.00  0.00    -0.356 OA
ATOM     17  C10 NON d   1     -38.164  20.342  -2.261  0.00  0.00     0.210 C 
ENDBRANCH  13  16
ENDBRANCH   1  10
TORSDOF 7
ENDMDL
MODEL 4
REMARK VINA RESULT:   -33.902      2.156      2.698
REMARK INTER + INTRA:         -36.591
REMARK INTER:                 -35.990
REMARK INTRA:                  -0.601
REMARK CONF_INDEPENDENT:        2.088
REMARK UNBOUND:                -0.601
REMARK  7 active torsions:
REMARK  status: ('A' for Active; 'I' for Inactive)
REMARK    1  A    between atoms: C2_2  and  N1_3 
REMARK    2  A    between atoms: N1_3  and  C3_4 
REMARK    3  A    between atoms: C3_4  and  S2_6 
REMARK    4  A    between atoms: S2_6  and  C4_7 
REMARK    5  A    between atoms: C4_7  and  C5_8 
REMARK    6  A    between atoms: C5_8  and  C6_10 
REMARK    7  A    between atoms: C9_13  and  O2_14 
ROOT
ATOM      1  C5  NON d   1     -43.155  17.231  -4.814  0.00  0.00     0.169 C 
ATOM      2  O1  NON d   1     -43.028  16.123  -5.336  0.00  0.00    -0.291 OA
ENDROOT
BRANCH   1   3
ATOM      3  C4  NON d   1     -44.296  17.629  -3.880  0.00  0.00     0.165 C 
BRANCH   3   4
ATOM      4  S2  NON d   1     -45.804  16.629  -4.063  0.00  0.00    -0.091 SA
BRANCH   4   5
ATOM      5  C3  NON d   1     -46.484  17.063  -5.646  0.00  0.00     0.155 C 
ATOM      6  S1  NON d   1     -45.940  18.378  -6.560  0.00  0.00    -0.051 SA
BRANCH   5   7
ATOM      7  N1  NON d   1     -47.440  16.163  -5.957  0.00  0.00    -0.273 NA
BRANCH   7   8
ATOM      8  C2  NON d   1     -47.959  15.397  -4.819  0.00  0.00     0.146 C 
ATOM      9  C1  NON d   1     -48.973  16.090  -3.889  0.00  0.00     0.028 C 
ENDBRANCH   7   8
ENDBRANCH   5   7
ENDBRANCH   4   5
ENDBRANCH   3   4
ENDBRANCH   1   3
BRANCH   1  10
ATOM     10  C6  NON d   1     -42.159  18.288  -5.211  0.00  0.00     0.011 A 
ATOM     11  C7  NON d   1     -41.117  17.931  -6.088  0.00  0.00     0.018 A 
ATOM     12  C8  NON d   1     -40.185  18.879  -6.541  0.00  0.00     0.037 A 
ATOM     13  C9  NON d   1     -40.279  20.202  -6.120  0.00  0.00     0.068 A 
ATOM     14  C11 NON d   1     -41.312  20.565  -5.246  0.00  0.00     0.037 A 
ATOM     15  C12 NON d   1     -42.243  19.617  -4.791  0.00  0.00     0.018 A 
BRANCH  13  16
ATOM     16  O2  NON d   1     -39.449  21.228  -6.479  0.00  0.00    -0.356 OA
ATOM     17  C10 NON d   1     -39.450  21.614  -7.849  0.00  0.00     0.210 C 
ENDBRANCH  13  16
ENDBRANCH   1  10
TORSDOF 7
ENDMDL
MODEL 5
REMARK VINA RESULT:   -33.669      2.207      2.941
REMARK INTER + INTRA:         -36.281
REMARK INTER:                 -35.757
REMARK INTRA:                  -0.524
REMARK CONF_INDEPENDENT:        2.088
REMARK UNBOUND:                -0.524
REMARK  7 active torsions:
REMARK  status: ('A' for Active; 'I' for Inactive)
REMARK    1  A    between atoms: C2_2  and  N1_3 
REMARK    2  A    between atoms: N1_3  and  C3_4 
REMARK    3  A    between atoms: C3_4  and  S2_6 
REMARK    4  A    between atoms: S2_6  and  C4_7 
REMARK    5  A    between atoms: C4_7  and  C5_8 
REMARK    6  A    between atoms: C5_8  and  C6_10 
REMARK    7  A    between atoms: C9_13  and  O2_14 
ROOT
ATOM      1  C5  NON d   1     -42.808  17.575  -3.947  0.00  0.00     0.169 C 
ATOM      2  O1  NON d   1     -42.720  17.629  -2.721  0.00  0.00    -0.291 OA
ENDROOT
BRANCH   1   3
ATOM      3  C4  NON d   1     -43.660  16.569  -4.717  0.00  0.00     0.165 C 
BRANCH   3   4
ATOM      4  S2  NON d   1     -45.405  16.513  -4.207  0.00  0.00    -0.091 SA
BRANCH   4   5
ATOM      5  C3  NON d   1     -46.341  17.026  -5.627  0.00  0.00     0.155 C 
ATOM      6  S1  NON d   1     -45.944  18.380  -6.560  0.00  0.00    -0.051 SA
BRANCH   5   7
ATOM      7  N1  NON d   1     -47.348  16.147  -5.810  0.00  0.00    -0.273 NA
BRANCH   7   8
ATOM      8  C2  NON d   1     -48.360  16.138  -4.748  0.00  0.00     0.146 C 
ATOM      9  C1  NON d   1     -48.298  15.006  -3.706  0.00  0.00     0.028 C 
ENDBRANCH   7   8
ENDBRANCH   5   7
ENDBRANCH   4   5
ENDBRANCH   3   4
ENDBRANCH   1   3
BRANCH   1  10
ATOM     10  C6  NON d   1     -41.931  18.514  -4.733  0.00  0.00     0.011 A 
ATOM     11  C7  NON d   1     -42.068  19.898  -4.519  0.00  0.00     0.018 A 
ATOM     12  C8  NON d   1     -41.246  20.825  -5.178  0.00  0.00     0.037 A 
ATOM     13  C9  NON d   1     -40.272  20.382  -6.068  0.00  0.00     0.068 A 
ATOM     14  C11 NON d   1     -40.130  19.006  -6.288  0.00  0.00     0.037 A 
ATOM     15  C12 NON d   1     -40.953  18.077  -5.630  0.00  0.00     0.018 A 
BRANCH  13  16
ATOM     16  O2  NON d   1     -39.402  21.166  -6.775  0.00  0.00    -0.356 OA
ATOM     17  C10 NON d   1     -39.947  21.953  -7.829  0.00  0.00     0.210 C 
ENDBRANCH  13  16
ENDBRANCH   1  10
TORSDOF 7
ENDMDL
