MODEL 1
REMARK VINA RESULT:   -34.909      0.000      0.000
REMARK INTER + INTRA:         -38.496
REMARK INTER:                 -36.997
REMARK INTRA:                  -1.499
REMARK CONF_INDEPENDENT:        2.088
REMARK UNBOUND:                -1.499
REMARK  7 active torsions:
REMARK  status: ('A' for Active; 'I' for Inactive)
REMARK    1  A    between atoms: N1_1  and  C1_2 
REMARK    2  A    between atoms: C6_7  and  N2_8 
REMARK       I    between atoms: N2_8  and  C7_9 
REMARK    3  A    between atoms: C7_9  and  C8_11 
REMARK    4  A    between atoms: C11_14  and  C12_15 
REMARK    5  A    between atoms: C12_15  and  S1_16 
REMARK    6  A    between atoms: S1_16  and  C13_17 
REMARK    7  A    between atoms: C14_19  and  C15_20 
ROOT
ATOM      1  C8  NON d   1     -43.992  17.801  -4.565  0.00  0.00     0.032 A 
ATOM      2  C9  NON d   1     -42.985  17.349  -3.699  0.00  0.00     0.017 A 
ATOM      3  C10 NON d   1     -41.773  18.029  -3.562  0.00  0.00     0.009 A 
ATOM      4  C11 NON d   1     -41.517  19.212  -4.266  0.00  0.00    -0.048 A 
ATOM      5  C23 NON d   1     -42.526  19.667  -5.140  0.00  0.00     0.009 A 
ATOM      6  C24 NON d   1     -43.751  18.973  -5.289  0.00  0.00     0.017 A 
ENDROOT
BRANCH   4   7
ATOM      7  C12 NON d   1     -40.194  19.976  -4.157  0.00  0.00     0.121 C 
BRANCH   7   8
ATOM      8  S1  NON d   1     -40.183  21.586  -5.002  0.00  0.00    -0.085 SA
BRANCH   8   9
ATOM      9  C13 NON d   1     -40.024  21.183  -6.695  0.00  0.00     0.192 A 
ATOM     10  N3  NON d   1     -39.924  22.271  -7.509  0.00  0.00    -0.226 NA
ATOM     11  C14 NON d   1     -39.898  22.127  -8.792  0.00  0.00     0.056 A 
ATOM     12  C21 NON d   1     -39.951  20.774  -9.416  0.00  0.00     0.165 A 
ATOM     13  C22 NON d   1     -39.966  19.666  -8.410  0.00  0.00     0.251 A 
ATOM     14  O2  NON d   1     -39.940  18.502  -8.810  0.00  0.00    -0.271 OA
ATOM     15  N4  NON d   1     -40.041  19.959  -7.079  0.00  0.00    -0.187 NA
BRANCH  11  16
ATOM     16  C15 NON d   1     -39.827  23.342  -9.671  0.00  0.00    -0.011 A 
ATOM     17  C16 NON d   1     -39.525  23.180 -11.032  0.00  0.00     0.013 A 
ATOM     18  C17 NON d   1     -39.435  24.288 -11.879  0.00  0.00     0.001 A 
ATOM     19  C18 NON d   1     -39.643  25.569 -11.376  0.00  0.00     0.000 A 
ATOM     20  C19 NON d   1     -39.945  25.742 -10.026  0.00  0.00     0.001 A 
ATOM     21  C20 NON d   1     -40.036  24.635  -9.173  0.00  0.00     0.013 A 
ENDBRANCH  11  16
ENDBRANCH   8   9
ENDBRANCH   7   8
ENDBRANCH   4   7
BRANCH   1  22
ATOM     22  C7  NON d   1     -45.220  16.939  -4.652  0.00  0.00     0.256 C 
ATOM     23  N2  NON d   1     -46.226  17.109  -3.715  0.00  0.00    -0.321 N 
ATOM     24  H7  NON d   1     -46.100  17.757  -2.951  0.00  0.00     0.169 HD
ATOM     25  O1  NON d   1     -45.265  16.130  -5.577  0.00  0.00    -0.267 OA
BRANCH  23  26
ATOM     26  C6  NON d   1     -47.446  16.371  -3.646  0.00  0.00     0.056 A 
ATOM     27  C5  NON d   1     -48.088  16.047  -2.443  0.00  0.00     0.031 A 
ATOM     28  C4  NON d   1     -49.316  15.380  -2.435  0.00  0.00     0.002 A 
ATOM     29  C3  NON d   1     -49.932  15.039  -3.633  0.00  0.00     0.002 A 
ATOM     30  C2  NON d   1     -49.307  15.347  -4.840  0.00  0.00     0.025 A 
ATOM     31  C1  NON d   1     -48.045  15.965  -4.860  0.00  0.00     0.033 A 
BRANCH  31  32
ATOM     32  N1  NON d   1     -47.440  16.264  -6.108  0.00  0.00    -0.301 NA
ATOM     33  H1  NON d   1     -46.744  15.566  -6.361  0.00  0.00     0.124 HD
ATOM     34  H2  NON d   1     -47.014  17.188  -6.082  0.00  0.00     0.124 HD
ENDBRANCH  31  32
ENDBRANCH  23  26
ENDBRANCH   1  22
TORSDOF 7
ENDMDL
MODEL 2
REMARK VINA RESULT:   -34.847      4.178      6.220
REMARK INTER + INTRA:         -38.139
REMARK INTER:                 -36.935
REMARK INTRA:                  -1.205
REMARK CONF_INDEPENDENT:        2.088
REMARK UNBOUND:                -1.205
REMARK  7 active torsions:
REMARK  status: ('A' for Active; 'I' for Inactive)
REMARK    1  A    between atoms: N1_1  and  C1_2 
REMARK    2  A    between atoms: C6_7  and  N2_8 
REMARK       I    between atoms: N2_8  and  C7_9 
REMARK    3  A    between atoms: C7_9  and  C8_11 
REMARK    4  A    between atoms: C11_14  and  C12_15 
REMARK    5  A    between atoms: C12_15  and  S1_16 
REMARK    6  A    between atoms: S1_16  and  C13_17 
REMARK    7  A    between atoms: C14_19  and  C15_20 
ROOT
ATOM      1  C8  NON d   1     -44.007  17.788  -4.709  0.00  0.00     0.032 A 
ATOM      2  C9  NON d   1     -42.965  17.334  -3.887  0.00  0.00     0.017 A 
ATOM      3  C10 NON d   1     -41.751  18.017  -3.793  0.00  0.00     0.009 A 
ATOM      4  C11 NON d   1     -41.526  19.206  -4.498  0.00  0.00    -0.048 A 
ATOM      5  C23 NON d   1     -42.571  19.663  -5.327  0.00  0.00     0.009 A 
ATOM      6  C24 NON d   1     -43.798  18.966  -5.433  0.00  0.00     0.017 A 
ENDROOT
BRANCH   4   7
ATOM      7  C12 NON d   1     -40.203  19.974  -4.436  0.00  0.00     0.121 C 
BRANCH   7   8
ATOM      8  S1  NON d   1     -39.730  20.524  -2.769  0.00  0.00    -0.085 SA
BRANCH   8   9
ATOM      9  C13 NON d   1     -40.184  22.212  -2.727  0.00  0.00     0.192 A 
ATOM     10  N3  NON d   1     -40.275  22.722  -1.467  0.00  0.00    -0.226 NA
ATOM     11  C14 NON d   1     -40.694  23.929  -1.281  0.00  0.00     0.056 A 
ATOM     12  C21 NON d   1     -41.065  24.802  -2.431  0.00  0.00     0.165 A 
ATOM     13  C22 NON d   1     -40.832  24.151  -3.759  0.00  0.00     0.251 A 
ATOM     14  O2  NON d   1     -41.038  24.802  -4.782  0.00  0.00    -0.271 OA
ATOM     15  N4  NON d   1     -40.430  22.848  -3.814  0.00  0.00    -0.187 NA
BRANCH  11  16
ATOM     16  C15 NON d   1     -40.823  24.460   0.118  0.00  0.00    -0.011 A 
ATOM     17  C16 NON d   1     -40.871  23.552   1.188  0.00  0.00     0.013 A 
ATOM     18  C17 NON d   1     -41.007  24.006   2.503  0.00  0.00     0.001 A 
ATOM     19  C18 NON d   1     -41.099  25.370   2.762  0.00  0.00     0.000 A 
ATOM     20  C19 NON d   1     -41.052  26.282   1.708  0.00  0.00     0.001 A 
ATOM     21  C20 NON d   1     -40.916  25.832   0.389  0.00  0.00     0.013 A 
ENDBRANCH  11  16
ENDBRANCH   8   9
ENDBRANCH   7   8
ENDBRANCH   4   7
BRANCH   1  22
ATOM     22  C7  NON d   1     -45.233  16.921  -4.754  0.00  0.00     0.256 C 
ATOM     23  N2  NON d   1     -46.227  17.117  -3.808  0.00  0.00    -0.321 N 
ATOM     24  H7  NON d   1     -46.091  17.786  -3.064  0.00  0.00     0.169 HD
ATOM     25  O1  NON d   1     -45.291  16.086  -5.654  0.00  0.00    -0.267 OA
BRANCH  23  26
ATOM     26  C6  NON d   1     -47.444  16.379  -3.700  0.00  0.00     0.056 A 
ATOM     27  C5  NON d   1     -48.084  16.115  -2.481  0.00  0.00     0.031 A 
ATOM     28  C4  NON d   1     -49.311  15.445  -2.439  0.00  0.00     0.002 A 
ATOM     29  C3  NON d   1     -49.926  15.042  -3.617  0.00  0.00     0.002 A 
ATOM     30  C2  NON d   1     -49.303  15.290  -4.839  0.00  0.00     0.025 A 
ATOM     31  C1  NON d   1     -48.043  15.910  -4.891  0.00  0.00     0.033 A 
BRANCH  31  32
ATOM     32  N1  NON d   1     -47.440  16.147  -6.153  0.00  0.00    -0.301 NA
ATOM     33  H1  NON d   1     -46.684  15.491  -6.334  0.00  0.00     0.124 HD
ATOM     34  H2  NON d   1     -47.093  17.103  -6.205  0.00  0.00     0.124 HD
ENDBRANCH  31  32
ENDBRANCH  23  26
ENDBRANCH   1  22
TORSDOF 7
ENDMDL
MODEL 3
REMARK VINA RESULT:   -34.839      3.236      5.543
REMARK INTER + INTRA:         -38.331
REMARK INTER:                 -36.927
REMARK INTRA:                  -1.404
REMARK CONF_INDEPENDENT:        2.088
REMARK UNBOUND:                -1.404
REMARK  7 active torsions:
REMARK  status: ('A' for Active; 'I' for Inactive)
REMARK    1  A    between atoms: N1_1  and  C1_2 
REMARK    2  A    between atoms: C6_7  and  N2_8 
REMARK       I    between atoms: N2_8  and  C7_9 
REMARK    3  A    between atoms: C7_9  and  C8_11 
REMARK    4  A    between atoms: C11_14  and  C12_15 
REMARK    5  A    between atoms: C12_15  and  S1_16 
REMARK    6  A    between atoms: S1_16  and  C13_17 
REMARK    7  A    between atoms: C14_19  and  C15_20 
ROOT
ATOM      1  C8  NON d   1     -43.964  17.835  -4.882  0.00  0.00     0.032 A 
ATOM      2  C9  NON d   1     -42.811  17.261  -4.326  0.00  0.00     0.017 A 
ATOM      3  C10 NON d   1     -41.585  17.929  -4.323  0.00  0.00     0.009 A 
ATOM      4  C11 NON d   1     -41.456  19.218  -4.854  0.00  0.00    -0.048 A 
ATOM      5  C23 NON d   1     -42.613  19.796  -5.416  0.00  0.00     0.009 A 
ATOM      6  C24 NON d   1     -43.854  19.116  -5.431  0.00  0.00     0.017 A 
ENDROOT
BRANCH   4   7
ATOM      7  C12 NON d   1     -40.125  19.976  -4.886  0.00  0.00     0.121 C 
BRANCH   7   8
ATOM      8  S1  NON d   1     -40.077  21.361  -6.063  0.00  0.00    -0.085 SA
BRANCH   8   9
ATOM      9  C13 NON d   1     -40.220  22.785  -5.058  0.00  0.00     0.192 A 
ATOM     10  N3  NON d   1     -40.252  22.511  -3.724  0.00  0.00    -0.226 NA
ATOM     11  C14 NON d   1     -40.451  23.457  -2.868  0.00  0.00     0.056 A 
ATOM     12  C21 NON d   1     -40.627  24.870  -3.309  0.00  0.00     0.165 A 
ATOM     13  C22 NON d   1     -40.480  25.044  -4.789  0.00  0.00     0.251 A 
ATOM     14  O2  NON d   1     -40.536  26.179  -5.260  0.00  0.00    -0.271 OA
ATOM     15  N4  NON d   1     -40.318  23.949  -5.587  0.00  0.00    -0.187 NA
BRANCH  11  16
ATOM     16  C15 NON d   1     -40.522  23.128  -1.405  0.00  0.00    -0.011 A 
ATOM     17  C16 NON d   1     -39.955  21.927  -0.949  0.00  0.00     0.013 A 
ATOM     18  C17 NON d   1     -40.015  21.578   0.403  0.00  0.00     0.001 A 
ATOM     19  C18 NON d   1     -40.642  22.423   1.313  0.00  0.00     0.000 A 
ATOM     20  C19 NON d   1     -41.208  23.619   0.873  0.00  0.00     0.001 A 
ATOM     21  C20 NON d   1     -41.151  23.973  -0.481  0.00  0.00     0.013 A 
ENDBRANCH  11  16
ENDBRANCH   8   9
ENDBRANCH   7   8
ENDBRANCH   4   7
BRANCH   1  22
ATOM     22  C7  NON d   1     -45.198  16.977  -4.865  0.00  0.00     0.256 C 
ATOM     23  N2  NON d   1     -46.170  17.222  -3.908  0.00  0.00    -0.321 N 
ATOM     24  H7  NON d   1     -46.014  17.921  -3.197  0.00  0.00     0.169 HD
ATOM     25  O1  NON d   1     -45.280  16.105  -5.727  0.00  0.00    -0.267 OA
BRANCH  23  26
ATOM     26  C6  NON d   1     -47.391  16.500  -3.745  0.00  0.00     0.056 A 
ATOM     27  C5  NON d   1     -48.007  16.292  -2.503  0.00  0.00     0.031 A 
ATOM     28  C4  NON d   1     -49.238  15.636  -2.406  0.00  0.00     0.002 A 
ATOM     29  C3  NON d   1     -49.880  15.189  -3.554  0.00  0.00     0.002 A 
ATOM     30  C2  NON d   1     -49.281  15.380  -4.798  0.00  0.00     0.025 A 
ATOM     31  C1  NON d   1     -48.018  15.986  -4.902  0.00  0.00     0.033 A 
BRANCH  31  32
ATOM     32  N1  NON d   1     -47.440  16.165  -6.185  0.00  0.00    -0.301 NA
ATOM     33  H1  NON d   1     -46.677  15.511  -6.344  0.00  0.00     0.124 HD
ATOM     34  H2  NON d   1     -47.108  17.121  -6.293  0.00  0.00     0.124 HD
ENDBRANCH  31  32
ENDBRANCH  23  26
ENDBRANCH   1  22
TORSDOF 7
ENDMDL
MODEL 4
REMARK VINA RESULT:   -34.700      1.695      2.112
REMARK INTER + INTRA:         -38.071
REMARK INTER:                 -36.788
REMARK INTRA:                  -1.283
REMARK CONF_INDEPENDENT:        2.088
REMARK UNBOUND:                -1.283
REMARK  7 active torsions:
REMARK  status: ('A' for Active; 'I' for Inactive)
REMARK    1  A    between atoms: N1_1  and  C1_2 
REMARK    2  A    between atoms: C6_7  and  N2_8 
REMARK       I    between atoms: N2_8  and  C7_9 
REMARK    3  A    between atoms: C7_9  and  C8_11 
REMARK    4  A    between atoms: C11_14  and  C12_15 
REMARK    5  A    between atoms: C12_15  and  S1_16 
REMARK    6  A    between atoms: S1_16  and  C13_17 
REMARK    7  A    between atoms: C14_19  and  C15_20 
ROOT
ATOM      1  C8  NON d   1     -43.867  17.746  -5.060  0.00  0.00     0.032 A 
ATOM      2  C9  NON d   1     -42.662  17.031  -5.129  0.00  0.00     0.017 A 
ATOM      3  C10 NON d   1     -41.432  17.676  -5.273  0.00  0.00     0.009 A 
ATOM      4  C11 NON d   1     -41.343  19.072  -5.328  0.00  0.00    -0.048 A 
ATOM      5  C23 NON d   1     -42.553  19.793  -5.262  0.00  0.00     0.009 A 
ATOM      6  C24 NON d   1     -43.802  19.141  -5.129  0.00  0.00     0.017 A 
ENDROOT
BRANCH   4   7
ATOM      7  C12 NON d   1     -40.015  19.816  -5.504  0.00  0.00     0.121 C 
BRANCH   7   8
ATOM      8  S1  NON d   1     -39.452  19.952  -7.227  0.00  0.00    -0.085 SA
BRANCH   8   9
ATOM      9  C13 NON d   1     -39.708  21.633  -7.632  0.00  0.00     0.192 A 
ATOM     10  N3  NON d   1     -39.776  21.867  -8.973  0.00  0.00    -0.226 NA
ATOM     11  C14 NON d   1     -39.867  23.075  -9.421  0.00  0.00     0.056 A 
ATOM     12  C21 NON d   1     -39.922  24.238  -8.491  0.00  0.00     0.165 A 
ATOM     13  C22 NON d   1     -39.930  23.837  -7.049  0.00  0.00     0.251 A 
ATOM     14  O2  NON d   1     -40.044  24.710  -6.191  0.00  0.00    -0.271 OA
ATOM     15  N4  NON d   1     -39.781  22.522  -6.711  0.00  0.00    -0.187 NA
BRANCH  11  16
ATOM     16  C15 NON d   1     -39.901  23.313 -10.903  0.00  0.00    -0.011 A 
ATOM     17  C16 NON d   1     -39.199  22.441 -11.749  0.00  0.00     0.013 A 
ATOM     18  C17 NON d   1     -39.195  22.639 -13.133  0.00  0.00     0.001 A 
ATOM     19  C18 NON d   1     -39.889  23.711 -13.685  0.00  0.00     0.000 A 
ATOM     20  C19 NON d   1     -40.591  24.584 -12.855  0.00  0.00     0.001 A 
ATOM     21  C20 NON d   1     -40.599  24.390 -11.468  0.00  0.00     0.013 A 
ENDBRANCH  11  16
ENDBRANCH   8   9
ENDBRANCH   7   8
ENDBRANCH   4   7
BRANCH   1  22
ATOM     22  C7  NON d   1     -45.117  16.917  -4.963  0.00  0.00     0.256 C 
ATOM     23  N2  NON d   1     -46.049  17.223  -3.985  0.00  0.00    -0.321 N 
ATOM     24  H7  NON d   1     -45.854  17.949  -3.311  0.00  0.00     0.169 HD
ATOM     25  O1  NON d   1     -45.248  16.010  -5.783  0.00  0.00    -0.267 OA
BRANCH  23  26
ATOM     26  C6  NON d   1     -47.278  16.536  -3.748  0.00  0.00     0.056 A 
ATOM     27  C5  NON d   1     -47.844  16.379  -2.475  0.00  0.00     0.031 A 
ATOM     28  C4  NON d   1     -49.084  15.755  -2.306  0.00  0.00     0.002 A 
ATOM     29  C3  NON d   1     -49.786  15.291  -3.411  0.00  0.00     0.002 A 
ATOM     30  C2  NON d   1     -49.237  15.431  -4.685  0.00  0.00     0.025 A 
ATOM     31  C1  NON d   1     -47.966  16.004  -4.861  0.00  0.00     0.033 A 
BRANCH  31  32
ATOM     32  N1  NON d   1     -47.440  16.131  -6.172  0.00  0.00    -0.301 NA
ATOM     33  H1  NON d   1     -46.866  15.329  -6.423  0.00  0.00     0.124 HD
ATOM     34  H2  NON d   1     -46.897  16.988  -6.254  0.00  0.00     0.124 HD
ENDBRANCH  31  32
ENDBRANCH  23  26
ENDBRANCH   1  22
TORSDOF 7
ENDMDL
MODEL 5
REMARK VINA RESULT:   -34.195      4.025      6.273
REMARK INTER + INTRA:         -37.474
REMARK INTER:                 -36.283
REMARK INTRA:                  -1.191
REMARK CONF_INDEPENDENT:        2.088
REMARK UNBOUND:                -1.191
REMARK  7 active torsions:
REMARK  status: ('A' for Active; 'I' for Inactive)
REMARK    1  A    between atoms: N1_1  and  C1_2 
REMARK    2  A    between atoms: C6_7  and  N2_8 
REMARK       I    between atoms: N2_8  and  C7_9 
REMARK    3  A    between atoms: C7_9  and  C8_11 
REMARK    4  A    between atoms: C11_14  and  C12_15 
REMARK    5  A    between atoms: C12_15  and  S1_16 
REMARK    6  A    between atoms: S1_16  and  C13_17 
REMARK    7  A    between atoms: C14_19  and  C15_20 
ROOT
ATOM      1  C8  NON d   1     -43.814  17.633  -5.055  0.00  0.00     0.032 A 
ATOM      2  C9  NON d   1     -43.957  19.028  -5.104  0.00  0.00     0.017 A 
ATOM      3  C10 NON d   1     -42.852  19.880  -5.137  0.00  0.00     0.009 A 
ATOM      4  C11 NON d   1     -41.544  19.378  -5.148  0.00  0.00    -0.048 A 
ATOM      5  C23 NON d   1     -41.398  17.977  -5.095  0.00  0.00     0.009 A 
ATOM      6  C24 NON d   1     -42.517  17.111  -5.050  0.00  0.00     0.017 A 
ENDROOT
BRANCH   4   7
ATOM      7  C12 NON d   1     -40.306  20.280  -5.165  0.00  0.00     0.121 C 
BRANCH   7   8
ATOM      8  S1  NON d   1     -40.552  21.909  -4.397  0.00  0.00    -0.085 SA
BRANCH   8   9
ATOM      9  C13 NON d   1     -39.836  21.750  -2.810  0.00  0.00     0.192 A 
ATOM     10  N3  NON d   1     -40.352  22.610  -1.889  0.00  0.00    -0.226 NA
ATOM     11  C14 NON d   1     -39.851  22.671  -0.700  0.00  0.00     0.056 A 
ATOM     12  C21 NON d   1     -38.718  21.791  -0.296  0.00  0.00     0.165 A 
ATOM     13  C22 NON d   1     -38.308  20.833  -1.370  0.00  0.00     0.251 A 
ATOM     14  O2  NON d   1     -37.428  20.009  -1.126  0.00  0.00    -0.271 OA
ATOM     15  N4  NON d   1     -38.891  20.908  -2.603  0.00  0.00    -0.187 NA
BRANCH  11  16
ATOM     16  C15 NON d   1     -40.410  23.655   0.288  0.00  0.00    -0.011 A 
ATOM     17  C16 NON d   1     -40.861  24.901  -0.173  0.00  0.00     0.013 A 
ATOM     18  C17 NON d   1     -41.373  25.848   0.718  0.00  0.00     0.001 A 
ATOM     19  C18 NON d   1     -41.437  25.562   2.078  0.00  0.00     0.000 A 
ATOM     20  C19 NON d   1     -40.992  24.327   2.548  0.00  0.00     0.001 A 
ATOM     21  C20 NON d   1     -40.479  23.374   1.659  0.00  0.00     0.013 A 
ENDBRANCH  11  16
ENDBRANCH   8   9
ENDBRANCH   7   8
ENDBRANCH   4   7
BRANCH   1  22
ATOM     22  C7  NON d   1     -45.091  16.845  -4.966  0.00  0.00     0.256 C 
ATOM     23  N2  NON d   1     -46.002  17.156  -3.971  0.00  0.00    -0.321 N 
ATOM     24  H7  NON d   1     -45.775  17.856  -3.279  0.00  0.00     0.169 HD
ATOM     25  O1  NON d   1     -45.260  15.967  -5.809  0.00  0.00    -0.267 OA
BRANCH  23  26
ATOM     26  C6  NON d   1     -47.251  16.504  -3.739  0.00  0.00     0.056 A 
ATOM     27  C5  NON d   1     -47.815  16.341  -2.466  0.00  0.00     0.031 A 
ATOM     28  C4  NON d   1     -49.073  15.755  -2.302  0.00  0.00     0.002 A 
ATOM     29  C3  NON d   1     -49.796  15.335  -3.411  0.00  0.00     0.002 A 
ATOM     30  C2  NON d   1     -49.250  15.482  -4.685  0.00  0.00     0.025 A 
ATOM     31  C1  NON d   1     -47.962  16.016  -4.859  0.00  0.00     0.033 A 
BRANCH  31  32
ATOM     32  N1  NON d   1     -47.440  16.152  -6.170  0.00  0.00    -0.301 NA
ATOM     33  H1  NON d   1     -46.963  15.305  -6.471  0.00  0.00     0.124 HD
ATOM     34  H2  NON d   1     -46.804  16.945  -6.217  0.00  0.00     0.124 HD
ENDBRANCH  31  32
ENDBRANCH  23  26
ENDBRANCH   1  22
TORSDOF 7
ENDMDL
MODEL 6
REMARK VINA RESULT:   -34.136      3.699      4.893
REMARK INTER + INTRA:         -37.671
REMARK INTER:                 -36.224
REMARK INTRA:                  -1.447
REMARK CONF_INDEPENDENT:        2.088
REMARK UNBOUND:                -1.447
REMARK  7 active torsions:
REMARK  status: ('A' for Active; 'I' for Inactive)
REMARK    1  A    between atoms: N1_1  and  C1_2 
REMARK    2  A    between atoms: C6_7  and  N2_8 
REMARK       I    between atoms: N2_8  and  C7_9 
REMARK    3  A    between atoms: C7_9  and  C8_11 
REMARK    4  A    between atoms: C11_14  and  C12_15 
REMARK    5  A    between atoms: C12_15  and  S1_16 
REMARK    6  A    between atoms: S1_16  and  C13_17 
REMARK    7  A    between atoms: C14_19  and  C15_20 
ROOT
ATOM      1  C8  NON d   1     -43.970  17.820  -4.723  0.00  0.00     0.032 A 
ATOM      2  C9  NON d   1     -42.855  17.263  -4.078  0.00  0.00     0.017 A 
ATOM      3  C10 NON d   1     -41.633  17.936  -4.010  0.00  0.00     0.009 A 
ATOM      4  C11 NON d   1     -41.473  19.214  -4.561  0.00  0.00    -0.048 A 
ATOM      5  C23 NON d   1     -42.591  19.773  -5.212  0.00  0.00     0.009 A 
ATOM      6  C24 NON d   1     -43.827  19.089  -5.293  0.00  0.00     0.017 A 
ENDROOT
BRANCH   4   7
ATOM      7  C12 NON d   1     -40.145  19.976  -4.523  0.00  0.00     0.121 C 
BRANCH   7   8
ATOM      8  S1  NON d   1     -39.206  19.774  -2.979  0.00  0.00    -0.085 SA
BRANCH   8   9
ATOM      9  C13 NON d   1     -39.796  21.055  -1.946  0.00  0.00     0.192 A 
ATOM     10  N3  NON d   1     -40.077  22.209  -2.613  0.00  0.00    -0.226 NA
ATOM     11  C14 NON d   1     -40.429  23.269  -1.965  0.00  0.00     0.056 A 
ATOM     12  C21 NON d   1     -40.561  23.255  -0.480  0.00  0.00     0.165 A 
ATOM     13  C22 NON d   1     -40.313  21.905   0.117  0.00  0.00     0.251 A 
ATOM     14  O2  NON d   1     -40.462  21.756   1.329  0.00  0.00    -0.271 OA
ATOM     15  N4  NON d   1     -39.900  20.877  -0.680  0.00  0.00    -0.187 NA
BRANCH  11  16
ATOM     16  C15 NON d   1     -40.696  24.542  -2.716  0.00  0.00    -0.011 A 
ATOM     17  C16 NON d   1     -40.831  24.492  -4.112  0.00  0.00     0.013 A 
ATOM     18  C17 NON d   1     -41.064  25.657  -4.848  0.00  0.00     0.001 A 
ATOM     19  C18 NON d   1     -41.163  26.883  -4.198  0.00  0.00     0.000 A 
ATOM     20  C19 NON d   1     -41.032  26.946  -2.811  0.00  0.00     0.001 A 
ATOM     21  C20 NON d   1     -40.798  25.781  -2.069  0.00  0.00     0.013 A 
ENDBRANCH  11  16
ENDBRANCH   8   9
ENDBRANCH   7   8
ENDBRANCH   4   7
BRANCH   1  22
ATOM     22  C7  NON d   1     -45.200  16.958  -4.767  0.00  0.00     0.256 C 
ATOM     23  N2  NON d   1     -46.187  17.150  -3.814  0.00  0.00    -0.321 N 
ATOM     24  H7  NON d   1     -46.045  17.814  -3.067  0.00  0.00     0.169 HD
ATOM     25  O1  NON d   1     -45.266  16.130  -5.673  0.00  0.00    -0.267 OA
BRANCH  23  26
ATOM     26  C6  NON d   1     -47.407  16.416  -3.706  0.00  0.00     0.056 A 
ATOM     27  C5  NON d   1     -48.030  16.127  -2.484  0.00  0.00     0.031 A 
ATOM     28  C4  NON d   1     -49.260  15.463  -2.438  0.00  0.00     0.002 A 
ATOM     29  C3  NON d   1     -49.894  15.090  -3.615  0.00  0.00     0.002 A 
ATOM     30  C2  NON d   1     -49.288  15.363  -4.841  0.00  0.00     0.025 A 
ATOM     31  C1  NON d   1     -48.026  15.977  -4.898  0.00  0.00     0.033 A 
BRANCH  31  32
ATOM     32  N1  NON d   1     -47.440  16.240  -6.163  0.00  0.00    -0.301 NA
ATOM     33  H1  NON d   1     -46.823  15.484  -6.451  0.00  0.00     0.124 HD
ATOM     34  H2  NON d   1     -46.928  17.119  -6.140  0.00  0.00     0.124 HD
ENDBRANCH  31  32
ENDBRANCH  23  26
ENDBRANCH   1  22
TORSDOF 7
ENDMDL
MODEL 7
REMARK VINA RESULT:   -33.959      1.504      1.789
REMARK INTER + INTRA:         -37.495
REMARK INTER:                 -36.047
REMARK INTRA:                  -1.448
REMARK CONF_INDEPENDENT:        2.088
REMARK UNBOUND:                -1.448
REMARK  7 active torsions:
REMARK  status: ('A' for Active; 'I' for Inactive)
REMARK    1  A    between atoms: N1_1  and  C1_2 
REMARK    2  A    between atoms: C6_7  and  N2_8 
REMARK       I    between atoms: N2_8  and  C7_9 
REMARK    3  A    between atoms: C7_9  and  C8_11 
REMARK    4  A    between atoms: C11_14  and  C12_15 
REMARK    5  A    between atoms: C12_15  and  S1_16 
REMARK    6  A    between atoms: S1_16  and  C13_17 
REMARK    7  A    between atoms: C14_19  and  C15_20 
ROOT
ATOM      1  C8  NON d   1     -43.747  18.057  -5.059  0.00  0.00     0.032 A 
ATOM      2  C9  NON d   1     -43.452  19.411  -5.272  0.00  0.00     0.017 A 
ATOM      3  C10 NON d   1     -42.137  19.872  -5.366  0.00  0.00     0.009 A 
ATOM      4  C11 NON d   1     -41.049  18.995  -5.277  0.00  0.00    -0.048 A 
ATOM      5  C23 NON d   1     -41.343  17.633  -5.060  0.00  0.00     0.009 A 
ATOM      6  C24 NON d   1     -42.674  17.165  -4.953  0.00  0.00     0.017 A 
ENDROOT
BRANCH   4   7
ATOM      7  C12 NON d   1     -39.593  19.463  -5.357  0.00  0.00     0.121 C 
BRANCH   7   8
ATOM      8  S1  NON d   1     -39.380  21.152  -5.994  0.00  0.00    -0.085 SA
BRANCH   8   9
ATOM      9  C13 NON d   1     -38.609  20.932  -7.548  0.00  0.00     0.192 A 
ATOM     10  N3  NON d   1     -39.070  21.778  -8.511  0.00  0.00    -0.226 NA
ATOM     11  C14 NON d   1     -38.660  21.664  -9.731  0.00  0.00     0.056 A 
ATOM     12  C21 NON d   1     -37.659  20.627 -10.113  0.00  0.00     0.165 A 
ATOM     13  C22 NON d   1     -37.169  19.828  -8.946  0.00  0.00     0.251 A 
ATOM     14  O2  NON d   1     -36.289  18.989  -9.130  0.00  0.00    -0.271 OA
ATOM     15  N4  NON d   1     -37.724  20.019  -7.713  0.00  0.00    -0.187 NA
BRANCH  11  16
ATOM     16  C15 NON d   1     -39.210  22.581 -10.785  0.00  0.00    -0.011 A 
ATOM     17  C16 NON d   1     -39.452  22.073 -12.070  0.00  0.00     0.013 A 
ATOM     18  C17 NON d   1     -39.949  22.899 -13.082  0.00  0.00     0.001 A 
ATOM     19  C18 NON d   1     -40.207  24.242 -12.821  0.00  0.00     0.000 A 
ATOM     20  C19 NON d   1     -39.971  24.758 -11.548  0.00  0.00     0.001 A 
ATOM     21  C20 NON d   1     -39.473  23.934 -10.530  0.00  0.00     0.013 A 
ENDBRANCH  11  16
ENDBRANCH   8   9
ENDBRANCH   7   8
ENDBRANCH   4   7
BRANCH   1  22
ATOM     22  C7  NON d   1     -45.204  17.716  -4.923  0.00  0.00     0.256 C 
ATOM     23  N2  NON d   1     -45.654  17.161  -3.736  0.00  0.00    -0.321 N 
ATOM     24  H7  NON d   1     -44.997  16.932  -3.005  0.00  0.00     0.169 HD
ATOM     25  O1  NON d   1     -45.926  17.969  -5.886  0.00  0.00    -0.267 OA
BRANCH  23  26
ATOM     26  C6  NON d   1     -46.996  16.770  -3.445  0.00  0.00     0.056 A 
ATOM     27  C5  NON d   1     -47.576  16.880  -2.173  0.00  0.00     0.031 A 
ATOM     28  C4  NON d   1     -48.916  16.546  -1.958  0.00  0.00     0.002 A 
ATOM     29  C3  NON d   1     -49.704  16.109  -3.015  0.00  0.00     0.002 A 
ATOM     30  C2  NON d   1     -49.145  15.987  -4.286  0.00  0.00     0.025 A 
ATOM     31  C1  NON d   1     -47.784  16.265  -4.503  0.00  0.00     0.033 A 
BRANCH  31  32
ATOM     32  N1  NON d   1     -47.250  16.130  -5.810  0.00  0.00    -0.301 NA
ATOM     33  H1  NON d   1     -46.282  15.820  -5.787  0.00  0.00     0.124 HD
ATOM     34  H2  NON d   1     -47.323  17.011  -6.314  0.00  0.00     0.124 HD
ENDBRANCH  31  32
ENDBRANCH  23  26
ENDBRANCH   1  22
TORSDOF 7
ENDMDL
MODEL 8
REMARK VINA RESULT:   -33.675      2.366      3.623
REMARK INTER + INTRA:         -37.255
REMARK INTER:                 -35.763
REMARK INTRA:                  -1.492
REMARK CONF_INDEPENDENT:        2.088
REMARK UNBOUND:                -1.492
REMARK  7 active torsions:
REMARK  status: ('A' for Active; 'I' for Inactive)
REMARK    1  A    between atoms: N1_1  and  C1_2 
REMARK    2  A    between atoms: C6_7  and  N2_8 
REMARK       I    between atoms: N2_8  and  C7_9 
REMARK    3  A    between atoms: C7_9  and  C8_11 
REMARK    4  A    between atoms: C11_14  and  C12_15 
REMARK    5  A    between atoms: C12_15  and  S1_16 
REMARK    6  A    between atoms: S1_16  and  C13_17 
REMARK    7  A    between atoms: C14_19  and  C15_20 
ROOT
ATOM      1  C8  NON d   1     -43.814  18.135  -4.855  0.00  0.00     0.032 A 
ATOM      2  C9  NON d   1     -42.905  17.261  -4.240  0.00  0.00     0.017 A 
ATOM      3  C10 NON d   1     -41.529  17.499  -4.257  0.00  0.00     0.009 A 
ATOM      4  C11 NON d   1     -40.994  18.639  -4.870  0.00  0.00    -0.048 A 
ATOM      5  C23 NON d   1     -41.905  19.517  -5.492  0.00  0.00     0.009 A 
ATOM      6  C24 NON d   1     -43.299  19.272  -5.486  0.00  0.00     0.017 A 
ENDROOT
BRANCH   4   7
ATOM      7  C12 NON d   1     -39.491  18.926  -4.926  0.00  0.00     0.121 C 
BRANCH   7   8
ATOM      8  S1  NON d   1     -38.841  19.203  -6.601  0.00  0.00    -0.085 SA
BRANCH   8   9
ATOM      9  C13 NON d   1     -39.217  20.877  -6.938  0.00  0.00     0.192 A 
ATOM     10  N3  NON d   1     -39.521  21.603  -5.825  0.00  0.00    -0.226 NA
ATOM     11  C14 NON d   1     -39.912  22.829  -5.932  0.00  0.00     0.056 A 
ATOM     12  C21 NON d   1     -40.020  23.489  -7.264  0.00  0.00     0.165 A 
ATOM     13  C22 NON d   1     -39.572  22.612  -8.391  0.00  0.00     0.251 A 
ATOM     14  O2  NON d   1     -39.551  23.075  -9.530  0.00  0.00    -0.271 OA
ATOM     15  N4  NON d   1     -39.226  21.315  -8.143  0.00  0.00    -0.187 NA
BRANCH  11  16
ATOM     16  C15 NON d   1     -40.279  23.598  -4.696  0.00  0.00    -0.011 A 
ATOM     17  C16 NON d   1     -40.220  22.954  -3.450  0.00  0.00     0.013 A 
ATOM     18  C17 NON d   1     -40.569  23.632  -2.279  0.00  0.00     0.001 A 
ATOM     19  C18 NON d   1     -40.982  24.960  -2.340  0.00  0.00     0.000 A 
ATOM     20  C19 NON d   1     -41.043  25.611  -3.571  0.00  0.00     0.001 A 
ATOM     21  C20 NON d   1     -40.695  24.936  -4.748  0.00  0.00     0.013 A 
ENDBRANCH  11  16
ENDBRANCH   8   9
ENDBRANCH   7   8
ENDBRANCH   4   7
BRANCH   1  22
ATOM     22  C7  NON d   1     -45.258  17.722  -4.804  0.00  0.00     0.256 C 
ATOM     23  N2  NON d   1     -45.758  17.173  -3.635  0.00  0.00    -0.321 N 
ATOM     24  H7  NON d   1     -45.139  16.995  -2.857  0.00  0.00     0.169 HD
ATOM     25  O1  NON d   1     -45.926  17.916  -5.818  0.00  0.00    -0.267 OA
BRANCH  23  26
ATOM     26  C6  NON d   1     -47.094  16.720  -3.421  0.00  0.00     0.056 A 
ATOM     27  C5  NON d   1     -47.740  16.774  -2.178  0.00  0.00     0.031 A 
ATOM     28  C4  NON d   1     -49.074  16.380  -2.038  0.00  0.00     0.002 A 
ATOM     29  C3  NON d   1     -49.790  15.938  -3.144  0.00  0.00     0.002 A 
ATOM     30  C2  NON d   1     -49.164  15.872  -4.388  0.00  0.00     0.025 A 
ATOM     31  C1  NON d   1     -47.807  16.210  -4.529  0.00  0.00     0.033 A 
BRANCH  31  32
ATOM     32  N1  NON d   1     -47.204  16.130  -5.810  0.00  0.00    -0.301 NA
ATOM     33  H1  NON d   1     -46.233  15.835  -5.747  0.00  0.00     0.124 HD
ATOM     34  H2  NON d   1     -47.266  17.028  -6.286  0.00  0.00     0.124 HD
ENDBRANCH  31  32
ENDBRANCH  23  26
ENDBRANCH   1  22
TORSDOF 7
ENDMDL
MODEL 9
REMARK VINA RESULT:   -33.618      2.405      2.970
REMARK INTER + INTRA:         -37.014
REMARK INTER:                 -35.706
REMARK INTRA:                  -1.308
REMARK CONF_INDEPENDENT:        2.088
REMARK UNBOUND:                -1.308
REMARK  7 active torsions:
REMARK  status: ('A' for Active; 'I' for Inactive)
REMARK    1  A    between atoms: N1_1  and  C1_2 
REMARK    2  A    between atoms: C6_7  and  N2_8 
REMARK       I    between atoms: N2_8  and  C7_9 
REMARK    3  A    between atoms: C7_9  and  C8_11 
REMARK    4  A    between atoms: C11_14  and  C12_15 
REMARK    5  A    between atoms: C12_15  and  S1_16 
REMARK    6  A    between atoms: S1_16  and  C13_17 
REMARK    7  A    between atoms: C14_19  and  C15_20 
ROOT
ATOM      1  C8  NON d   1     -43.966  17.757  -4.699  0.00  0.00     0.032 A 
ATOM      2  C9  NON d   1     -42.918  17.263  -3.909  0.00  0.00     0.017 A 
ATOM      3  C10 NON d   1     -41.691  17.924  -3.818  0.00  0.00     0.009 A 
ATOM      4  C11 NON d   1     -41.460  19.129  -4.493  0.00  0.00    -0.048 A 
ATOM      5  C23 NON d   1     -42.511  19.626  -5.290  0.00  0.00     0.009 A 
ATOM      6  C24 NON d   1     -43.751  18.952  -5.394  0.00  0.00     0.017 A 
ENDROOT
BRANCH   4   7
ATOM      7  C12 NON d   1     -40.123  19.875  -4.432  0.00  0.00     0.121 C 
BRANCH   7   8
ATOM      8  S1  NON d   1     -40.012  21.112  -3.105  0.00  0.00    -0.085 SA
BRANCH   8   9
ATOM      9  C13 NON d   1     -40.234  22.642  -3.922  0.00  0.00     0.192 A 
ATOM     10  N3  NON d   1     -39.922  22.603  -5.248  0.00  0.00    -0.226 NA
ATOM     11  C14 NON d   1     -39.946  23.683  -5.956  0.00  0.00     0.056 A 
ATOM     12  C21 NON d   1     -40.337  24.989  -5.354  0.00  0.00     0.165 A 
ATOM     13  C22 NON d   1     -40.742  24.875  -3.918  0.00  0.00     0.251 A 
ATOM     14  O2  NON d   1     -41.151  25.878  -3.335  0.00  0.00    -0.271 OA
ATOM     15  N4  NON d   1     -40.623  23.677  -3.273  0.00  0.00    -0.187 NA
BRANCH  11  16
ATOM     16  C15 NON d   1     -39.561  23.625  -7.406  0.00  0.00    -0.011 A 
ATOM     17  C16 NON d   1     -38.698  24.605  -7.920  0.00  0.00     0.013 A 
ATOM     18  C17 NON d   1     -38.329  24.595  -9.268  0.00  0.00     0.001 A 
ATOM     19  C18 NON d   1     -38.819  23.606 -10.117  0.00  0.00     0.000 A 
ATOM     20  C19 NON d   1     -39.676  22.626  -9.617  0.00  0.00     0.001 A 
ATOM     21  C20 NON d   1     -40.049  22.633  -8.267  0.00  0.00     0.013 A 
ENDBRANCH  11  16
ENDBRANCH   8   9
ENDBRANCH   7   8
ENDBRANCH   4   7
BRANCH   1  22
ATOM     22  C7  NON d   1     -45.207  16.911  -4.747  0.00  0.00     0.256 C 
ATOM     23  N2  NON d   1     -46.201  17.126  -3.806  0.00  0.00    -0.321 N 
ATOM     24  H7  NON d   1     -46.057  17.795  -3.063  0.00  0.00     0.169 HD
ATOM     25  O1  NON d   1     -45.275  16.075  -5.645  0.00  0.00    -0.267 OA
BRANCH  23  26
ATOM     26  C6  NON d   1     -47.431  16.409  -3.701  0.00  0.00     0.056 A 
ATOM     27  C5  NON d   1     -48.071  16.143  -2.483  0.00  0.00     0.031 A 
ATOM     28  C4  NON d   1     -49.309  15.496  -2.442  0.00  0.00     0.002 A 
ATOM     29  C3  NON d   1     -49.936  15.116  -3.622  0.00  0.00     0.002 A 
ATOM     30  C2  NON d   1     -49.313  15.365  -4.844  0.00  0.00     0.025 A 
ATOM     31  C1  NON d   1     -48.042  15.963  -4.895  0.00  0.00     0.033 A 
BRANCH  31  32
ATOM     32  N1  NON d   1     -47.439  16.202  -6.156  0.00  0.00    -0.301 NA
ATOM     33  H1  NON d   1     -46.986  15.366  -6.517  0.00  0.00     0.124 HD
ATOM     34  H2  NON d   1     -46.766  16.962  -6.088  0.00  0.00     0.124 HD
ENDBRANCH  31  32
ENDBRANCH  23  26
ENDBRANCH   1  22
TORSDOF 7
ENDMDL
