MODEL 1
REMARK VINA RESULT:   -21.860      0.000      0.000
REMARK INTER + INTRA:         -25.291
REMARK INTER:                 -24.545
REMARK INTRA:                  -0.746
REMARK CONF_INDEPENDENT:        2.685
REMARK UNBOUND:                -0.746
REMARK  9 active torsions:
REMARK  status: ('A' for Active; 'I' for Inactive)
REMARK    1  A    between atoms: C2_2  and  S1_3 
REMARK    2  A    between atoms: S1_3  and  C3_4 
REMARK    3  A    between atoms: C3_4  and  S3_6 
REMARK    4  A    between atoms: S3_6  and  C4_7 
REMARK    5  A    between atoms: C4_7  and  C5_8 
REMARK    6  A    between atoms: C5_8  and  C6_10 
REMARK    7  A    between atoms: C9_13  and  C10_14 
REMARK    8  A    between atoms: C10_14  and  C11_15 
REMARK    9  A    between atoms: C11_15  and  N1_16 
REMARK       I    between atoms: N1_16  and  C12_17 
ROOT
ATOM      1  C6  NON d   1     -42.180  17.762  -4.032  0.00  0.00     0.011 A 
ATOM      2  C7  NON d   1     -41.250  18.435  -4.834  0.00  0.00     0.015 A 
ATOM      3  C8  NON d   1     -40.065  18.946  -4.290  0.00  0.00     0.008 A 
ATOM      4  C9  NON d   1     -39.773  18.802  -2.926  0.00  0.00    -0.057 A 
ATOM      5  C14 NON d   1     -40.707  18.125  -2.126  0.00  0.00     0.008 A 
ATOM      6  C15 NON d   1     -41.899  17.611  -2.671  0.00  0.00     0.015 A 
ENDROOT
BRANCH   1   7
ATOM      7  C5  NON d   1     -43.431  17.238  -4.676  0.00  0.00     0.169 C 
ATOM      8  O1  NON d   1     -43.371  16.167  -5.282  0.00  0.00    -0.291 OA
BRANCH   7   9
ATOM      9  C4  NON d   1     -44.710  18.053  -4.547  0.00  0.00     0.164 C 
BRANCH   9  10
ATOM     10  S3  NON d   1     -45.939  17.625  -5.810  0.00  0.00    -0.104 SA
BRANCH  10  11
ATOM     11  C3  NON d   1     -47.038  16.476  -5.030  0.00  0.00     0.104 C 
ATOM     12  S2  NON d   1     -48.041  15.384  -5.810  0.00  0.00    -0.065 SA
BRANCH  11  13
ATOM     13  S1  NON d   1     -47.029  16.755  -3.279  0.00  0.00    -0.112 SA
BRANCH  13  14
ATOM     14  C2  NON d   1     -48.764  16.690  -2.763  0.00  0.00     0.076 C 
ATOM     15  C1  NON d   1     -49.384  15.312  -2.914  0.00  0.00     0.016 C 
ENDBRANCH  13  14
ENDBRANCH  11  13
ENDBRANCH  10  11
ENDBRANCH   9  10
ENDBRANCH   7   9
ENDBRANCH   1   7
BRANCH   4  16
ATOM     16  C10 NON d   1     -38.483  19.414  -2.403  0.00  0.00     0.058 C 
BRANCH  16  17
ATOM     17  C11 NON d   1     -38.556  20.867  -1.928  0.00  0.00     0.127 C 
BRANCH  17  18
ATOM     18  N1  NON d   1     -38.948  21.033  -0.528  0.00  0.00    -0.361 N 
ATOM     19  C12 NON d   1     -39.850  22.030  -0.233  0.00  0.00     0.213 C 
ATOM     20  C13 NON d   1     -40.351  22.203   1.212  0.00  0.00     0.117 C 
ATOM     21  O2  NON d   1     -40.287  22.774  -1.116  0.00  0.00    -0.274 OA
ATOM     22  H14 NON d   1     -38.850  20.261   0.121  0.00  0.00     0.162 HD
ENDBRANCH  17  18
ENDBRANCH  16  17
ENDBRANCH   4  16
TORSDOF 9
ENDMDL
MODEL 2
REMARK VINA RESULT:   -21.750      0.590      1.573
REMARK INTER + INTRA:         -24.943
REMARK INTER:                 -24.435
REMARK INTRA:                  -0.508
REMARK CONF_INDEPENDENT:        2.685
REMARK UNBOUND:                -0.508
REMARK  9 active torsions:
REMARK  status: ('A' for Active; 'I' for Inactive)
REMARK    1  A    between atoms: C2_2  and  S1_3 
REMARK    2  A    between atoms: S1_3  and  C3_4 
REMARK    3  A    between atoms: C3_4  and  S3_6 
REMARK    4  A    between atoms: S3_6  and  C4_7 
REMARK    5  A    between atoms: C4_7  and  C5_8 
REMARK    6  A    between atoms: C5_8  and  C6_10 
REMARK    7  A    between atoms: C9_13  and  C10_14 
REMARK    8  A    between atoms: C10_14  and  C11_15 
REMARK    9  A    between atoms: C11_15  and  N1_16 
REMARK       I    between atoms: N1_16  and  C12_17 
ROOT
ATOM      1  C6  NON d   1     -42.034  17.850  -4.379  0.00  0.00     0.011 A 
ATOM      2  C7  NON d   1     -41.867  18.021  -2.998  0.00  0.00     0.015 A 
ATOM      3  C8  NON d   1     -40.667  18.519  -2.475  0.00  0.00     0.008 A 
ATOM      4  C9  NON d   1     -39.597  18.862  -3.314  0.00  0.00    -0.057 A 
ATOM      5  C14 NON d   1     -39.770  18.691  -4.696  0.00  0.00     0.008 A 
ATOM      6  C15 NON d   1     -40.974  18.190  -5.225  0.00  0.00     0.015 A 
ENDROOT
BRANCH   1   7
ATOM      7  C5  NON d   1     -43.344  17.312  -4.877  0.00  0.00     0.169 C 
ATOM      8  O1  NON d   1     -43.366  16.178  -5.355  0.00  0.00    -0.291 OA
BRANCH   7   9
ATOM      9  C4  NON d   1     -44.580  18.194  -4.763  0.00  0.00     0.164 C 
BRANCH   9  10
ATOM     10  S3  NON d   1     -45.945  17.618  -5.810  0.00  0.00    -0.104 SA
BRANCH  10  11
ATOM     11  C3  NON d   1     -46.905  16.540  -4.784  0.00  0.00     0.104 C 
ATOM     12  S2  NON d   1     -46.871  16.482  -3.110  0.00  0.00    -0.065 SA
BRANCH  11  13
ATOM     13  S1  NON d   1     -47.815  15.414  -5.809  0.00  0.00    -0.112 SA
BRANCH  13  14
ATOM     14  C2  NON d   1     -49.156  14.780  -4.769  0.00  0.00     0.076 C 
ATOM     15  C1  NON d   1     -49.621  15.771  -3.717  0.00  0.00     0.016 C 
ENDBRANCH  13  14
ENDBRANCH  11  13
ENDBRANCH  10  11
ENDBRANCH   9  10
ENDBRANCH   7   9
ENDBRANCH   1   7
BRANCH   4  16
ATOM     16  C10 NON d   1     -38.315  19.364  -2.667  0.00  0.00     0.058 C 
BRANCH  16  17
ATOM     17  C11 NON d   1     -38.345  20.783  -2.094  0.00  0.00     0.127 C 
BRANCH  17  18
ATOM     18  N1  NON d   1     -38.913  20.887  -0.750  0.00  0.00    -0.361 N 
ATOM     19  C12 NON d   1     -39.648  22.013  -0.455  0.00  0.00     0.213 C 
ATOM     20  C13 NON d   1     -40.327  22.142   0.921  0.00  0.00     0.117 C 
ATOM     21  O2  NON d   1     -39.795  22.913  -1.286  0.00  0.00    -0.274 OA
ATOM     22  H14 NON d   1     -39.063  20.051  -0.197  0.00  0.00     0.162 HD
ENDBRANCH  17  18
ENDBRANCH  16  17
ENDBRANCH   4  16
TORSDOF 9
ENDMDL
MODEL 3
REMARK VINA RESULT:   -21.085      2.986      4.022
REMARK INTER + INTRA:         -24.400
REMARK INTER:                 -23.769
REMARK INTRA:                  -0.631
REMARK CONF_INDEPENDENT:        2.685
REMARK UNBOUND:                -0.631
REMARK  9 active torsions:
REMARK  status: ('A' for Active; 'I' for Inactive)
REMARK    1  A    between atoms: C2_2  and  S1_3 
REMARK    2  A    between atoms: S1_3  and  C3_4 
REMARK    3  A    between atoms: C3_4  and  S3_6 
REMARK    4  A    between atoms: S3_6  and  C4_7 
REMARK    5  A    between atoms: C4_7  and  C5_8 
REMARK    6  A    between atoms: C5_8  and  C6_10 
REMARK    7  A    between atoms: C9_13  and  C10_14 
REMARK    8  A    between atoms: C10_14  and  C11_15 
REMARK    9  A    between atoms: C11_15  and  N1_16 
REMARK       I    between atoms: N1_16  and  C12_17 
ROOT
ATOM      1  C6  NON d   1     -42.261  17.645  -4.359  0.00  0.00     0.011 A 
ATOM      2  C7  NON d   1     -41.881  18.392  -5.482  0.00  0.00     0.015 A 
ATOM      3  C8  NON d   1     -40.661  19.078  -5.509  0.00  0.00     0.008 A 
ATOM      4  C9  NON d   1     -39.782  19.041  -4.417  0.00  0.00    -0.057 A 
ATOM      5  C14 NON d   1     -40.167  18.290  -3.296  0.00  0.00     0.008 A 
ATOM      6  C15 NON d   1     -41.393  17.599  -3.265  0.00  0.00     0.015 A 
ENDROOT
BRANCH   1   7
ATOM      7  C5  NON d   1     -43.582  16.932  -4.392  0.00  0.00     0.169 C 
ATOM      8  O1  NON d   1     -43.791  16.130  -5.303  0.00  0.00    -0.291 OA
BRANCH   7   9
ATOM      9  C4  NON d   1     -44.596  17.232  -3.296  0.00  0.00     0.164 C 
BRANCH   9  10
ATOM     10  S3  NON d   1     -46.185  16.402  -3.572  0.00  0.00    -0.104 SA
BRANCH  10  11
ATOM     11  C3  NON d   1     -46.597  16.720  -5.264  0.00  0.00     0.104 C 
ATOM     12  S2  NON d   1     -46.047  18.004  -6.189  0.00  0.00    -0.065 SA
BRANCH  11  13
ATOM     13  S1  NON d   1     -47.811  15.544  -5.802  0.00  0.00    -0.112 SA
BRANCH  13  14
ATOM     14  C2  NON d   1     -48.681  15.018  -4.303  0.00  0.00     0.076 C 
ATOM     15  C1  NON d   1     -49.239  16.176  -3.494  0.00  0.00     0.016 C 
ENDBRANCH  13  14
ENDBRANCH  11  13
ENDBRANCH  10  11
ENDBRANCH   9  10
ENDBRANCH   7   9
ENDBRANCH   1   7
BRANCH   4  16
ATOM     16  C10 NON d   1     -38.492  19.840  -4.510  0.00  0.00     0.058 C 
BRANCH  16  17
ATOM     17  C11 NON d   1     -37.788  19.852  -5.869  0.00  0.00     0.127 C 
BRANCH  17  18
ATOM     18  N1  NON d   1     -38.464  20.640  -6.900  0.00  0.00    -0.361 N 
ATOM     19  C12 NON d   1     -39.110  19.956  -7.904  0.00  0.00     0.213 C 
ATOM     20  C13 NON d   1     -39.896  20.734  -8.975  0.00  0.00     0.117 C 
ATOM     21  O2  NON d   1     -39.092  18.722  -7.946  0.00  0.00    -0.274 OA
ATOM     22  H14 NON d   1     -38.744  21.595  -6.706  0.00  0.00     0.162 HD
ENDBRANCH  17  18
ENDBRANCH  16  17
ENDBRANCH   4  16
TORSDOF 9
ENDMDL
MODEL 4
REMARK VINA RESULT:   -20.760      1.132      1.640
REMARK INTER + INTRA:         -24.320
REMARK INTER:                 -23.444
REMARK INTRA:                  -0.876
REMARK CONF_INDEPENDENT:        2.685
REMARK UNBOUND:                -0.876
REMARK  9 active torsions:
REMARK  status: ('A' for Active; 'I' for Inactive)
REMARK    1  A    between atoms: C2_2  and  S1_3 
REMARK    2  A    between atoms: S1_3  and  C3_4 
REMARK    3  A    between atoms: C3_4  and  S3_6 
REMARK    4  A    between atoms: S3_6  and  C4_7 
REMARK    5  A    between atoms: C4_7  and  C5_8 
REMARK    6  A    between atoms: C5_8  and  C6_10 
REMARK    7  A    between atoms: C9_13  and  C10_14 
REMARK    8  A    between atoms: C10_14  and  C11_15 
REMARK    9  A    between atoms: C11_15  and  N1_16 
REMARK       I    between atoms: N1_16  and  C12_17 
ROOT
ATOM      1  C6  NON d   1     -42.267  17.897  -4.449  0.00  0.00     0.011 A 
ATOM      2  C7  NON d   1     -41.987  17.664  -3.096  0.00  0.00     0.015 A 
ATOM      3  C8  NON d   1     -40.765  18.054  -2.536  0.00  0.00     0.008 A 
ATOM      4  C9  NON d   1     -39.782  18.689  -3.310  0.00  0.00    -0.057 A 
ATOM      5  C14 NON d   1     -40.068  18.922  -4.664  0.00  0.00     0.008 A 
ATOM      6  C15 NON d   1     -41.295  18.530  -5.230  0.00  0.00     0.015 A 
ENDROOT
BRANCH   1   7
ATOM      7  C5  NON d   1     -43.596  17.454  -4.988  0.00  0.00     0.169 C 
ATOM      8  O1  NON d   1     -43.756  16.260  -5.244  0.00  0.00    -0.291 OA
BRANCH   7   9
ATOM      9  C4  NON d   1     -44.682  18.502  -5.189  0.00  0.00     0.164 C 
BRANCH   9  10
ATOM     10  S3  NON d   1     -46.068  17.887  -6.185  0.00  0.00    -0.104 SA
BRANCH  10  11
ATOM     11  C3  NON d   1     -46.794  16.584  -5.230  0.00  0.00     0.104 C 
ATOM     12  S2  NON d   1     -47.803  15.380  -5.810  0.00  0.00    -0.065 SA
BRANCH  11  13
ATOM     13  S1  NON d   1     -46.407  16.830  -3.517  0.00  0.00    -0.112 SA
BRANCH  13  14
ATOM     14  C2  NON d   1     -47.945  16.505  -2.616  0.00  0.00     0.076 C 
ATOM     15  C1  NON d   1     -49.191  16.732  -3.453  0.00  0.00     0.016 C 
ENDBRANCH  13  14
ENDBRANCH  11  13
ENDBRANCH  10  11
ENDBRANCH   9  10
ENDBRANCH   7   9
ENDBRANCH   1   7
BRANCH   4  16
ATOM     16  C10 NON d   1     -38.467  19.051  -2.638  0.00  0.00     0.058 C 
BRANCH  16  17
ATOM     17  C11 NON d   1     -38.357  20.465  -2.062  0.00  0.00     0.127 C 
BRANCH  17  18
ATOM     18  N1  NON d   1     -39.127  21.480  -2.782  0.00  0.00    -0.361 N 
ATOM     19  C12 NON d   1     -40.117  22.139  -2.090  0.00  0.00     0.213 C 
ATOM     20  C13 NON d   1     -40.910  23.265  -2.778  0.00  0.00     0.117 C 
ATOM     21  O2  NON d   1     -40.363  21.861  -0.913  0.00  0.00    -0.274 OA
ATOM     22  H14 NON d   1     -38.738  21.920  -3.608  0.00  0.00     0.162 HD
ENDBRANCH  17  18
ENDBRANCH  16  17
ENDBRANCH   4  16
TORSDOF 9
ENDMDL
MODEL 5
REMARK VINA RESULT:   -20.744      1.232      1.830
REMARK INTER + INTRA:         -24.142
REMARK INTER:                 -23.429
REMARK INTRA:                  -0.714
REMARK CONF_INDEPENDENT:        2.685
REMARK UNBOUND:                -0.714
REMARK  9 active torsions:
REMARK  status: ('A' for Active; 'I' for Inactive)
REMARK    1  A    between atoms: C2_2  and  S1_3 
REMARK    2  A    between atoms: S1_3  and  C3_4 
REMARK    3  A    between atoms: C3_4  and  S3_6 
REMARK    4  A    between atoms: S3_6  and  C4_7 
REMARK    5  A    between atoms: C4_7  and  C5_8 
REMARK    6  A    between atoms: C5_8  and  C6_10 
REMARK    7  A    between atoms: C9_13  and  C10_14 
REMARK    8  A    between atoms: C10_14  and  C11_15 
REMARK    9  A    between atoms: C11_15  and  N1_16 
REMARK       I    between atoms: N1_16  and  C12_17 
ROOT
ATOM      1  C6  NON d   1     -42.163  17.681  -4.313  0.00  0.00     0.011 A 
ATOM      2  C7  NON d   1     -41.719  18.363  -5.453  0.00  0.00     0.015 A 
ATOM      3  C8  NON d   1     -40.487  19.028  -5.459  0.00  0.00     0.008 A 
ATOM      4  C9  NON d   1     -39.661  19.035  -4.326  0.00  0.00    -0.057 A 
ATOM      5  C14 NON d   1     -40.109  18.348  -3.187  0.00  0.00     0.008 A 
ATOM      6  C15 NON d   1     -41.347  17.679  -3.178  0.00  0.00     0.015 A 
ENDROOT
BRANCH   1   7
ATOM      7  C5  NON d   1     -43.494  16.986  -4.371  0.00  0.00     0.169 C 
ATOM      8  O1  NON d   1     -43.696  16.187  -5.286  0.00  0.00    -0.291 OA
BRANCH   7   9
ATOM      9  C4  NON d   1     -44.523  17.301  -3.295  0.00  0.00     0.164 C 
BRANCH   9  10
ATOM     10  S3  NON d   1     -46.095  16.434  -3.561  0.00  0.00    -0.104 SA
BRANCH  10  11
ATOM     11  C3  NON d   1     -46.533  16.758  -5.246  0.00  0.00     0.104 C 
ATOM     12  S2  NON d   1     -45.946  18.006  -6.196  0.00  0.00    -0.065 SA
BRANCH  11  13
ATOM     13  S1  NON d   1     -47.814  15.637  -5.743  0.00  0.00    -0.112 SA
BRANCH  13  14
ATOM     14  C2  NON d   1     -48.538  15.008  -4.206  0.00  0.00     0.076 C 
ATOM     15  C1  NON d   1     -50.009  14.652  -4.336  0.00  0.00     0.016 C 
ENDBRANCH  13  14
ENDBRANCH  11  13
ENDBRANCH  10  11
ENDBRANCH   9  10
ENDBRANCH   7   9
ENDBRANCH   1   7
BRANCH   4  16
ATOM     16  C10 NON d   1     -38.354  19.809  -4.399  0.00  0.00     0.058 C 
BRANCH  16  17
ATOM     17  C11 NON d   1     -37.382  19.627  -3.231  0.00  0.00     0.127 C 
BRANCH  17  18
ATOM     18  N1  NON d   1     -37.958  19.882  -1.911  0.00  0.00    -0.361 N 
ATOM     19  C12 NON d   1     -38.669  21.049  -1.742  0.00  0.00     0.213 C 
ATOM     20  C13 NON d   1     -39.356  21.335  -0.394  0.00  0.00     0.117 C 
ATOM     21  O2  NON d   1     -38.788  21.861  -2.663  0.00  0.00    -0.274 OA
ATOM     22  H14 NON d   1     -38.132  19.112  -1.276  0.00  0.00     0.162 HD
ENDBRANCH  17  18
ENDBRANCH  16  17
ENDBRANCH   4  16
TORSDOF 9
ENDMDL
MODEL 6
REMARK VINA RESULT:   -20.570      3.333      4.618
REMARK INTER + INTRA:         -23.859
REMARK INTER:                 -23.255
REMARK INTRA:                  -0.604
REMARK CONF_INDEPENDENT:        2.685
REMARK UNBOUND:                -0.604
REMARK  9 active torsions:
REMARK  status: ('A' for Active; 'I' for Inactive)
REMARK    1  A    between atoms: C2_2  and  S1_3 
REMARK    2  A    between atoms: S1_3  and  C3_4 
REMARK    3  A    between atoms: C3_4  and  S3_6 
REMARK    4  A    between atoms: S3_6  and  C4_7 
REMARK    5  A    between atoms: C4_7  and  C5_8 
REMARK    6  A    between atoms: C5_8  and  C6_10 
REMARK    7  A    between atoms: C9_13  and  C10_14 
REMARK    8  A    between atoms: C10_14  and  C11_15 
REMARK    9  A    between atoms: C11_15  and  N1_16 
REMARK       I    between atoms: N1_16  and  C12_17 
ROOT
ATOM      1  C6  NON d   1     -42.241  18.305  -4.745  0.00  0.00     0.011 A 
ATOM      2  C7  NON d   1     -42.201  19.224  -5.802  0.00  0.00     0.015 A 
ATOM      3  C8  NON d   1     -40.995  19.815  -6.196  0.00  0.00     0.008 A 
ATOM      4  C9  NON d   1     -39.790  19.508  -5.547  0.00  0.00    -0.057 A 
ATOM      5  C14 NON d   1     -39.835  18.585  -4.490  0.00  0.00     0.008 A 
ATOM      6  C15 NON d   1     -41.047  17.990  -4.091  0.00  0.00     0.015 A 
ENDROOT
BRANCH   1   7
ATOM      7  C5  NON d   1     -43.567  17.706  -4.371  0.00  0.00     0.169 C 
ATOM      8  O1  NON d   1     -43.576  16.599  -3.832  0.00  0.00    -0.291 OA
BRANCH   7   9
ATOM      9  C4  NON d   1     -44.831  18.498  -4.673  0.00  0.00     0.164 C 
BRANCH   9  10
ATOM     10  S3  NON d   1     -45.941  17.628  -5.815  0.00  0.00    -0.104 SA
BRANCH  10  11
ATOM     11  C3  NON d   1     -47.011  16.661  -4.787  0.00  0.00     0.104 C 
ATOM     12  S2  NON d   1     -46.901  16.500  -3.124  0.00  0.00    -0.065 SA
BRANCH  11  13
ATOM     13  S1  NON d   1     -48.145  15.759  -5.810  0.00  0.00    -0.112 SA
BRANCH  13  14
ATOM     14  C2  NON d   1     -49.181  14.806  -4.670  0.00  0.00     0.076 C 
ATOM     15  C1  NON d   1     -49.693  15.624  -3.496  0.00  0.00     0.016 C 
ENDBRANCH  13  14
ENDBRANCH  11  13
ENDBRANCH  10  11
ENDBRANCH   9  10
ENDBRANCH   7   9
ENDBRANCH   1   7
BRANCH   4  16
ATOM     16  C10 NON d   1     -38.527  20.217  -6.010  0.00  0.00     0.058 C 
BRANCH  16  17
ATOM     17  C11 NON d   1     -37.886  19.703  -7.301  0.00  0.00     0.127 C 
BRANCH  17  18
ATOM     18  N1  NON d   1     -37.877  20.664  -8.404  0.00  0.00    -0.361 N 
ATOM     19  C12 NON d   1     -39.014  20.761  -9.174  0.00  0.00     0.213 C 
ATOM     20  C13 NON d   1     -39.085  21.805 -10.302  0.00  0.00     0.117 C 
ATOM     21  O2  NON d   1     -39.991  20.040  -8.957  0.00  0.00    -0.274 OA
ATOM     22  H14 NON d   1     -37.234  21.448  -8.389  0.00  0.00     0.162 HD
ENDBRANCH  17  18
ENDBRANCH  16  17
ENDBRANCH   4  16
TORSDOF 9
ENDMDL
MODEL 7
REMARK VINA RESULT:   -20.477      2.262      3.329
REMARK INTER + INTRA:         -23.631
REMARK INTER:                 -23.162
REMARK INTRA:                  -0.469
REMARK CONF_INDEPENDENT:        2.685
REMARK UNBOUND:                -0.469
REMARK  9 active torsions:
REMARK  status: ('A' for Active; 'I' for Inactive)
REMARK    1  A    between atoms: C2_2  and  S1_3 
REMARK    2  A    between atoms: S1_3  and  C3_4 
REMARK    3  A    between atoms: C3_4  and  S3_6 
REMARK    4  A    between atoms: S3_6  and  C4_7 
REMARK    5  A    between atoms: C4_7  and  C5_8 
REMARK    6  A    between atoms: C5_8  and  C6_10 
REMARK    7  A    between atoms: C9_13  and  C10_14 
REMARK    8  A    between atoms: C10_14  and  C11_15 
REMARK    9  A    between atoms: C11_15  and  N1_16 
REMARK       I    between atoms: N1_16  and  C12_17 
ROOT
ATOM      1  C6  NON d   1     -42.273  17.903  -4.216  0.00  0.00     0.011 A 
ATOM      2  C7  NON d   1     -41.202  18.324  -5.013  0.00  0.00     0.015 A 
ATOM      3  C8  NON d   1     -40.017  18.795  -4.435  0.00  0.00     0.008 A 
ATOM      4  C9  NON d   1     -39.864  18.861  -3.043  0.00  0.00    -0.057 A 
ATOM      5  C14 NON d   1     -40.940  18.436  -2.248  0.00  0.00     0.008 A 
ATOM      6  C15 NON d   1     -42.133  17.962  -2.826  0.00  0.00     0.015 A 
ENDROOT
BRANCH   1   7
ATOM      7  C5  NON d   1     -43.517  17.407  -4.896  0.00  0.00     0.169 C 
ATOM      8  O1  NON d   1     -43.538  16.245  -5.302  0.00  0.00    -0.291 OA
BRANCH   7   9
ATOM      9  C4  NON d   1     -44.691  18.365  -5.048  0.00  0.00     0.164 C 
BRANCH   9  10
ATOM     10  S3  NON d   1     -46.058  17.645  -5.998  0.00  0.00    -0.104 SA
BRANCH  10  11
ATOM     11  C3  NON d   1     -46.879  16.541  -4.882  0.00  0.00     0.104 C 
ATOM     12  S2  NON d   1     -46.675  16.487  -3.220  0.00  0.00    -0.065 SA
BRANCH  11  13
ATOM     13  S1  NON d   1     -47.852  15.387  -5.812  0.00  0.00    -0.112 SA
BRANCH  13  14
ATOM     14  C2  NON d   1     -49.178  14.855  -4.698  0.00  0.00     0.076 C 
ATOM     15  C1  NON d   1     -49.491  15.868  -3.610  0.00  0.00     0.016 C 
ENDBRANCH  13  14
ENDBRANCH  11  13
ENDBRANCH  10  11
ENDBRANCH   9  10
ENDBRANCH   7   9
ENDBRANCH   1   7
BRANCH   4  16
ATOM     16  C10 NON d   1     -38.561  19.416  -2.492  0.00  0.00     0.058 C 
BRANCH  16  17
ATOM     17  C11 NON d   1     -37.273  18.721  -2.942  0.00  0.00     0.127 C 
BRANCH  17  18
ATOM     18  N1  NON d   1     -37.337  18.120  -4.274  0.00  0.00    -0.361 N 
ATOM     19  C12 NON d   1     -36.952  18.897  -5.342  0.00  0.00     0.213 C 
ATOM     20  C13 NON d   1     -36.932  18.294  -6.758  0.00  0.00     0.117 C 
ATOM     21  O2  NON d   1     -36.594  20.068  -5.181  0.00  0.00    -0.274 OA
ATOM     22  H14 NON d   1     -37.321  17.112  -4.377  0.00  0.00     0.162 HD
ENDBRANCH  17  18
ENDBRANCH  16  17
ENDBRANCH   4  16
TORSDOF 9
ENDMDL
MODEL 8
REMARK VINA RESULT:   -20.250      2.263      3.045
REMARK INTER + INTRA:         -23.684
REMARK INTER:                 -22.935
REMARK INTRA:                  -0.749
REMARK CONF_INDEPENDENT:        2.685
REMARK UNBOUND:                -0.749
REMARK  9 active torsions:
REMARK  status: ('A' for Active; 'I' for Inactive)
REMARK    1  A    between atoms: C2_2  and  S1_3 
REMARK    2  A    between atoms: S1_3  and  C3_4 
REMARK    3  A    between atoms: C3_4  and  S3_6 
REMARK    4  A    between atoms: S3_6  and  C4_7 
REMARK    5  A    between atoms: C4_7  and  C5_8 
REMARK    6  A    between atoms: C5_8  and  C6_10 
REMARK    7  A    between atoms: C9_13  and  C10_14 
REMARK    8  A    between atoms: C10_14  and  C11_15 
REMARK    9  A    between atoms: C11_15  and  N1_16 
REMARK       I    between atoms: N1_16  and  C12_17 
ROOT
ATOM      1  C6  NON d   1     -42.023  17.899  -4.466  0.00  0.00     0.011 A 
ATOM      2  C7  NON d   1     -41.424  17.828  -3.202  0.00  0.00     0.015 A 
ATOM      3  C8  NON d   1     -40.191  18.444  -2.955  0.00  0.00     0.008 A 
ATOM      4  C9  NON d   1     -39.517  19.149  -3.963  0.00  0.00    -0.057 A 
ATOM      5  C14 NON d   1     -40.122  19.218  -5.227  0.00  0.00     0.008 A 
ATOM      6  C15 NON d   1     -41.361  18.599  -5.479  0.00  0.00     0.015 A 
ENDROOT
BRANCH   1   7
ATOM      7  C5  NON d   1     -43.346  17.218  -4.667  0.00  0.00     0.169 C 
ATOM      8  O1  NON d   1     -43.351  16.014  -4.925  0.00  0.00    -0.291 OA
BRANCH   7   9
ATOM      9  C4  NON d   1     -44.616  18.048  -4.537  0.00  0.00     0.164 C 
BRANCH   9  10
ATOM     10  S3  NON d   1     -45.849  17.637  -5.802  0.00  0.00    -0.104 SA
BRANCH  10  11
ATOM     11  C3  NON d   1     -46.955  16.491  -5.029  0.00  0.00     0.104 C 
ATOM     12  S2  NON d   1     -47.926  15.374  -5.813  0.00  0.00    -0.065 SA
BRANCH  11  13
ATOM     13  S1  NON d   1     -46.994  16.803  -3.283  0.00  0.00    -0.112 SA
BRANCH  13  14
ATOM     14  C2  NON d   1     -48.525  16.043  -2.683  0.00  0.00     0.076 C 
ATOM     15  C1  NON d   1     -49.778  16.684  -3.257  0.00  0.00     0.016 C 
ENDBRANCH  13  14
ENDBRANCH  11  13
ENDBRANCH  10  11
ENDBRANCH   9  10
ENDBRANCH   7   9
ENDBRANCH   1   7
BRANCH   4  16
ATOM     16  C10 NON d   1     -38.166  19.760  -3.627  0.00  0.00     0.058 C 
BRANCH  16  17
ATOM     17  C11 NON d   1     -37.672  19.585  -2.188  0.00  0.00     0.127 C 
BRANCH  17  18
ATOM     18  N1  NON d   1     -37.543  18.194  -1.752  0.00  0.00    -0.361 N 
ATOM     19  C12 NON d   1     -36.756  17.359  -2.511  0.00  0.00     0.213 C 
ATOM     20  C13 NON d   1     -36.529  15.905  -2.059  0.00  0.00     0.117 C 
ATOM     21  O2  NON d   1     -36.204  17.764  -3.538  0.00  0.00    -0.274 OA
ATOM     22  H14 NON d   1     -37.720  17.948  -0.785  0.00  0.00     0.162 HD
ENDBRANCH  17  18
ENDBRANCH  16  17
ENDBRANCH   4  16
TORSDOF 9
ENDMDL
MODEL 9
REMARK VINA RESULT:   -20.133      2.494      3.539
REMARK INTER + INTRA:         -23.814
REMARK INTER:                 -22.818
REMARK INTRA:                  -0.996
REMARK CONF_INDEPENDENT:        2.685
REMARK UNBOUND:                -0.996
REMARK  9 active torsions:
REMARK  status: ('A' for Active; 'I' for Inactive)
REMARK    1  A    between atoms: C2_2  and  S1_3 
REMARK    2  A    between atoms: S1_3  and  C3_4 
REMARK    3  A    between atoms: C3_4  and  S3_6 
REMARK    4  A    between atoms: S3_6  and  C4_7 
REMARK    5  A    between atoms: C4_7  and  C5_8 
REMARK    6  A    between atoms: C5_8  and  C6_10 
REMARK    7  A    between atoms: C9_13  and  C10_14 
REMARK    8  A    between atoms: C10_14  and  C11_15 
REMARK    9  A    between atoms: C11_15  and  N1_16 
REMARK       I    between atoms: N1_16  and  C12_17 
ROOT
ATOM      1  C6  NON d   1     -42.170  18.181  -4.420  0.00  0.00     0.011 A 
ATOM      2  C7  NON d   1     -41.136  17.553  -3.714  0.00  0.00     0.015 A 
ATOM      3  C8  NON d   1     -39.949  18.235  -3.420  0.00  0.00     0.008 A 
ATOM      4  C9  NON d   1     -39.756  19.564  -3.824  0.00  0.00    -0.057 A 
ATOM      5  C14 NON d   1     -40.796  20.189  -4.529  0.00  0.00     0.008 A 
ATOM      6  C15 NON d   1     -41.990  19.506  -4.827  0.00  0.00     0.015 A 
ENDROOT
BRANCH   1   7
ATOM      7  C5  NON d   1     -43.419  17.396  -4.703  0.00  0.00     0.169 C 
ATOM      8  O1  NON d   1     -43.303  16.222  -5.058  0.00  0.00    -0.291 OA
BRANCH   7   9
ATOM      9  C4  NON d   1     -44.764  18.088  -4.534  0.00  0.00     0.164 C 
BRANCH   9  10
ATOM     10  S3  NON d   1     -45.960  17.605  -5.810  0.00  0.00    -0.104 SA
BRANCH  10  11
ATOM     11  C3  NON d   1     -47.036  16.435  -5.030  0.00  0.00     0.104 C 
ATOM     12  S2  NON d   1     -48.079  15.381  -5.810  0.00  0.00    -0.065 SA
BRANCH  11  13
ATOM     13  S1  NON d   1     -46.953  16.646  -3.271  0.00  0.00    -0.112 SA
BRANCH  13  14
ATOM     14  C2  NON d   1     -48.646  16.415  -2.670  0.00  0.00     0.076 C 
ATOM     15  C1  NON d   1     -48.844  16.883  -1.238  0.00  0.00     0.016 C 
ENDBRANCH  13  14
ENDBRANCH  11  13
ENDBRANCH  10  11
ENDBRANCH   9  10
ENDBRANCH   7   9
ENDBRANCH   1   7
BRANCH   4  16
ATOM     16  C10 NON d   1     -38.426  20.225  -3.497  0.00  0.00     0.058 C 
BRANCH  16  17
ATOM     17  C11 NON d   1     -37.343  20.156  -4.577  0.00  0.00     0.127 C 
BRANCH  17  18
ATOM     18  N1  NON d   1     -37.615  19.206  -5.656  0.00  0.00    -0.361 N 
ATOM     19  C12 NON d   1     -38.207  19.693  -6.798  0.00  0.00     0.213 C 
ATOM     20  C13 NON d   1     -38.452  18.753  -7.992  0.00  0.00     0.117 C 
ATOM     21  O2  NON d   1     -38.523  20.883  -6.894  0.00  0.00    -0.274 OA
ATOM     22  H14 NON d   1     -37.093  18.339  -5.712  0.00  0.00     0.162 HD
ENDBRANCH  17  18
ENDBRANCH  16  17
ENDBRANCH   4  16
TORSDOF 9
ENDMDL
