MODEL 1
REMARK VINA RESULT:   -15.271      0.000      0.000
REMARK INTER + INTRA:         -18.178
REMARK INTER:                 -17.061
REMARK INTRA:                  -1.117
REMARK CONF_INDEPENDENT:        1.790
REMARK UNBOUND:                -1.117
REMARK  6 active torsions:
REMARK  status: ('A' for Active; 'I' for Inactive)
REMARK       I    between atoms: C1_2  and  N1_3 
REMARK    1  A    between atoms: C1_2  and  C2_5 
REMARK    2  A    between atoms: N1_3  and  O2_4 
REMARK    3  A    between atoms: C5_8  and  C6_9 
REMARK    4  A    between atoms: C6_9  and  N2_10 
REMARK    5  A    between atoms: N2_10  and  C7_11 
REMARK    6  A    between atoms: C7_11  and  C8_12 
ROOT
ATOM      1  C2  NON d   1     -44.562  17.655  -4.749  0.00  0.00     0.034 A 
ATOM      2  C3  NON d   1     -43.855  18.774  -5.196  0.00  0.00     0.017 A 
ATOM      3  C4  NON d   1     -42.576  19.046  -4.684  0.00  0.00     0.010 A 
ATOM      4  C5  NON d   1     -42.000  18.206  -3.721  0.00  0.00    -0.033 A 
ATOM      5  C14 NON d   1     -42.779  17.165  -3.185  0.00  0.00     0.010 A 
ATOM      6  C15 NON d   1     -44.044  16.880  -3.708  0.00  0.00     0.017 A 
ENDROOT
BRANCH   4   7
ATOM      7  C6  NON d   1     -40.573  18.412  -3.286  0.00  0.00     0.271 C 
BRANCH   7   8
ATOM      8  N2  NON d   1     -40.420  19.063  -1.940  0.00  0.00    -0.067 N 
ATOM      9  H7  NON d   1     -41.342  19.440  -1.691  0.00  0.00     0.277 HD
ATOM     10  H8  NON d   1     -40.214  18.361  -1.222  0.00  0.00     0.277 HD
BRANCH   8  11
ATOM     11  C7  NON d   1     -39.435  20.187  -1.808  0.00  0.00     0.271 C 
BRANCH  11  12
ATOM     12  C8  NON d   1     -40.038  21.527  -1.470  0.00  0.00    -0.031 A 
ATOM     13  C9  NON d   1     -40.504  22.395  -2.468  0.00  0.00     0.009 A 
ATOM     14  C10 NON d   1     -41.065  23.634  -2.154  0.00  0.00     0.002 A 
ATOM     15  C11 NON d   1     -41.221  24.011  -0.824  0.00  0.00     0.024 A 
ATOM     16  C12 NON d   1     -40.811  23.143   0.183  0.00  0.00     0.034 A 
ATOM     17 Cl1  NON d   1     -41.061  23.570   1.829  0.00  0.00    -0.084 Cl
ATOM     18  C13 NON d   1     -40.213  21.917  -0.131  0.00  0.00     0.032 A 
ENDBRANCH  11  12
ENDBRANCH   8  11
ENDBRANCH   7   8
ENDBRANCH   4   7
BRANCH   1  19
ATOM     19  C1  NON d   1     -45.830  17.279  -5.429  0.00  0.00     0.275 C 
ATOM     20  O1  NON d   1     -46.315  17.984  -6.304  0.00  0.00    -0.265 OA
ATOM     21  N1  NON d   1     -46.346  16.060  -5.054  0.00  0.00    -0.233 N 
ATOM     22  H1  NON d   1     -45.854  15.380  -4.488  0.00  0.00     0.197 HD
BRANCH  21  23
ATOM     23  O2  NON d   1     -47.426  15.561  -5.810  0.00  0.00    -0.287 OA
ATOM     24  H2  NON d   1     -47.540  16.244  -6.506  0.00  0.00     0.244 HD
ENDBRANCH  21  23
ENDBRANCH   1  19
TORSDOF 6
ENDMDL
MODEL 2
REMARK VINA RESULT:   -15.235      0.902      1.451
REMARK INTER + INTRA:         -18.057
REMARK INTER:                 -17.024
REMARK INTRA:                  -1.032
REMARK CONF_INDEPENDENT:        1.790
REMARK UNBOUND:                -1.032
REMARK  6 active torsions:
REMARK  status: ('A' for Active; 'I' for Inactive)
REMARK       I    between atoms: C1_2  and  N1_3 
REMARK    1  A    between atoms: C1_2  and  C2_5 
REMARK    2  A    between atoms: N1_3  and  O2_4 
REMARK    3  A    between atoms: C5_8  and  C6_9 
REMARK    4  A    between atoms: C6_9  and  N2_10 
REMARK    5  A    between atoms: N2_10  and  C7_11 
REMARK    6  A    between atoms: C7_11  and  C8_12 
ROOT
ATOM      1  C2  NON d   1     -44.594  17.649  -4.739  0.00  0.00     0.034 A 
ATOM      2  C3  NON d   1     -43.894  18.786  -5.147  0.00  0.00     0.017 A 
ATOM      3  C4  NON d   1     -42.618  19.052  -4.622  0.00  0.00     0.010 A 
ATOM      4  C5  NON d   1     -42.040  18.186  -3.685  0.00  0.00    -0.033 A 
ATOM      5  C14 NON d   1     -42.812  17.122  -3.185  0.00  0.00     0.010 A 
ATOM      6  C15 NON d   1     -44.073  16.845  -3.721  0.00  0.00     0.017 A 
ENDROOT
BRANCH   4   7
ATOM      7  C6  NON d   1     -40.615  18.389  -3.238  0.00  0.00     0.271 C 
BRANCH   7   8
ATOM      8  N2  NON d   1     -40.460  19.277  -2.036  0.00  0.00    -0.067 N 
ATOM      9  H7  NON d   1     -41.398  19.387  -1.631  0.00  0.00     0.277 HD
ATOM     10  H8  NON d   1     -39.908  18.808  -1.310  0.00  0.00     0.277 HD
BRANCH   8  11
ATOM     11  C7  NON d   1     -39.905  20.656  -2.244  0.00  0.00     0.271 C 
BRANCH  11  12
ATOM     12  C8  NON d   1     -40.140  21.616  -1.106  0.00  0.00    -0.031 A 
ATOM     13  C9  NON d   1     -39.942  21.233   0.229  0.00  0.00     0.009 A 
ATOM     14  C10 NON d   1     -40.157  22.124   1.283  0.00  0.00     0.002 A 
ATOM     15  C11 NON d   1     -40.524  23.439   1.018  0.00  0.00     0.024 A 
ATOM     16  C12 NON d   1     -40.677  23.853  -0.301  0.00  0.00     0.034 A 
ATOM     17 Cl1  NON d   1     -41.065  25.493  -0.640  0.00  0.00    -0.084 Cl
ATOM     18  C13 NON d   1     -40.500  22.950  -1.357  0.00  0.00     0.032 A 
ENDBRANCH  11  12
ENDBRANCH   8  11
ENDBRANCH   7   8
ENDBRANCH   4   7
BRANCH   1  19
ATOM     19  C1  NON d   1     -45.856  17.285  -5.435  0.00  0.00     0.275 C 
ATOM     20  O1  NON d   1     -46.328  17.999  -6.309  0.00  0.00    -0.265 OA
ATOM     21  N1  NON d   1     -46.383  16.066  -5.075  0.00  0.00    -0.233 N 
ATOM     22  H1  NON d   1     -45.901  15.379  -4.508  0.00  0.00     0.197 HD
BRANCH  21  23
ATOM     23  O2  NON d   1     -47.458  15.579  -5.846  0.00  0.00    -0.287 OA
ATOM     24  H2  NON d   1     -47.525  16.239  -6.569  0.00  0.00     0.244 HD
ENDBRANCH  21  23
ENDBRANCH   1  19
TORSDOF 6
ENDMDL
MODEL 3
REMARK VINA RESULT:   -14.763      2.206      2.653
REMARK INTER + INTRA:         -17.853
REMARK INTER:                 -16.552
REMARK INTRA:                  -1.301
REMARK CONF_INDEPENDENT:        1.790
REMARK UNBOUND:                -1.301
REMARK  6 active torsions:
REMARK  status: ('A' for Active; 'I' for Inactive)
REMARK       I    between atoms: C1_2  and  N1_3 
REMARK    1  A    between atoms: C1_2  and  C2_5 
REMARK    2  A    between atoms: N1_3  and  O2_4 
REMARK    3  A    between atoms: C5_8  and  C6_9 
REMARK    4  A    between atoms: C6_9  and  N2_10 
REMARK    5  A    between atoms: N2_10  and  C7_11 
REMARK    6  A    between atoms: C7_11  and  C8_12 
ROOT
ATOM      1  C2  NON d   1     -44.599  17.631  -4.732  0.00  0.00     0.034 A 
ATOM      2  C3  NON d   1     -43.893  18.772  -5.121  0.00  0.00     0.017 A 
ATOM      3  C4  NON d   1     -42.617  19.023  -4.590  0.00  0.00     0.010 A 
ATOM      4  C5  NON d   1     -42.044  18.139  -3.666  0.00  0.00    -0.033 A 
ATOM      5  C14 NON d   1     -42.821  17.071  -3.185  0.00  0.00     0.010 A 
ATOM      6  C15 NON d   1     -44.083  16.808  -3.726  0.00  0.00     0.017 A 
ENDROOT
BRANCH   4   7
ATOM      7  C6  NON d   1     -40.618  18.328  -3.215  0.00  0.00     0.271 C 
BRANCH   7   8
ATOM      8  N2  NON d   1     -40.473  18.957  -1.857  0.00  0.00    -0.067 N 
ATOM      9  H7  NON d   1     -41.425  19.135  -1.515  0.00  0.00     0.277 HD
ATOM     10  H8  NON d   1     -40.070  18.289  -1.193  0.00  0.00     0.277 HD
BRANCH   8  11
ATOM     11  C7  NON d   1     -39.719  20.250  -1.756  0.00  0.00     0.271 C 
BRANCH  11  12
ATOM     12  C8  NON d   1     -40.129  21.307  -2.750  0.00  0.00    -0.031 A 
ATOM     13  C9  NON d   1     -40.670  22.533  -2.336  0.00  0.00     0.009 A 
ATOM     14  C10 NON d   1     -41.048  23.512  -3.257  0.00  0.00     0.002 A 
ATOM     15  C11 NON d   1     -40.841  23.305  -4.617  0.00  0.00     0.024 A 
ATOM     16  C12 NON d   1     -40.260  22.116  -5.045  0.00  0.00     0.034 A 
ATOM     17 Cl1  NON d   1     -39.939  21.879  -6.717  0.00  0.00    -0.084 Cl
ATOM     18  C13 NON d   1     -39.917  21.117  -4.126  0.00  0.00     0.032 A 
ENDBRANCH  11  12
ENDBRANCH   8  11
ENDBRANCH   7   8
ENDBRANCH   4   7
BRANCH   1  19
ATOM     19  C1  NON d   1     -45.862  17.285  -5.435  0.00  0.00     0.275 C 
ATOM     20  O1  NON d   1     -46.319  18.005  -6.312  0.00  0.00    -0.265 OA
ATOM     21  N1  NON d   1     -46.408  16.073  -5.078  0.00  0.00    -0.233 N 
ATOM     22  H1  NON d   1     -45.939  15.380  -4.508  0.00  0.00     0.197 HD
BRANCH  21  23
ATOM     23  O2  NON d   1     -47.485  15.601  -5.854  0.00  0.00    -0.287 OA
ATOM     24  H2  NON d   1     -47.460  16.186  -6.641  0.00  0.00     0.244 HD
ENDBRANCH  21  23
ENDBRANCH   1  19
TORSDOF 6
ENDMDL
MODEL 4
REMARK VINA RESULT:   -14.690      3.334      4.026
REMARK INTER + INTRA:         -17.973
REMARK INTER:                 -16.480
REMARK INTRA:                  -1.492
REMARK CONF_INDEPENDENT:        1.790
REMARK UNBOUND:                -1.492
REMARK  6 active torsions:
REMARK  status: ('A' for Active; 'I' for Inactive)
REMARK       I    between atoms: C1_2  and  N1_3 
REMARK    1  A    between atoms: C1_2  and  C2_5 
REMARK    2  A    between atoms: N1_3  and  O2_4 
REMARK    3  A    between atoms: C5_8  and  C6_9 
REMARK    4  A    between atoms: C6_9  and  N2_10 
REMARK    5  A    between atoms: N2_10  and  C7_11 
REMARK    6  A    between atoms: C7_11  and  C8_12 
ROOT
ATOM      1  C2  NON d   1     -44.541  17.578  -4.827  0.00  0.00     0.034 A 
ATOM      2  C3  NON d   1     -43.987  16.660  -3.933  0.00  0.00     0.017 A 
ATOM      3  C4  NON d   1     -42.850  17.007  -3.185  0.00  0.00     0.010 A 
ATOM      4  C5  NON d   1     -42.259  18.269  -3.331  0.00  0.00    -0.033 A 
ATOM      5  C14 NON d   1     -42.747  19.128  -4.332  0.00  0.00     0.010 A 
ATOM      6  C15 NON d   1     -43.891  18.793  -5.062  0.00  0.00     0.017 A 
ENDROOT
BRANCH   4   7
ATOM      7  C6  NON d   1     -41.135  18.694  -2.422  0.00  0.00     0.271 C 
BRANCH   7   8
ATOM      8  N2  NON d   1     -39.877  17.883  -2.567  0.00  0.00    -0.067 N 
ATOM      9  H7  NON d   1     -39.362  17.983  -1.684  0.00  0.00     0.277 HD
ATOM     10  H8  NON d   1     -40.098  16.885  -2.637  0.00  0.00     0.277 HD
BRANCH   8  11
ATOM     11  C7  NON d   1     -38.929  18.244  -3.673  0.00  0.00     0.271 C 
BRANCH  11  12
ATOM     12  C8  NON d   1     -39.391  19.365  -4.568  0.00  0.00    -0.031 A 
ATOM     13  C9  NON d   1     -39.504  20.681  -4.097  0.00  0.00     0.009 A 
ATOM     14  C10 NON d   1     -39.929  21.720  -4.927  0.00  0.00     0.002 A 
ATOM     15  C11 NON d   1     -40.201  21.472  -6.268  0.00  0.00     0.024 A 
ATOM     16  C12 NON d   1     -40.047  20.183  -6.769  0.00  0.00     0.034 A 
ATOM     17 Cl1  NON d   1     -40.315  19.880  -8.439  0.00  0.00    -0.084 Cl
ATOM     18  C13 NON d   1     -39.658  19.133  -5.928  0.00  0.00     0.032 A 
ENDBRANCH  11  12
ENDBRANCH   8  11
ENDBRANCH   7   8
ENDBRANCH   4   7
BRANCH   1  19
ATOM     19  C1  NON d   1     -45.844  17.267  -5.472  0.00  0.00     0.275 C 
ATOM     20  O1  NON d   1     -46.315  17.996  -6.335  0.00  0.00    -0.265 OA
ATOM     21  N1  NON d   1     -46.412  16.076  -5.083  0.00  0.00    -0.233 N 
ATOM     22  H1  NON d   1     -45.940  15.371  -4.529  0.00  0.00     0.197 HD
BRANCH  21  23
ATOM     23  O2  NON d   1     -47.535  15.633  -5.810  0.00  0.00    -0.287 OA
ATOM     24  H2  NON d   1     -47.604  16.295  -6.530  0.00  0.00     0.244 HD
ENDBRANCH  21  23
ENDBRANCH   1  19
TORSDOF 6
ENDMDL
MODEL 5
REMARK VINA RESULT:   -14.683      3.114      4.279
REMARK INTER + INTRA:         -17.853
REMARK INTER:                 -16.473
REMARK INTRA:                  -1.380
REMARK CONF_INDEPENDENT:        1.790
REMARK UNBOUND:                -1.380
REMARK  6 active torsions:
REMARK  status: ('A' for Active; 'I' for Inactive)
REMARK       I    between atoms: C1_2  and  N1_3 
REMARK    1  A    between atoms: C1_2  and  C2_5 
REMARK    2  A    between atoms: N1_3  and  O2_4 
REMARK    3  A    between atoms: C5_8  and  C6_9 
REMARK    4  A    between atoms: C6_9  and  N2_10 
REMARK    5  A    between atoms: N2_10  and  C7_11 
REMARK    6  A    between atoms: C7_11  and  C8_12 
ROOT
ATOM      1  C2  NON d   1     -44.657  17.510  -4.716  0.00  0.00     0.034 A 
ATOM      2  C3  NON d   1     -43.887  18.623  -5.060  0.00  0.00     0.017 A 
ATOM      3  C4  NON d   1     -42.602  18.783  -4.516  0.00  0.00     0.010 A 
ATOM      4  C5  NON d   1     -42.083  17.835  -3.624  0.00  0.00    -0.033 A 
ATOM      5  C14 NON d   1     -42.922  16.795  -3.185  0.00  0.00     0.010 A 
ATOM      6  C15 NON d   1     -44.193  16.623  -3.740  0.00  0.00     0.017 A 
ENDROOT
BRANCH   4   7
ATOM      7  C6  NON d   1     -40.652  17.928  -3.160  0.00  0.00     0.271 C 
BRANCH   7   8
ATOM      8  N2  NON d   1     -40.309  19.207  -2.450  0.00  0.00    -0.067 N 
ATOM      9  H7  NON d   1     -41.172  19.528  -1.993  0.00  0.00     0.277 HD
ATOM     10  H8  NON d   1     -39.651  19.029  -1.685  0.00  0.00     0.277 HD
BRANCH   8  11
ATOM     11  C7  NON d   1     -39.794  20.353  -3.270  0.00  0.00     0.271 C 
BRANCH  11  12
ATOM     12  C8  NON d   1     -39.456  20.013  -4.699  0.00  0.00    -0.031 A 
ATOM     13  C9  NON d   1     -38.368  19.188  -5.020  0.00  0.00     0.009 A 
ATOM     14  C10 NON d   1     -38.057  18.871  -6.344  0.00  0.00     0.002 A 
ATOM     15  C11 NON d   1     -38.866  19.332  -7.378  0.00  0.00     0.024 A 
ATOM     16  C12 NON d   1     -39.979  20.111  -7.078  0.00  0.00     0.034 A 
ATOM     17 Cl1  NON d   1     -41.021  20.629  -8.343  0.00  0.00    -0.084 Cl
ATOM     18  C13 NON d   1     -40.269  20.462  -5.754  0.00  0.00     0.032 A 
ENDBRANCH  11  12
ENDBRANCH   8  11
ENDBRANCH   7   8
ENDBRANCH   4   7
BRANCH   1  19
ATOM     19  C1  NON d   1     -45.933  17.261  -5.436  0.00  0.00     0.275 C 
ATOM     20  O1  NON d   1     -46.315  18.005  -6.329  0.00  0.00    -0.265 OA
ATOM     21  N1  NON d   1     -46.584  16.103  -5.074  0.00  0.00    -0.233 N 
ATOM     22  H1  NON d   1     -46.183  15.381  -4.489  0.00  0.00     0.197 HD
BRANCH  21  23
ATOM     23  O2  NON d   1     -47.684  15.712  -5.863  0.00  0.00    -0.287 OA
ATOM     24  H2  NON d   1     -47.597  16.282  -6.657  0.00  0.00     0.244 HD
ENDBRANCH  21  23
ENDBRANCH   1  19
TORSDOF 6
ENDMDL
MODEL 6
REMARK VINA RESULT:   -14.515      3.312      4.024
REMARK INTER + INTRA:         -17.759
REMARK INTER:                 -16.305
REMARK INTRA:                  -1.453
REMARK CONF_INDEPENDENT:        1.790
REMARK UNBOUND:                -1.453
REMARK  6 active torsions:
REMARK  status: ('A' for Active; 'I' for Inactive)
REMARK       I    between atoms: C1_2  and  N1_3 
REMARK    1  A    between atoms: C1_2  and  C2_5 
REMARK    2  A    between atoms: N1_3  and  O2_4 
REMARK    3  A    between atoms: C5_8  and  C6_9 
REMARK    4  A    between atoms: C6_9  and  N2_10 
REMARK    5  A    between atoms: N2_10  and  C7_11 
REMARK    6  A    between atoms: C7_11  and  C8_12 
ROOT
ATOM      1  C2  NON d   1     -44.730  17.424  -4.772  0.00  0.00     0.034 A 
ATOM      2  C3  NON d   1     -43.915  18.520  -5.061  0.00  0.00     0.017 A 
ATOM      3  C4  NON d   1     -42.649  18.632  -4.463  0.00  0.00     0.010 A 
ATOM      4  C5  NON d   1     -42.195  17.652  -3.569  0.00  0.00    -0.033 A 
ATOM      5  C14 NON d   1     -43.080  16.629  -3.186  0.00  0.00     0.010 A 
ATOM      6  C15 NON d   1     -44.332  16.505  -3.796  0.00  0.00     0.017 A 
ENDROOT
BRANCH   4   7
ATOM      7  C6  NON d   1     -40.782  17.694  -3.047  0.00  0.00     0.271 C 
BRANCH   7   8
ATOM      8  N2  NON d   1     -40.402  18.988  -2.384  0.00  0.00    -0.067 N 
ATOM      9  H7  NON d   1     -41.263  19.542  -2.308  0.00  0.00     0.277 HD
ATOM     10  H8  NON d   1     -40.103  18.823  -1.418  0.00  0.00     0.277 HD
BRANCH   8  11
ATOM     11  C7  NON d   1     -39.380  19.854  -3.062  0.00  0.00     0.271 C 
BRANCH  11  12
ATOM     12  C8  NON d   1     -39.675  20.178  -4.504  0.00  0.00    -0.031 A 
ATOM     13  C9  NON d   1     -40.122  21.449  -4.893  0.00  0.00     0.009 A 
ATOM     14  C10 NON d   1     -40.393  21.750  -6.230  0.00  0.00     0.002 A 
ATOM     15  C11 NON d   1     -40.170  20.796  -7.217  0.00  0.00     0.024 A 
ATOM     16  C12 NON d   1     -39.680  19.545  -6.858  0.00  0.00     0.034 A 
ATOM     17 Cl1  NON d   1     -39.338  18.382  -8.076  0.00  0.00    -0.084 Cl
ATOM     18  C13 NON d   1     -39.445  19.229  -5.514  0.00  0.00     0.032 A 
ENDBRANCH  11  12
ENDBRANCH   8  11
ENDBRANCH   7   8
ENDBRANCH   4   7
BRANCH   1  19
ATOM     19  C1  NON d   1     -45.983  17.226  -5.547  0.00  0.00     0.275 C 
ATOM     20  O1  NON d   1     -46.313  18.005  -6.431  0.00  0.00    -0.265 OA
ATOM     21  N1  NON d   1     -46.672  16.073  -5.247  0.00  0.00    -0.233 N 
ATOM     22  H1  NON d   1     -46.310  15.324  -4.669  0.00  0.00     0.197 HD
BRANCH  21  23
ATOM     23  O2  NON d   1     -47.749  15.732  -6.089  0.00  0.00    -0.287 OA
ATOM     24  H2  NON d   1     -47.639  16.347  -6.845  0.00  0.00     0.244 HD
ENDBRANCH  21  23
ENDBRANCH   1  19
TORSDOF 6
ENDMDL
MODEL 7
REMARK VINA RESULT:   -13.901      3.592      4.186
REMARK INTER + INTRA:         -16.820
REMARK INTER:                 -15.690
REMARK INTRA:                  -1.130
REMARK CONF_INDEPENDENT:        1.790
REMARK UNBOUND:                -1.130
REMARK  6 active torsions:
REMARK  status: ('A' for Active; 'I' for Inactive)
REMARK       I    between atoms: C1_2  and  N1_3 
REMARK    1  A    between atoms: C1_2  and  C2_5 
REMARK    2  A    between atoms: N1_3  and  O2_4 
REMARK    3  A    between atoms: C5_8  and  C6_9 
REMARK    4  A    between atoms: C6_9  and  N2_10 
REMARK    5  A    between atoms: N2_10  and  C7_11 
REMARK    6  A    between atoms: C7_11  and  C8_12 
ROOT
ATOM      1  C2  NON d   1     -44.682  17.739  -4.776  0.00  0.00     0.034 A 
ATOM      2  C3  NON d   1     -44.094  18.929  -5.210  0.00  0.00     0.017 A 
ATOM      3  C4  NON d   1     -42.857  19.334  -4.684  0.00  0.00     0.010 A 
ATOM      4  C5  NON d   1     -42.204  18.556  -3.718  0.00  0.00    -0.033 A 
ATOM      5  C14 NON d   1     -42.872  17.434  -3.195  0.00  0.00     0.010 A 
ATOM      6  C15 NON d   1     -44.094  17.019  -3.732  0.00  0.00     0.017 A 
ENDROOT
BRANCH   4   7
ATOM      7  C6  NON d   1     -40.811  18.912  -3.267  0.00  0.00     0.271 C 
BRANCH   7   8
ATOM      8  N2  NON d   1     -40.206  17.942  -2.292  0.00  0.00    -0.067 N 
ATOM      9  H7  NON d   1     -40.333  18.349  -1.357  0.00  0.00     0.277 HD
ATOM     10  H8  NON d   1     -40.738  17.066  -2.277  0.00  0.00     0.277 HD
BRANCH   8  11
ATOM     11  C7  NON d   1     -38.748  17.615  -2.434  0.00  0.00     0.271 C 
BRANCH  11  12
ATOM     12  C8  NON d   1     -37.961  18.573  -3.292  0.00  0.00    -0.031 A 
ATOM     13  C9  NON d   1     -37.393  19.739  -2.758  0.00  0.00     0.009 A 
ATOM     14  C10 NON d   1     -36.662  20.625  -3.552  0.00  0.00     0.002 A 
ATOM     15  C11 NON d   1     -36.438  20.334  -4.894  0.00  0.00     0.024 A 
ATOM     16  C12 NON d   1     -36.951  19.158  -5.432  0.00  0.00     0.034 A 
ATOM     17 Cl1  NON d   1     -36.623  18.758  -7.071  0.00  0.00    -0.084 Cl
ATOM     18  C13 NON d   1     -37.717  18.288  -4.646  0.00  0.00     0.032 A 
ENDBRANCH  11  12
ENDBRANCH   8  11
ENDBRANCH   7   8
ENDBRANCH   4   7
BRANCH   1  19
ATOM     19  C1  NON d   1     -45.895  17.233  -5.470  0.00  0.00     0.275 C 
ATOM     20  O1  NON d   1     -46.406  17.856  -6.391  0.00  0.00    -0.265 OA
ATOM     21  N1  NON d   1     -46.326  15.996  -5.051  0.00  0.00    -0.233 N 
ATOM     22  H1  NON d   1     -45.801  15.384  -4.439  0.00  0.00     0.197 HD
BRANCH  21  23
ATOM     23  O2  NON d   1     -47.341  15.379  -5.810  0.00  0.00    -0.287 OA
ATOM     24  H2  NON d   1     -47.602  16.084  -6.440  0.00  0.00     0.244 HD
ENDBRANCH  21  23
ENDBRANCH   1  19
TORSDOF 6
ENDMDL
MODEL 8
REMARK VINA RESULT:   -13.658      0.960      1.591
REMARK INTER + INTRA:         -16.785
REMARK INTER:                 -15.447
REMARK INTRA:                  -1.337
REMARK CONF_INDEPENDENT:        1.790
REMARK UNBOUND:                -1.337
REMARK  6 active torsions:
REMARK  status: ('A' for Active; 'I' for Inactive)
REMARK       I    between atoms: C1_2  and  N1_3 
REMARK    1  A    between atoms: C1_2  and  C2_5 
REMARK    2  A    between atoms: N1_3  and  O2_4 
REMARK    3  A    between atoms: C5_8  and  C6_9 
REMARK    4  A    between atoms: C6_9  and  N2_10 
REMARK    5  A    between atoms: N2_10  and  C7_11 
REMARK    6  A    between atoms: C7_11  and  C8_12 
ROOT
ATOM      1  C2  NON d   1     -44.570  17.480  -4.888  0.00  0.00     0.034 A 
ATOM      2  C3  NON d   1     -44.077  16.541  -3.980  0.00  0.00     0.017 A 
ATOM      3  C4  NON d   1     -42.961  16.850  -3.185  0.00  0.00     0.010 A 
ATOM      4  C5  NON d   1     -42.330  18.097  -3.298  0.00  0.00    -0.033 A 
ATOM      5  C14 NON d   1     -42.755  18.977  -4.309  0.00  0.00     0.010 A 
ATOM      6  C15 NON d   1     -43.878  18.679  -5.087  0.00  0.00     0.017 A 
ENDROOT
BRANCH   4   7
ATOM      7  C6  NON d   1     -41.232  18.483  -2.342  0.00  0.00     0.271 C 
BRANCH   7   8
ATOM      8  N2  NON d   1     -39.842  18.304  -2.886  0.00  0.00    -0.067 N 
ATOM      9  H7  NON d   1     -39.370  17.634  -2.266  0.00  0.00     0.277 HD
ATOM     10  H8  NON d   1     -39.870  17.847  -3.803  0.00  0.00     0.277 HD
BRANCH   8  11
ATOM     11  C7  NON d   1     -38.960  19.514  -2.979  0.00  0.00     0.271 C 
BRANCH  11  12
ATOM     12  C8  NON d   1     -39.674  20.835  -2.843  0.00  0.00    -0.031 A 
ATOM     13  C9  NON d   1     -40.249  21.476  -3.950  0.00  0.00     0.009 A 
ATOM     14  C10 NON d   1     -40.913  22.698  -3.823  0.00  0.00     0.002 A 
ATOM     15  C11 NON d   1     -41.061  23.282  -2.569  0.00  0.00     0.024 A 
ATOM     16  C12 NON d   1     -40.541  22.639  -1.450  0.00  0.00     0.034 A 
ATOM     17 Cl1  NON d   1     -40.778  23.319   0.110  0.00  0.00    -0.084 Cl
ATOM     18  C13 NON d   1     -39.841  21.432  -1.582  0.00  0.00     0.032 A 
ENDBRANCH  11  12
ENDBRANCH   8  11
ENDBRANCH   7   8
ENDBRANCH   4   7
BRANCH   1  19
ATOM     19  C1  NON d   1     -45.854  17.210  -5.586  0.00  0.00     0.275 C 
ATOM     20  O1  NON d   1     -46.318  18.005  -6.393  0.00  0.00    -0.265 OA
ATOM     21  N1  NON d   1     -46.414  15.983  -5.313  0.00  0.00    -0.233 N 
ATOM     22  H1  NON d   1     -45.944  15.240  -4.811  0.00  0.00     0.197 HD
BRANCH  21  23
ATOM     23  O2  NON d   1     -47.515  15.591  -6.100  0.00  0.00    -0.287 OA
ATOM     24  H2  NON d   1     -47.614  16.340  -6.726  0.00  0.00     0.244 HD
ENDBRANCH  21  23
ENDBRANCH   1  19
TORSDOF 6
ENDMDL
MODEL 9
REMARK VINA RESULT:   -13.009      2.950      4.136
REMARK INTER + INTRA:         -15.913
REMARK INTER:                 -14.799
REMARK INTRA:                  -1.115
REMARK CONF_INDEPENDENT:        1.790
REMARK UNBOUND:                -1.115
REMARK  6 active torsions:
REMARK  status: ('A' for Active; 'I' for Inactive)
REMARK       I    between atoms: C1_2  and  N1_3 
REMARK    1  A    between atoms: C1_2  and  C2_5 
REMARK    2  A    between atoms: N1_3  and  O2_4 
REMARK    3  A    between atoms: C5_8  and  C6_9 
REMARK    4  A    between atoms: C6_9  and  N2_10 
REMARK    5  A    between atoms: N2_10  and  C7_11 
REMARK    6  A    between atoms: C7_11  and  C8_12 
ROOT
ATOM      1  C2  NON d   1     -45.006  17.624  -4.961  0.00  0.00     0.034 A 
ATOM      2  C3  NON d   1     -44.371  18.777  -5.426  0.00  0.00     0.017 A 
ATOM      3  C4  NON d   1     -43.095  19.118  -4.948  0.00  0.00     0.010 A 
ATOM      4  C5  NON d   1     -42.452  18.311  -3.999  0.00  0.00    -0.033 A 
ATOM      5  C14 NON d   1     -43.160  17.231  -3.443  0.00  0.00     0.010 A 
ATOM      6  C15 NON d   1     -44.421  16.879  -3.933  0.00  0.00     0.017 A 
ENDROOT
BRANCH   4   7
ATOM      7  C6  NON d   1     -41.026  18.594  -3.601  0.00  0.00     0.271 C 
BRANCH   7   8
ATOM      8  N2  NON d   1     -40.679  20.054  -3.525  0.00  0.00    -0.067 N 
ATOM      9  H7  NON d   1     -40.866  20.448  -4.455  0.00  0.00     0.277 HD
ATOM     10  H8  NON d   1     -41.319  20.544  -2.892  0.00  0.00     0.277 HD
BRANCH   8  11
ATOM     11  C7  NON d   1     -39.270  20.425  -3.165  0.00  0.00     0.271 C 
BRANCH  11  12
ATOM     12  C8  NON d   1     -38.232  19.383  -3.493  0.00  0.00    -0.031 A 
ATOM     13  C9  NON d   1     -37.644  19.307  -4.764  0.00  0.00     0.009 A 
ATOM     14  C10 NON d   1     -36.681  18.343  -5.067  0.00  0.00     0.002 A 
ATOM     15  C11 NON d   1     -36.244  17.463  -4.083  0.00  0.00     0.024 A 
ATOM     16  C12 NON d   1     -36.778  17.553  -2.801  0.00  0.00     0.034 A 
ATOM     17 Cl1  NON d   1     -36.196  16.514  -1.561  0.00  0.00    -0.084 Cl
ATOM     18  C13 NON d   1     -37.772  18.494  -2.507  0.00  0.00     0.032 A 
ENDBRANCH  11  12
ENDBRANCH   8  11
ENDBRANCH   7   8
ENDBRANCH   4   7
BRANCH   1  19
ATOM     19  C1  NON d   1     -46.269  17.180  -5.608  0.00  0.00     0.275 C 
ATOM     20  O1  NON d   1     -46.929  17.941  -6.302  0.00  0.00    -0.265 OA
ATOM     21  N1  NON d   1     -46.574  15.850  -5.428  0.00  0.00    -0.233 N 
ATOM     22  H1  NON d   1     -45.940  15.167  -5.031  0.00  0.00     0.197 HD
BRANCH  21  23
ATOM     23  O2  NON d   1     -47.642  15.329  -6.185  0.00  0.00    -0.287 OA
ATOM     24  H2  NON d   1     -48.060  16.134  -6.557  0.00  0.00     0.244 HD
ENDBRANCH  21  23
ENDBRANCH   1  19
TORSDOF 6
ENDMDL
