MODEL 1
REMARK VINA RESULT:   -32.098      0.000      0.000
REMARK INTER + INTRA:         -36.497
REMARK INTER:                 -34.783
REMARK INTRA:                  -1.714
REMARK CONF_INDEPENDENT:        2.685
REMARK UNBOUND:                -1.714
REMARK  9 active torsions:
REMARK  status: ('A' for Active; 'I' for Inactive)
REMARK    1  A    between atoms: P1_2  and  C2_4 
REMARK    2  A    between atoms: P1_2  and  O3_26 
REMARK    3  A    between atoms: C2_4  and  C3_5 
REMARK    4  A    between atoms: C6_8  and  C7_9 
REMARK       I    between atoms: C7_9  and  N1_11 
REMARK    5  A    between atoms: N1_11  and  C8_12 
REMARK    6  A    between atoms: C10_14  and  C11_15 
REMARK    7  A    between atoms: C17_22  and  N2_23 
REMARK    8  A    between atoms: O3_26  and  C20_27 
REMARK    9  A    between atoms: C20_27  and  C21_28 
ROOT
ATOM      1  C3  NON d   1     -40.247  19.153  -6.424  0.00  0.00    -0.049 A 
ATOM      2  C4  NON d   1     -41.065  20.044  -7.129  0.00  0.00     0.009 A 
ATOM      3  C5  NON d   1     -40.548  20.825  -8.167  0.00  0.00     0.017 A 
ATOM      4  C6  NON d   1     -39.196  20.763  -8.535  0.00  0.00     0.032 A 
ATOM      5  C18 NON d   1     -38.358  19.907  -7.811  0.00  0.00     0.017 A 
ATOM      6  C19 NON d   1     -38.882  19.111  -6.767  0.00  0.00     0.009 A 
ENDROOT
BRANCH   4   7
ATOM      7  C7  NON d   1     -38.784  21.588  -9.728  0.00  0.00     0.256 C 
ATOM      8  O2  NON d   1     -37.765  22.268  -9.598  0.00  0.00    -0.267 OA
ATOM      9  N1  NON d   1     -39.565  21.555 -10.866  0.00  0.00    -0.321 N 
ATOM     10  H8  NON d   1     -40.373  20.949 -10.907  0.00  0.00     0.169 HD
BRANCH   9  11
ATOM     11  C8  NON d   1     -39.310  22.242 -12.095  0.00  0.00     0.057 A 
ATOM     12  C9  NON d   1     -40.194  23.180 -12.660  0.00  0.00     0.044 A 
ATOM     13  C10 NON d   1     -39.890  23.904 -13.833  0.00  0.00    -0.017 A 
ATOM     14  C15 NON d   1     -38.644  23.663 -14.429  0.00  0.00     0.014 A 
ATOM     15  C16 NON d   1     -37.753  22.728 -13.890  0.00  0.00     0.026 A 
ATOM     16  C17 NON d   1     -38.092  21.981 -12.755  0.00  0.00     0.033 A 
BRANCH  13  17
ATOM     17  C11 NON d   1     -40.860  24.896 -14.373  0.00  0.00     0.015 A 
ATOM     18  C12 NON d   1     -41.799  25.661 -13.691  0.00  0.00     0.020 A 
ATOM     19  C13 NON d   1     -42.562  26.519 -14.537  0.00  0.00     0.008 A 
ATOM     20  C14 NON d   1     -42.197  26.394 -15.855  0.00  0.00     0.050 A 
ATOM     21  S1  NON d   1     -40.951  25.248 -16.062  0.00  0.00    -0.101 SA
ENDBRANCH  13  17
BRANCH  16  22
ATOM     22  N2  NON d   1     -37.162  21.050 -12.236  0.00  0.00    -0.301 NA
ATOM     23  H15 NON d   1     -36.349  20.983 -12.842  0.00  0.00     0.124 HD
ATOM     24  H16 NON d   1     -36.868  21.292 -11.292  0.00  0.00     0.124 HD
ENDBRANCH  16  22
ENDBRANCH   9  11
ENDBRANCH   4   7
BRANCH   1  25
ATOM     25  C2  NON d   1     -40.831  18.248  -5.301  0.00  0.00     0.140 C 
BRANCH  25  26
ATOM     26  P1  NON d   1     -42.335  18.276  -4.970  0.00  0.00     0.198 P 
ATOM     27  C1  NON d   1     -42.172  19.674  -4.345  0.00  0.00     0.117 C 
ATOM     28  O1  NON d   1     -42.498  16.878  -5.596  0.00  0.00    -0.291 OA
BRANCH  26  29
ATOM     29  O3  NON d   1     -43.838  18.303  -4.639  0.00  0.00    -0.329 OA
BRANCH  29  30
ATOM     30  C20 NON d   1     -44.484  17.367  -3.771  0.00  0.00     0.216 C 
BRANCH  30  31
ATOM     31  C21 NON d   1     -45.845  16.831  -4.168  0.00  0.00    -0.017 A 
ATOM     32  C22 NON d   1     -46.795  16.525  -3.186  0.00  0.00     0.012 A 
ATOM     33  C23 NON d   1     -48.030  15.986  -3.546  0.00  0.00     0.020 A 
ATOM     34  C24 NON d   1     -48.295  15.791  -4.890  0.00  0.00     0.116 A 
ATOM     35  N3  NON d   1     -47.440  16.132  -5.873  0.00  0.00    -0.272 NA
ATOM     36  C25 NON d   1     -46.239  16.640  -5.490  0.00  0.00     0.125 A 
ENDBRANCH  30  31
ENDBRANCH  29  30
ENDBRANCH  26  29
ENDBRANCH  25  26
ENDBRANCH   1  25
TORSDOF 9
ENDMDL
MODEL 2
REMARK VINA RESULT:   -30.583      2.002      2.921
REMARK INTER + INTRA:         -34.649
REMARK INTER:                 -33.268
REMARK INTRA:                  -1.381
REMARK CONF_INDEPENDENT:        2.685
REMARK UNBOUND:                -1.381
REMARK  9 active torsions:
REMARK  status: ('A' for Active; 'I' for Inactive)
REMARK    1  A    between atoms: P1_2  and  C2_4 
REMARK    2  A    between atoms: P1_2  and  O3_26 
REMARK    3  A    between atoms: C2_4  and  C3_5 
REMARK    4  A    between atoms: C6_8  and  C7_9 
REMARK       I    between atoms: C7_9  and  N1_11 
REMARK    5  A    between atoms: N1_11  and  C8_12 
REMARK    6  A    between atoms: C10_14  and  C11_15 
REMARK    7  A    between atoms: C17_22  and  N2_23 
REMARK    8  A    between atoms: O3_26  and  C20_27 
REMARK    9  A    between atoms: C20_27  and  C21_28 
ROOT
ATOM      1  C3  NON d   1     -40.280  19.675  -5.117  0.00  0.00    -0.049 A 
ATOM      2  C4  NON d   1     -39.971  21.004  -4.802  0.00  0.00     0.009 A 
ATOM      3  C5  NON d   1     -39.684  21.932  -5.808  0.00  0.00     0.017 A 
ATOM      4  C6  NON d   1     -39.677  21.572  -7.165  0.00  0.00     0.032 A 
ATOM      5  C18 NON d   1     -39.943  20.237  -7.490  0.00  0.00     0.017 A 
ATOM      6  C19 NON d   1     -40.243  19.301  -6.473  0.00  0.00     0.009 A 
ENDROOT
BRANCH   4   7
ATOM      7  C7  NON d   1     -39.441  22.684  -8.155  0.00  0.00     0.256 C 
ATOM      8  O2  NON d   1     -38.870  23.687  -7.725  0.00  0.00    -0.267 OA
ATOM      9  N1  NON d   1     -39.886  22.530  -9.453  0.00  0.00    -0.321 N 
ATOM     10  H8  NON d   1     -40.322  21.664  -9.738  0.00  0.00     0.169 HD
BRANCH   9  11
ATOM     11  C8  NON d   1     -39.719  23.460 -10.527  0.00  0.00     0.057 A 
ATOM     12  C9  NON d   1     -39.130  23.126 -11.760  0.00  0.00     0.044 A 
ATOM     13  C10 NON d   1     -39.043  24.035 -12.837  0.00  0.00    -0.017 A 
ATOM     14  C15 NON d   1     -39.586  25.313 -12.639  0.00  0.00     0.014 A 
ATOM     15  C16 NON d   1     -40.170  25.670 -11.418  0.00  0.00     0.026 A 
ATOM     16  C17 NON d   1     -40.200  24.772 -10.344  0.00  0.00     0.033 A 
BRANCH  13  17
ATOM     17  C11 NON d   1     -38.422  23.617 -14.123  0.00  0.00     0.015 A 
ATOM     18  C12 NON d   1     -38.148  24.380 -15.251  0.00  0.00     0.020 A 
ATOM     19  C13 NON d   1     -37.537  23.642 -16.308  0.00  0.00     0.008 A 
ATOM     20  C14 NON d   1     -37.356  22.323 -15.972  0.00  0.00     0.050 A 
ATOM     21  S1  NON d   1     -37.927  21.985 -14.400  0.00  0.00    -0.101 SA
ENDBRANCH  13  17
BRANCH  16  22
ATOM     22  N2  NON d   1     -40.805  25.168  -9.128  0.00  0.00    -0.301 NA
ATOM     23  H15 NON d   1     -41.815  25.076  -9.186  0.00  0.00     0.124 HD
ATOM     24  H16 NON d   1     -40.454  24.633  -8.337  0.00  0.00     0.124 HD
ENDBRANCH  16  22
ENDBRANCH   9  11
ENDBRANCH   4   7
BRANCH   1  25
ATOM     25  C2  NON d   1     -40.648  18.654  -4.002  0.00  0.00     0.140 C 
BRANCH  25  26
ATOM     26  P1  NON d   1     -42.114  18.249  -3.758  0.00  0.00     0.198 P 
ATOM     27  C1  NON d   1     -42.216  17.745  -5.210  0.00  0.00     0.117 C 
ATOM     28  O1  NON d   1     -42.011  18.754  -2.307  0.00  0.00    -0.291 OA
BRANCH  26  29
ATOM     29  O3  NON d   1     -43.579  17.844  -3.514  0.00  0.00    -0.329 OA
BRANCH  29  30
ATOM     30  C20 NON d   1     -44.129  16.572  -3.872  0.00  0.00     0.216 C 
BRANCH  30  31
ATOM     31  C21 NON d   1     -45.604  16.489  -4.205  0.00  0.00    -0.017 A 
ATOM     32  C22 NON d   1     -46.564  16.683  -3.204  0.00  0.00     0.012 A 
ATOM     33  C23 NON d   1     -47.922  16.560  -3.498  0.00  0.00     0.020 A 
ATOM     34  C24 NON d   1     -48.289  16.271  -4.800  0.00  0.00     0.116 A 
ATOM     35  N3  NON d   1     -47.406  16.142  -5.810  0.00  0.00    -0.272 NA
ATOM     36  C25 NON d   1     -46.090  16.253  -5.489  0.00  0.00     0.125 A 
ENDBRANCH  30  31
ENDBRANCH  29  30
ENDBRANCH  26  29
ENDBRANCH  25  26
ENDBRANCH   1  25
TORSDOF 9
ENDMDL
MODEL 3
REMARK VINA RESULT:   -30.542      1.868      2.356
REMARK INTER + INTRA:         -35.119
REMARK INTER:                 -33.226
REMARK INTRA:                  -1.892
REMARK CONF_INDEPENDENT:        2.685
REMARK UNBOUND:                -1.892
REMARK  9 active torsions:
REMARK  status: ('A' for Active; 'I' for Inactive)
REMARK    1  A    between atoms: P1_2  and  C2_4 
REMARK    2  A    between atoms: P1_2  and  O3_26 
REMARK    3  A    between atoms: C2_4  and  C3_5 
REMARK    4  A    between atoms: C6_8  and  C7_9 
REMARK       I    between atoms: C7_9  and  N1_11 
REMARK    5  A    between atoms: N1_11  and  C8_12 
REMARK    6  A    between atoms: C10_14  and  C11_15 
REMARK    7  A    between atoms: C17_22  and  N2_23 
REMARK    8  A    between atoms: O3_26  and  C20_27 
REMARK    9  A    between atoms: C20_27  and  C21_28 
ROOT
ATOM      1  C3  NON d   1     -40.541  19.982  -5.852  0.00  0.00    -0.049 A 
ATOM      2  C4  NON d   1     -39.797  21.127  -5.542  0.00  0.00     0.009 A 
ATOM      3  C5  NON d   1     -39.393  22.014  -6.545  0.00  0.00     0.017 A 
ATOM      4  C6  NON d   1     -39.699  21.790  -7.896  0.00  0.00     0.032 A 
ATOM      5  C18 NON d   1     -40.406  20.627  -8.224  0.00  0.00     0.017 A 
ATOM      6  C19 NON d   1     -40.822  19.735  -7.209  0.00  0.00     0.009 A 
ENDROOT
BRANCH   4   7
ATOM      7  C7  NON d   1     -39.284  22.866  -8.867  0.00  0.00     0.256 C 
ATOM      8  O2  NON d   1     -38.074  23.072  -8.971  0.00  0.00    -0.267 OA
ATOM      9  N1  NON d   1     -40.260  23.559  -9.554  0.00  0.00    -0.321 N 
ATOM     10  H8  NON d   1     -41.233  23.312  -9.437  0.00  0.00     0.169 HD
BRANCH   9  11
ATOM     11  C8  NON d   1     -40.050  24.581 -10.534  0.00  0.00     0.057 A 
ATOM     12  C9  NON d   1     -40.622  24.556 -11.819  0.00  0.00     0.044 A 
ATOM     13  C10 NON d   1     -40.467  25.611 -12.745  0.00  0.00    -0.017 A 
ATOM     14  C15 NON d   1     -39.714  26.719 -12.330  0.00  0.00     0.014 A 
ATOM     15  C16 NON d   1     -39.128  26.762 -11.059  0.00  0.00     0.026 A 
ATOM     16  C17 NON d   1     -39.250  25.685 -10.174  0.00  0.00     0.033 A 
BRANCH  13  17
ATOM     17  C11 NON d   1     -41.111  25.533 -14.084  0.00  0.00     0.015 A 
ATOM     18  C12 NON d   1     -41.127  24.477 -14.986  0.00  0.00     0.020 A 
ATOM     19  C13 NON d   1     -41.855  24.755 -16.181  0.00  0.00     0.008 A 
ATOM     20  C14 NON d   1     -42.382  26.023 -16.176  0.00  0.00     0.050 A 
ATOM     21  S1  NON d   1     -41.992  26.865 -14.744  0.00  0.00    -0.101 SA
ENDBRANCH  13  17
BRANCH  16  22
ATOM     22  N2  NON d   1     -38.649  25.769  -8.896  0.00  0.00    -0.301 NA
ATOM     23  H15 NON d   1     -39.296  25.460  -8.177  0.00  0.00     0.124 HD
ATOM     24  H16 NON d   1     -37.790  25.226  -8.843  0.00  0.00     0.124 HD
ENDBRANCH  16  22
ENDBRANCH   9  11
ENDBRANCH   4   7
BRANCH   1  25
ATOM     25  C2  NON d   1     -41.033  19.021  -4.733  0.00  0.00     0.140 C 
BRANCH  25  26
ATOM     26  P1  NON d   1     -42.535  18.736  -4.543  0.00  0.00     0.198 P 
ATOM     27  C1  NON d   1     -42.230  17.235  -4.382  0.00  0.00     0.117 C 
ATOM     28  O1  NON d   1     -42.839  20.237  -4.704  0.00  0.00    -0.291 OA
BRANCH  26  29
ATOM     29  O3  NON d   1     -44.036  18.452  -4.353  0.00  0.00    -0.329 OA
BRANCH  29  30
ATOM     30  C20 NON d   1     -44.554  17.299  -3.682  0.00  0.00     0.216 C 
BRANCH  30  31
ATOM     31  C21 NON d   1     -45.868  16.714  -4.158  0.00  0.00    -0.017 A 
ATOM     32  C22 NON d   1     -46.754  16.133  -3.243  0.00  0.00     0.012 A 
ATOM     33  C23 NON d   1     -47.941  15.550  -3.685  0.00  0.00     0.020 A 
ATOM     34  C24 NON d   1     -48.228  15.588  -5.038  0.00  0.00     0.116 A 
ATOM     35  N3  NON d   1     -47.440  16.194  -5.948  0.00  0.00    -0.272 NA
ATOM     36  C25 NON d   1     -46.283  16.739  -5.488  0.00  0.00     0.125 A 
ENDBRANCH  30  31
ENDBRANCH  29  30
ENDBRANCH  26  29
ENDBRANCH  25  26
ENDBRANCH   1  25
TORSDOF 9
ENDMDL
MODEL 4
REMARK VINA RESULT:   -29.438      7.634     11.079
REMARK INTER + INTRA:         -33.942
REMARK INTER:                 -32.123
REMARK INTRA:                  -1.819
REMARK CONF_INDEPENDENT:        2.685
REMARK UNBOUND:                -1.819
REMARK  9 active torsions:
REMARK  status: ('A' for Active; 'I' for Inactive)
REMARK    1  A    between atoms: P1_2  and  C2_4 
REMARK    2  A    between atoms: P1_2  and  O3_26 
REMARK    3  A    between atoms: C2_4  and  C3_5 
REMARK    4  A    between atoms: C6_8  and  C7_9 
REMARK       I    between atoms: C7_9  and  N1_11 
REMARK    5  A    between atoms: N1_11  and  C8_12 
REMARK    6  A    between atoms: C10_14  and  C11_15 
REMARK    7  A    between atoms: C17_22  and  N2_23 
REMARK    8  A    between atoms: O3_26  and  C20_27 
REMARK    9  A    between atoms: C20_27  and  C21_28 
ROOT
ATOM      1  C3  NON d   1     -40.250  20.210  -3.693  0.00  0.00    -0.049 A 
ATOM      2  C4  NON d   1     -40.166  21.579  -3.974  0.00  0.00     0.009 A 
ATOM      3  C5  NON d   1     -39.900  22.505  -2.960  0.00  0.00     0.017 A 
ATOM      4  C6  NON d   1     -39.721  22.108  -1.626  0.00  0.00     0.032 A 
ATOM      5  C18 NON d   1     -39.844  20.746  -1.325  0.00  0.00     0.017 A 
ATOM      6  C19 NON d   1     -40.104  19.809  -2.351  0.00  0.00     0.009 A 
ENDROOT
BRANCH   4   7
ATOM      7  C7  NON d   1     -39.351  23.191  -0.645  0.00  0.00     0.256 C 
ATOM      8  O2  NON d   1     -38.182  23.205  -0.260  0.00  0.00    -0.267 OA
ATOM      9  N1  NON d   1     -40.326  24.074  -0.225  0.00  0.00    -0.321 N 
ATOM     10  H8  NON d   1     -41.260  24.016  -0.608  0.00  0.00     0.169 HD
BRANCH   9  11
ATOM     11  C8  NON d   1     -40.150  25.178   0.668  0.00  0.00     0.057 A 
ATOM     12  C9  NON d   1     -40.917  25.368   1.832  0.00  0.00     0.044 A 
ATOM     13  C10 NON d   1     -40.677  26.421   2.742  0.00  0.00    -0.017 A 
ATOM     14  C15 NON d   1     -39.615  27.288   2.449  0.00  0.00     0.014 A 
ATOM     15  C16 NON d   1     -38.843  27.124   1.293  0.00  0.00     0.026 A 
ATOM     16  C17 NON d   1     -39.128  26.105   0.376  0.00  0.00     0.033 A 
BRANCH  13  17
ATOM     17  C11 NON d   1     -41.514  26.559   3.965  0.00  0.00     0.015 A 
ATOM     18  C12 NON d   1     -41.251  26.124   5.258  0.00  0.00     0.020 A 
ATOM     19  C13 NON d   1     -42.285  26.437   6.190  0.00  0.00     0.008 A 
ATOM     20  C14 NON d   1     -43.325  27.105   5.592  0.00  0.00     0.050 A 
ATOM     21  S1  NON d   1     -43.053  27.342   3.925  0.00  0.00    -0.101 SA
ENDBRANCH  13  17
BRANCH  16  22
ATOM     22  N2  NON d   1     -38.321  25.967  -0.778  0.00  0.00    -0.301 NA
ATOM     23  H15 NON d   1     -37.790  25.102  -0.739  0.00  0.00     0.124 HD
ATOM     24  H16 NON d   1     -38.872  25.996  -1.633  0.00  0.00     0.124 HD
ENDBRANCH  16  22
ENDBRANCH   9  11
ENDBRANCH   4   7
BRANCH   1  25
ATOM     25  C2  NON d   1     -40.498  19.175  -4.828  0.00  0.00     0.140 C 
BRANCH  25  26
ATOM     26  P1  NON d   1     -41.845  18.438  -4.941  0.00  0.00     0.198 P 
ATOM     27  C1  NON d   1     -41.217  17.442  -5.934  0.00  0.00     0.117 C 
ATOM     28  O1  NON d   1     -42.473  19.433  -3.948  0.00  0.00    -0.291 OA
BRANCH  26  29
ATOM     29  O3  NON d   1     -43.192  17.701  -5.054  0.00  0.00    -0.329 OA
BRANCH  29  30
ATOM     30  C20 NON d   1     -44.384  18.102  -4.371  0.00  0.00     0.216 C 
BRANCH  30  31
ATOM     31  C21 NON d   1     -45.656  17.315  -4.613  0.00  0.00    -0.017 A 
ATOM     32  C22 NON d   1     -46.291  16.658  -3.551  0.00  0.00     0.012 A 
ATOM     33  C23 NON d   1     -47.434  15.892  -3.780  0.00  0.00     0.020 A 
ATOM     34  C24 NON d   1     -47.933  15.826  -5.068  0.00  0.00     0.116 A 
ATOM     35  N3  NON d   1     -47.398  16.494  -6.108  0.00  0.00    -0.272 NA
ATOM     36  C25 NON d   1     -46.276  17.219  -5.857  0.00  0.00     0.125 A 
ENDBRANCH  30  31
ENDBRANCH  29  30
ENDBRANCH  26  29
ENDBRANCH  25  26
ENDBRANCH   1  25
TORSDOF 9
ENDMDL
