MODEL 1
REMARK VINA RESULT:   -14.677      0.000      0.000
REMARK INTER + INTRA:         -17.843
REMARK INTER:                 -17.063
REMARK INTRA:                  -0.780
REMARK CONF_INDEPENDENT:        2.386
REMARK UNBOUND:                -0.780
REMARK  8 active torsions:
REMARK  status: ('A' for Active; 'I' for Inactive)
REMARK    1  A    between atoms: O1_2  and  C2_3 
REMARK    2  A    between atoms: C5_6  and  N1_7 
REMARK       I    between atoms: N1_7  and  C6_8 
REMARK    3  A    between atoms: C6_8  and  C7_10 
REMARK    4  A    between atoms: C7_10  and  C8_11 
REMARK    5  A    between atoms: C8_11  and  C9_12 
REMARK    6  A    between atoms: C9_12  and  C10_13 
REMARK    7  A    between atoms: C10_13  and  C11_14 
REMARK       I    between atoms: C11_14  and  N2_16 
REMARK    8  A    between atoms: N2_16  and  O4_17 
ROOT
ATOM      1  N1  NON d   1     -44.419  17.202  -3.471  0.00  0.00    -0.327 N 
ATOM      2  C6  NON d   1     -45.406  16.505  -4.154  0.00  0.00     0.222 C 
ATOM      3  O2  NON d   1     -45.504  16.409  -5.375  0.00  0.00    -0.273 OA
ATOM      4  H6  NON d   1     -44.508  17.240  -2.463  0.00  0.00     0.169 HD
ENDROOT
BRANCH   2   5
ATOM      5  C7  NON d   1     -46.425  15.847  -3.221  0.00  0.00     0.103 C 
BRANCH   5   6
ATOM      6  C8  NON d   1     -47.481  16.857  -2.759  0.00  0.00     0.010 C 
BRANCH   6   7
ATOM      7  C9  NON d   1     -48.936  16.450  -3.022  0.00  0.00     0.010 C 
BRANCH   7   8
ATOM      8  C10 NON d   1     -49.150  15.620  -4.290  0.00  0.00     0.105 C 
BRANCH   8   9
ATOM      9  C11 NON d   1     -48.181  15.913  -5.420  0.00  0.00     0.240 C 
ATOM     10  O3  NON d   1     -47.742  15.064  -6.182  0.00  0.00    -0.271 OA
ATOM     11  N2  NON d   1     -47.816  17.249  -5.438  0.00  0.00    -0.237 N 
ATOM     12  H15 NON d   1     -48.432  17.956  -5.048  0.00  0.00     0.197 HD
BRANCH  11  13
ATOM     13  O4  NON d   1     -47.059  17.659  -6.557  0.00  0.00    -0.287 OA
ATOM     14  H16 NON d   1     -46.857  16.807  -6.989  0.00  0.00     0.244 HD
ENDBRANCH  11  13
ENDBRANCH   8   9
ENDBRANCH   7   8
ENDBRANCH   6   7
ENDBRANCH   5   6
ENDBRANCH   2   5
BRANCH   1  15
ATOM     15  C5  NON d   1     -43.331  17.913  -4.034  0.00  0.00     0.034 A 
ATOM     16  C4  NON d   1     -42.058  17.703  -3.493  0.00  0.00     0.032 A 
ATOM     17  C3  NON d   1     -40.940  18.398  -3.987  0.00  0.00     0.039 A 
ATOM     18  C2  NON d   1     -41.071  19.310  -5.036  0.00  0.00     0.068 A 
ATOM     19  C13 NON d   1     -42.332  19.502  -5.596  0.00  0.00     0.039 A 
ATOM     20  C12 NON d   1     -43.450  18.808  -5.098  0.00  0.00     0.032 A 
BRANCH  18  21
ATOM     21  O1  NON d   1     -39.918  19.957  -5.418  0.00  0.00    -0.356 OA
ATOM     22  C1  NON d   1     -40.199  21.393  -5.896  0.00  0.00     0.210 C 
ENDBRANCH  18  21
ENDBRANCH   1  15
TORSDOF 8
ENDMDL
MODEL 2
REMARK VINA RESULT:   -13.367      2.430      4.370
REMARK INTER + INTRA:         -16.993
REMARK INTER:                 -15.753
REMARK INTRA:                  -1.240
REMARK CONF_INDEPENDENT:        2.386
REMARK UNBOUND:                -1.240
REMARK  8 active torsions:
REMARK  status: ('A' for Active; 'I' for Inactive)
REMARK    1  A    between atoms: O1_2  and  C2_3 
REMARK    2  A    between atoms: C5_6  and  N1_7 
REMARK       I    between atoms: N1_7  and  C6_8 
REMARK    3  A    between atoms: C6_8  and  C7_10 
REMARK    4  A    between atoms: C7_10  and  C8_11 
REMARK    5  A    between atoms: C8_11  and  C9_12 
REMARK    6  A    between atoms: C9_12  and  C10_13 
REMARK    7  A    between atoms: C10_13  and  C11_14 
REMARK       I    between atoms: C11_14  and  N2_16 
REMARK    8  A    between atoms: N2_16  and  O4_17 
ROOT
ATOM      1  N1  NON d   1     -40.946  18.526  -5.342  0.00  0.00    -0.327 N 
ATOM      2  C6  NON d   1     -41.127  19.098  -4.090  0.00  0.00     0.222 C 
ATOM      3  O2  NON d   1     -40.824  20.245  -3.773  0.00  0.00    -0.273 OA
ATOM      4  H6  NON d   1     -41.190  17.548  -5.432  0.00  0.00     0.169 HD
ENDROOT
BRANCH   2   5
ATOM      5  C7  NON d   1     -41.748  18.132  -3.079  0.00  0.00     0.103 C 
BRANCH   5   6
ATOM      6  C8  NON d   1     -42.701  17.150  -3.768  0.00  0.00     0.010 C 
BRANCH   6   7
ATOM      7  C9  NON d   1     -43.940  17.782  -4.415  0.00  0.00     0.010 C 
BRANCH   7   8
ATOM      8  C10 NON d   1     -45.264  17.101  -4.064  0.00  0.00     0.105 C 
BRANCH   8   9
ATOM      9  C11 NON d   1     -46.196  16.868  -5.238  0.00  0.00     0.240 C 
ATOM     10  O3  NON d   1     -46.309  17.633  -6.185  0.00  0.00    -0.271 OA
ATOM     11  N2  NON d   1     -46.941  15.712  -5.069  0.00  0.00    -0.237 N 
ATOM     12  H15 NON d   1     -46.592  14.956  -4.489  0.00  0.00     0.197 HD
BRANCH  11  13
ATOM     13  O4  NON d   1     -47.708  15.312  -6.185  0.00  0.00    -0.287 OA
ATOM     14  H16 NON d   1     -47.279  15.803  -6.913  0.00  0.00     0.244 HD
ENDBRANCH  11  13
ENDBRANCH   8   9
ENDBRANCH   7   8
ENDBRANCH   6   7
ENDBRANCH   5   6
ENDBRANCH   2   5
BRANCH   1  15
ATOM     15  C5  NON d   1     -40.404  19.148  -6.494  0.00  0.00     0.034 A 
ATOM     16  C4  NON d   1     -41.104  20.224  -7.051  0.00  0.00     0.032 A 
ATOM     17  C3  NON d   1     -40.636  20.867  -8.210  0.00  0.00     0.039 A 
ATOM     18  C2  NON d   1     -39.457  20.453  -8.830  0.00  0.00     0.068 A 
ATOM     19  C13 NON d   1     -38.741  19.400  -8.264  0.00  0.00     0.039 A 
ATOM     20  C12 NON d   1     -39.213  18.755  -7.106  0.00  0.00     0.032 A 
BRANCH  18  21
ATOM     21  O1  NON d   1     -39.110  21.132  -9.976  0.00  0.00    -0.356 OA
ATOM     22  C1  NON d   1     -39.547  22.608  -9.923  0.00  0.00     0.210 C 
ENDBRANCH  18  21
ENDBRANCH   1  15
TORSDOF 8
ENDMDL
MODEL 3
REMARK VINA RESULT:   -13.198      2.581      4.418
REMARK INTER + INTRA:         -16.830
REMARK INTER:                 -15.585
REMARK INTRA:                  -1.245
REMARK CONF_INDEPENDENT:        2.386
REMARK UNBOUND:                -1.245
REMARK  8 active torsions:
REMARK  status: ('A' for Active; 'I' for Inactive)
REMARK    1  A    between atoms: O1_2  and  C2_3 
REMARK    2  A    between atoms: C5_6  and  N1_7 
REMARK       I    between atoms: N1_7  and  C6_8 
REMARK    3  A    between atoms: C6_8  and  C7_10 
REMARK    4  A    between atoms: C7_10  and  C8_11 
REMARK    5  A    between atoms: C8_11  and  C9_12 
REMARK    6  A    between atoms: C9_12  and  C10_13 
REMARK    7  A    between atoms: C10_13  and  C11_14 
REMARK       I    between atoms: C11_14  and  N2_16 
REMARK    8  A    between atoms: N2_16  and  O4_17 
ROOT
ATOM      1  N1  NON d   1     -40.781  18.450  -5.443  0.00  0.00    -0.327 N 
ATOM      2  C6  NON d   1     -41.006  18.961  -4.172  0.00  0.00     0.222 C 
ATOM      3  O2  NON d   1     -40.740  20.102  -3.799  0.00  0.00    -0.273 OA
ATOM      4  H6  NON d   1     -40.998  17.471  -5.581  0.00  0.00     0.169 HD
ENDROOT
BRANCH   2   5
ATOM      5  C7  NON d   1     -41.626  17.938  -3.220  0.00  0.00     0.103 C 
BRANCH   5   6
ATOM      6  C8  NON d   1     -42.732  17.136  -3.915  0.00  0.00     0.010 C 
BRANCH   6   7
ATOM      7  C9  NON d   1     -43.975  17.941  -4.313  0.00  0.00     0.010 C 
BRANCH   7   8
ATOM      8  C10 NON d   1     -45.308  17.260  -3.999  0.00  0.00     0.105 C 
BRANCH   8   9
ATOM      9  C11 NON d   1     -46.148  16.902  -5.211  0.00  0.00     0.240 C 
ATOM     10  O3  NON d   1     -46.287  17.628  -6.185  0.00  0.00    -0.271 OA
ATOM     11  N2  NON d   1     -46.779  15.681  -5.044  0.00  0.00    -0.237 N 
ATOM     12  H15 NON d   1     -46.387  14.979  -4.424  0.00  0.00     0.197 HD
BRANCH  11  13
ATOM     13  O4  NON d   1     -47.441  15.176  -6.185  0.00  0.00    -0.287 OA
ATOM     14  H16 NON d   1     -47.051  15.715  -6.901  0.00  0.00     0.244 HD
ENDBRANCH  11  13
ENDBRANCH   8   9
ENDBRANCH   7   8
ENDBRANCH   6   7
ENDBRANCH   5   6
ENDBRANCH   2   5
BRANCH   1  15
ATOM     15  C5  NON d   1     -40.228  19.134  -6.553  0.00  0.00     0.034 A 
ATOM     16  C4  NON d   1     -39.419  18.410  -7.436  0.00  0.00     0.032 A 
ATOM     17  C3  NON d   1     -38.817  19.036  -8.541  0.00  0.00     0.039 A 
ATOM     18  C2  NON d   1     -39.018  20.394  -8.792  0.00  0.00     0.068 A 
ATOM     19  C13 NON d   1     -39.846  21.113  -7.931  0.00  0.00     0.039 A 
ATOM     20  C12 NON d   1     -40.444  20.486  -6.823  0.00  0.00     0.032 A 
BRANCH  18  21
ATOM     21  O1  NON d   1     -38.356  20.910  -9.882  0.00  0.00    -0.356 OA
ATOM     22  C1  NON d   1     -36.922  20.359  -9.994  0.00  0.00     0.210 C 
ENDBRANCH  18  21
ENDBRANCH   1  15
TORSDOF 8
ENDMDL
MODEL 4
REMARK VINA RESULT:   -12.994      2.536      4.507
REMARK INTER + INTRA:         -16.517
REMARK INTER:                 -15.380
REMARK INTRA:                  -1.137
REMARK CONF_INDEPENDENT:        2.386
REMARK UNBOUND:                -1.137
REMARK  8 active torsions:
REMARK  status: ('A' for Active; 'I' for Inactive)
REMARK    1  A    between atoms: O1_2  and  C2_3 
REMARK    2  A    between atoms: C5_6  and  N1_7 
REMARK       I    between atoms: N1_7  and  C6_8 
REMARK    3  A    between atoms: C6_8  and  C7_10 
REMARK    4  A    between atoms: C7_10  and  C8_11 
REMARK    5  A    between atoms: C8_11  and  C9_12 
REMARK    6  A    between atoms: C9_12  and  C10_13 
REMARK    7  A    between atoms: C10_13  and  C11_14 
REMARK       I    between atoms: C11_14  and  N2_16 
REMARK    8  A    between atoms: N2_16  and  O4_17 
ROOT
ATOM      1  N1  NON d   1     -40.952  20.026  -5.212  0.00  0.00    -0.327 N 
ATOM      2  C6  NON d   1     -41.188  18.679  -4.974  0.00  0.00     0.222 C 
ATOM      3  O2  NON d   1     -41.071  17.773  -5.796  0.00  0.00    -0.273 OA
ATOM      4  H6  NON d   1     -41.151  20.661  -4.450  0.00  0.00     0.169 HD
ENDROOT
BRANCH   2   5
ATOM      5  C7  NON d   1     -41.647  18.398  -3.542  0.00  0.00     0.103 C 
BRANCH   5   6
ATOM      6  C8  NON d   1     -42.653  17.243  -3.501  0.00  0.00     0.010 C 
BRANCH   6   7
ATOM      7  C9  NON d   1     -43.699  17.245  -4.622  0.00  0.00     0.010 C 
BRANCH   7   8
ATOM      8  C10 NON d   1     -45.136  16.997  -4.159  0.00  0.00     0.105 C 
BRANCH   8   9
ATOM      9  C11 NON d   1     -46.151  16.834  -5.275  0.00  0.00     0.240 C 
ATOM     10  O3  NON d   1     -46.303  17.636  -6.185  0.00  0.00    -0.271 OA
ATOM     11  N2  NON d   1     -46.918  15.694  -5.095  0.00  0.00    -0.237 N 
ATOM     12  H15 NON d   1     -46.554  14.908  -4.566  0.00  0.00     0.197 HD
BRANCH  11  13
ATOM     13  O4  NON d   1     -47.769  15.358  -6.170  0.00  0.00    -0.287 OA
ATOM     14  H16 NON d   1     -47.423  15.921  -6.889  0.00  0.00     0.244 HD
ENDBRANCH  11  13
ENDBRANCH   8   9
ENDBRANCH   7   8
ENDBRANCH   6   7
ENDBRANCH   5   6
ENDBRANCH   2   5
BRANCH   1  15
ATOM     15  C5  NON d   1     -40.513  20.615  -6.424  0.00  0.00     0.034 A 
ATOM     16  C4  NON d   1     -40.693  19.893  -7.609  0.00  0.00     0.032 A 
ATOM     17  C3  NON d   1     -40.255  20.408  -8.841  0.00  0.00     0.039 A 
ATOM     18  C2  NON d   1     -39.637  21.657  -8.915  0.00  0.00     0.068 A 
ATOM     19  C13 NON d   1     -39.481  22.393  -7.741  0.00  0.00     0.039 A 
ATOM     20  C12 NON d   1     -39.916  21.874  -6.508  0.00  0.00     0.032 A 
BRANCH  18  21
ATOM     21  O1  NON d   1     -39.220  22.049 -10.166  0.00  0.00    -0.356 OA
ATOM     22  C1  NON d   1     -39.340  23.572 -10.360  0.00  0.00     0.210 C 
ENDBRANCH  18  21
ENDBRANCH   1  15
TORSDOF 8
ENDMDL
MODEL 5
REMARK VINA RESULT:   -12.918      4.614      8.901
REMARK INTER + INTRA:         -16.338
REMARK INTER:                 -15.304
REMARK INTRA:                  -1.034
REMARK CONF_INDEPENDENT:        2.386
REMARK UNBOUND:                -1.034
REMARK  8 active torsions:
REMARK  status: ('A' for Active; 'I' for Inactive)
REMARK    1  A    between atoms: O1_2  and  C2_3 
REMARK    2  A    between atoms: C5_6  and  N1_7 
REMARK       I    between atoms: N1_7  and  C6_8 
REMARK    3  A    between atoms: C6_8  and  C7_10 
REMARK    4  A    between atoms: C7_10  and  C8_11 
REMARK    5  A    between atoms: C8_11  and  C9_12 
REMARK    6  A    between atoms: C9_12  and  C10_13 
REMARK    7  A    between atoms: C10_13  and  C11_14 
REMARK       I    between atoms: C11_14  and  N2_16 
REMARK    8  A    between atoms: N2_16  and  O4_17 
ROOT
ATOM      1  N1  NON d   1     -52.123  15.862  -2.720  0.00  0.00    -0.327 N 
ATOM      2  C6  NON d   1     -50.741  15.793  -2.832  0.00  0.00     0.222 C 
ATOM      3  O2  NON d   1     -49.943  16.620  -2.398  0.00  0.00    -0.273 OA
ATOM      4  H6  NON d   1     -52.651  15.133  -3.184  0.00  0.00     0.169 HD
ENDROOT
BRANCH   2   5
ATOM      5  C7  NON d   1     -50.266  14.555  -3.593  0.00  0.00     0.103 C 
BRANCH   5   6
ATOM      6  C8  NON d   1     -48.876  14.779  -4.199  0.00  0.00     0.010 C 
BRANCH   6   7
ATOM      7  C9  NON d   1     -47.736  14.933  -3.185  0.00  0.00     0.010 C 
BRANCH   7   8
ATOM      8  C10 NON d   1     -46.695  15.994  -3.546  0.00  0.00     0.105 C 
BRANCH   8   9
ATOM      9  C11 NON d   1     -46.600  16.323  -5.024  0.00  0.00     0.240 C 
ATOM     10  O3  NON d   1     -47.008  15.592  -5.915  0.00  0.00    -0.271 OA
ATOM     11  N2  NON d   1     -45.941  17.523  -5.232  0.00  0.00    -0.237 N 
ATOM     12  H15 NON d   1     -45.935  18.238  -4.511  0.00  0.00     0.197 HD
BRANCH  11  13
ATOM     13  O4  NON d   1     -45.957  18.005  -6.559  0.00  0.00    -0.287 OA
ATOM     14  H16 NON d   1     -46.390  17.271  -7.037  0.00  0.00     0.244 HD
ENDBRANCH  11  13
ENDBRANCH   8   9
ENDBRANCH   7   8
ENDBRANCH   6   7
ENDBRANCH   5   6
ENDBRANCH   2   5
BRANCH   1  15
ATOM     15  C5  NON d   1     -52.878  16.871  -2.073  0.00  0.00     0.034 A 
ATOM     16  C4  NON d   1     -52.215  17.715  -1.175  0.00  0.00     0.032 A 
ATOM     17  C3  NON d   1     -52.912  18.718  -0.480  0.00  0.00     0.039 A 
ATOM     18  C2  NON d   1     -54.282  18.903  -0.672  0.00  0.00     0.068 A 
ATOM     19  C13 NON d   1     -54.941  18.082  -1.586  0.00  0.00     0.039 A 
ATOM     20  C12 NON d   1     -54.243  17.077  -2.279  0.00  0.00     0.032 A 
BRANCH  18  21
ATOM     21  O1  NON d   1     -54.868  19.892   0.084  0.00  0.00    -0.356 OA
ATOM     22  C1  NON d   1     -53.839  20.931   0.565  0.00  0.00     0.210 C 
ENDBRANCH  18  21
ENDBRANCH   1  15
TORSDOF 8
ENDMDL
MODEL 6
REMARK VINA RESULT:   -12.202      3.245      4.608
REMARK INTER + INTRA:         -15.833
REMARK INTER:                 -14.589
REMARK INTRA:                  -1.244
REMARK CONF_INDEPENDENT:        2.386
REMARK UNBOUND:                -1.244
REMARK  8 active torsions:
REMARK  status: ('A' for Active; 'I' for Inactive)
REMARK    1  A    between atoms: O1_2  and  C2_3 
REMARK    2  A    between atoms: C5_6  and  N1_7 
REMARK       I    between atoms: N1_7  and  C6_8 
REMARK    3  A    between atoms: C6_8  and  C7_10 
REMARK    4  A    between atoms: C7_10  and  C8_11 
REMARK    5  A    between atoms: C8_11  and  C9_12 
REMARK    6  A    between atoms: C9_12  and  C10_13 
REMARK    7  A    between atoms: C10_13  and  C11_14 
REMARK       I    between atoms: C11_14  and  N2_16 
REMARK    8  A    between atoms: N2_16  and  O4_17 
ROOT
ATOM      1  N1  NON d   1     -40.893  19.893  -4.311  0.00  0.00    -0.327 N 
ATOM      2  C6  NON d   1     -41.320  18.656  -3.848  0.00  0.00     0.222 C 
ATOM      3  O2  NON d   1     -41.495  18.351  -2.670  0.00  0.00    -0.273 OA
ATOM      4  H6  NON d   1     -40.737  19.973  -5.308  0.00  0.00     0.169 HD
ENDROOT
BRANCH   2   5
ATOM      5  C7  NON d   1     -41.549  17.645  -4.973  0.00  0.00     0.103 C 
BRANCH   5   6
ATOM      6  C8  NON d   1     -42.958  17.048  -4.900  0.00  0.00     0.010 C 
BRANCH   6   7
ATOM      7  C9  NON d   1     -44.011  17.933  -4.221  0.00  0.00     0.010 C 
BRANCH   7   8
ATOM      8  C10 NON d   1     -45.350  17.244  -3.951  0.00  0.00     0.105 C 
BRANCH   8   9
ATOM      9  C11 NON d   1     -46.148  16.884  -5.191  0.00  0.00     0.240 C 
ATOM     10  O3  NON d   1     -46.226  17.592  -6.184  0.00  0.00    -0.271 OA
ATOM     11  N2  NON d   1     -46.819  15.683  -5.027  0.00  0.00    -0.237 N 
ATOM     12  H15 NON d   1     -46.472  14.985  -4.377  0.00  0.00     0.197 HD
BRANCH  11  13
ATOM     13  O4  NON d   1     -47.446  15.173  -6.185  0.00  0.00    -0.287 OA
ATOM     14  H16 NON d   1     -47.216  15.846  -6.854  0.00  0.00     0.244 HD
ENDBRANCH  11  13
ENDBRANCH   8   9
ENDBRANCH   7   8
ENDBRANCH   6   7
ENDBRANCH   5   6
ENDBRANCH   2   5
BRANCH   1  15
ATOM     15  C5  NON d   1     -40.601  21.041  -3.534  0.00  0.00     0.034 A 
ATOM     16  C4  NON d   1     -40.217  20.853  -2.202  0.00  0.00     0.032 A 
ATOM     17  C3  NON d   1     -39.940  21.951  -1.369  0.00  0.00     0.039 A 
ATOM     18  C2  NON d   1     -40.033  23.257  -1.853  0.00  0.00     0.068 A 
ATOM     19  C13 NON d   1     -40.387  23.448  -3.187  0.00  0.00     0.039 A 
ATOM     20  C12 NON d   1     -40.668  22.349  -4.018  0.00  0.00     0.032 A 
BRANCH  18  21
ATOM     21  O1  NON d   1     -39.771  24.255  -0.943  0.00  0.00    -0.356 OA
ATOM     22  C1  NON d   1     -40.869  24.354   0.132  0.00  0.00     0.210 C 
ENDBRANCH  18  21
ENDBRANCH   1  15
TORSDOF 8
ENDMDL
MODEL 7
REMARK VINA RESULT:   -12.196      4.683      9.196
REMARK INTER + INTRA:         -15.688
REMARK INTER:                 -14.582
REMARK INTRA:                  -1.106
REMARK CONF_INDEPENDENT:        2.386
REMARK UNBOUND:                -1.106
REMARK  8 active torsions:
REMARK  status: ('A' for Active; 'I' for Inactive)
REMARK    1  A    between atoms: O1_2  and  C2_3 
REMARK    2  A    between atoms: C5_6  and  N1_7 
REMARK       I    between atoms: N1_7  and  C6_8 
REMARK    3  A    between atoms: C6_8  and  C7_10 
REMARK    4  A    between atoms: C7_10  and  C8_11 
REMARK    5  A    between atoms: C8_11  and  C9_12 
REMARK    6  A    between atoms: C9_12  and  C10_13 
REMARK    7  A    between atoms: C10_13  and  C11_14 
REMARK       I    between atoms: C11_14  and  N2_16 
REMARK    8  A    between atoms: N2_16  and  O4_17 
ROOT
ATOM      1  N1  NON d   1     -50.940  16.769  -2.125  0.00  0.00    -0.327 N 
ATOM      2  C6  NON d   1     -50.828  15.584  -2.840  0.00  0.00     0.222 C 
ATOM      3  O2  NON d   1     -51.745  14.805  -3.089  0.00  0.00    -0.273 OA
ATOM      4  H6  NON d   1     -50.081  17.275  -1.950  0.00  0.00     0.169 HD
ENDROOT
BRANCH   2   5
ATOM      5  C7  NON d   1     -49.398  15.302  -3.303  0.00  0.00     0.103 C 
BRANCH   5   6
ATOM      6  C8  NON d   1     -48.671  16.599  -3.672  0.00  0.00     0.010 C 
BRANCH   6   7
ATOM      7  C9  NON d   1     -47.440  16.927  -2.818  0.00  0.00     0.010 C 
BRANCH   7   8
ATOM      8  C10 NON d   1     -46.164  17.209  -3.613  0.00  0.00     0.105 C 
BRANCH   8   9
ATOM      9  C11 NON d   1     -46.225  16.828  -5.081  0.00  0.00     0.240 C 
ATOM     10  O3  NON d   1     -46.022  17.609  -5.999  0.00  0.00    -0.271 OA
ATOM     11  N2  NON d   1     -46.596  15.503  -5.243  0.00  0.00    -0.237 N 
ATOM     12  H15 NON d   1     -46.417  14.826  -4.508  0.00  0.00     0.197 HD
BRANCH  11  13
ATOM     13  O4  NON d   1     -46.509  15.003  -6.560  0.00  0.00    -0.287 OA
ATOM     14  H16 NON d   1     -46.737  15.789  -7.092  0.00  0.00     0.244 HD
ENDBRANCH  11  13
ENDBRANCH   8   9
ENDBRANCH   7   8
ENDBRANCH   6   7
ENDBRANCH   5   6
ENDBRANCH   2   5
BRANCH   1  15
ATOM     15  C5  NON d   1     -52.119  17.320  -1.565  0.00  0.00     0.034 A 
ATOM     16  C4  NON d   1     -51.991  18.145  -0.442  0.00  0.00     0.032 A 
ATOM     17  C3  NON d   1     -53.123  18.701   0.178  0.00  0.00     0.039 A 
ATOM     18  C2  NON d   1     -54.404  18.450  -0.316  0.00  0.00     0.068 A 
ATOM     19  C13 NON d   1     -54.535  17.652  -1.450  0.00  0.00     0.039 A 
ATOM     20  C12 NON d   1     -53.401  17.093  -2.067  0.00  0.00     0.032 A 
BRANCH  18  21
ATOM     21  O1  NON d   1     -55.442  19.018   0.388  0.00  0.00    -0.356 OA
ATOM     22  C1  NON d   1     -56.102  18.012   1.348  0.00  0.00     0.210 C 
ENDBRANCH  18  21
ENDBRANCH   1  15
TORSDOF 8
ENDMDL
MODEL 8
REMARK VINA RESULT:   -12.187      4.573      8.741
REMARK INTER + INTRA:         -15.943
REMARK INTER:                 -14.573
REMARK INTRA:                  -1.370
REMARK CONF_INDEPENDENT:        2.386
REMARK UNBOUND:                -1.370
REMARK  8 active torsions:
REMARK  status: ('A' for Active; 'I' for Inactive)
REMARK    1  A    between atoms: O1_2  and  C2_3 
REMARK    2  A    between atoms: C5_6  and  N1_7 
REMARK       I    between atoms: N1_7  and  C6_8 
REMARK    3  A    between atoms: C6_8  and  C7_10 
REMARK    4  A    between atoms: C7_10  and  C8_11 
REMARK    5  A    between atoms: C8_11  and  C9_12 
REMARK    6  A    between atoms: C9_12  and  C10_13 
REMARK    7  A    between atoms: C10_13  and  C11_14 
REMARK       I    between atoms: C11_14  and  N2_16 
REMARK    8  A    between atoms: N2_16  and  O4_17 
ROOT
ATOM      1  N1  NON d   1     -50.351  17.158  -1.198  0.00  0.00    -0.327 N 
ATOM      2  C6  NON d   1     -49.531  16.880  -2.283  0.00  0.00     0.222 C 
ATOM      3  O2  NON d   1     -49.883  16.844  -3.459  0.00  0.00    -0.273 OA
ATOM      4  H6  NON d   1     -49.927  17.090  -0.281  0.00  0.00     0.169 HD
ENDROOT
BRANCH   2   5
ATOM      5  C7  NON d   1     -48.085  16.589  -1.877  0.00  0.00     0.103 C 
BRANCH   5   6
ATOM      6  C8  NON d   1     -47.432  15.590  -2.838  0.00  0.00     0.010 C 
BRANCH   6   7
ATOM      7  C9  NON d   1     -48.401  14.645  -3.559  0.00  0.00     0.010 C 
BRANCH   7   8
ATOM      8  C10 NON d   1     -48.675  15.001  -5.021  0.00  0.00     0.105 C 
BRANCH   8   9
ATOM      9  C11 NON d   1     -47.505  15.622  -5.761  0.00  0.00     0.240 C 
ATOM     10  O3  NON d   1     -46.764  15.004  -6.512  0.00  0.00    -0.271 OA
ATOM     11  N2  NON d   1     -47.352  16.958  -5.429  0.00  0.00    -0.237 N 
ATOM     12  H15 NON d   1     -48.145  17.502  -5.105  0.00  0.00     0.197 HD
BRANCH  11  13
ATOM     13  O4  NON d   1     -46.404  17.671  -6.196  0.00  0.00    -0.287 OA
ATOM     14  H16 NON d   1     -46.106  16.993  -6.832  0.00  0.00     0.244 HD
ENDBRANCH  11  13
ENDBRANCH   8   9
ENDBRANCH   7   8
ENDBRANCH   6   7
ENDBRANCH   5   6
ENDBRANCH   2   5
BRANCH   1  15
ATOM     15  C5  NON d   1     -51.732  17.473  -1.230  0.00  0.00     0.034 A 
ATOM     16  C4  NON d   1     -52.517  16.885  -2.228  0.00  0.00     0.032 A 
ATOM     17  C3  NON d   1     -53.888  17.178  -2.333  0.00  0.00     0.039 A 
ATOM     18  C2  NON d   1     -54.503  18.056  -1.439  0.00  0.00     0.068 A 
ATOM     19  C13 NON d   1     -53.730  18.623  -0.427  0.00  0.00     0.039 A 
ATOM     20  C12 NON d   1     -52.358  18.332  -0.325  0.00  0.00     0.032 A 
BRANCH  18  21
ATOM     21  O1  NON d   1     -55.841  18.295  -1.654  0.00  0.00    -0.356 OA
ATOM     22  C1  NON d   1     -56.077  19.122  -2.931  0.00  0.00     0.210 C 
ENDBRANCH  18  21
ENDBRANCH   1  15
TORSDOF 8
ENDMDL
MODEL 9
REMARK VINA RESULT:   -12.014      2.521      4.483
REMARK INTER + INTRA:         -15.584
REMARK INTER:                 -14.400
REMARK INTRA:                  -1.184
REMARK CONF_INDEPENDENT:        2.386
REMARK UNBOUND:                -1.184
REMARK  8 active torsions:
REMARK  status: ('A' for Active; 'I' for Inactive)
REMARK    1  A    between atoms: O1_2  and  C2_3 
REMARK    2  A    between atoms: C5_6  and  N1_7 
REMARK       I    between atoms: N1_7  and  C6_8 
REMARK    3  A    between atoms: C6_8  and  C7_10 
REMARK    4  A    between atoms: C7_10  and  C8_11 
REMARK    5  A    between atoms: C8_11  and  C9_12 
REMARK    6  A    between atoms: C9_12  and  C10_13 
REMARK    7  A    between atoms: C10_13  and  C11_14 
REMARK       I    between atoms: C11_14  and  N2_16 
REMARK    8  A    between atoms: N2_16  and  O4_17 
ROOT
ATOM      1  N1  NON d   1     -41.267  20.138  -4.172  0.00  0.00    -0.327 N 
ATOM      2  C6  NON d   1     -41.341  19.155  -5.149  0.00  0.00     0.222 C 
ATOM      3  O2  NON d   1     -41.143  19.320  -6.351  0.00  0.00    -0.273 OA
ATOM      4  H6  NON d   1     -41.518  19.861  -3.231  0.00  0.00     0.169 HD
ENDROOT
BRANCH   2   5
ATOM      5  C7  NON d   1     -41.728  17.786  -4.588  0.00  0.00     0.103 C 
BRANCH   5   6
ATOM      6  C8  NON d   1     -43.155  17.405  -4.996  0.00  0.00     0.010 C 
BRANCH   6   7
ATOM      7  C9  NON d   1     -44.046  16.890  -3.859  0.00  0.00     0.010 C 
BRANCH   7   8
ATOM      8  C10 NON d   1     -45.507  17.339  -3.936  0.00  0.00     0.105 C 
BRANCH   8   9
ATOM      9  C11 NON d   1     -46.252  16.888  -5.178  0.00  0.00     0.240 C 
ATOM     10  O3  NON d   1     -46.422  17.588  -6.166  0.00  0.00    -0.271 OA
ATOM     11  N2  NON d   1     -46.762  15.609  -5.024  0.00  0.00    -0.237 N 
ATOM     12  H15 NON d   1     -46.327  14.957  -4.380  0.00  0.00     0.197 HD
BRANCH  11  13
ATOM     13  O4  NON d   1     -47.318  15.031  -6.186  0.00  0.00    -0.287 OA
ATOM     14  H16 NON d   1     -47.492  15.816  -6.741  0.00  0.00     0.244 HD
ENDBRANCH  11  13
ENDBRANCH   8   9
ENDBRANCH   7   8
ENDBRANCH   6   7
ENDBRANCH   5   6
ENDBRANCH   2   5
BRANCH   1  15
ATOM     15  C5  NON d   1     -40.930  21.502  -4.356  0.00  0.00     0.034 A 
ATOM     16  C4  NON d   1     -40.199  21.851  -5.497  0.00  0.00     0.032 A 
ATOM     17  C3  NON d   1     -39.809  23.181  -5.726  0.00  0.00     0.039 A 
ATOM     18  C2  NON d   1     -40.148  24.191  -4.823  0.00  0.00     0.068 A 
ATOM     19  C13 NON d   1     -40.900  23.854  -3.699  0.00  0.00     0.039 A 
ATOM     20  C12 NON d   1     -41.286  22.521  -3.470  0.00  0.00     0.032 A 
BRANCH  18  21
ATOM     21  O1  NON d   1     -39.687  25.451  -5.129  0.00  0.00    -0.356 OA
ATOM     22  C1  NON d   1     -40.365  26.019  -6.390  0.00  0.00     0.210 C 
ENDBRANCH  18  21
ENDBRANCH   1  15
TORSDOF 8
ENDMDL
