MODEL 1
REMARK VINA RESULT:   -15.958      0.000      0.000
REMARK INTER + INTRA:         -18.372
REMARK INTER:                 -17.748
REMARK INTRA:                  -0.625
REMARK CONF_INDEPENDENT:        1.790
REMARK UNBOUND:                -0.625
REMARK  6 active torsions:
REMARK  status: ('A' for Active; 'I' for Inactive)
REMARK    1  A    between atoms: O1_2  and  C2_3 
REMARK    2  A    between atoms: C5_6  and  C6_7 
REMARK    3  A    between atoms: C6_7  and  N1_8 
REMARK       I    between atoms: N1_8  and  C7_9 
REMARK    4  A    between atoms: C7_9  and  C8_11 
REMARK    5  A    between atoms: C11_14  and  C12_15 
REMARK    6  A    between atoms: C12_15  and  C13_17 
ROOT
ATOM      1  N1  NON d   1     -42.502  18.987  -4.328  0.00  0.00    -0.352 N 
ATOM      2  C7  NON d   1     -43.627  18.851  -5.136  0.00  0.00     0.258 C 
ATOM      3  O2  NON d   1     -43.734  19.513  -6.167  0.00  0.00    -0.267 OA
ATOM      4  H8  NON d   1     -42.575  18.683  -3.370  0.00  0.00     0.163 HD
ENDROOT
BRANCH   2   5
ATOM      5  C8  NON d   1     -44.654  17.924  -4.668  0.00  0.00     0.073 A 
ATOM      6  C9  NON d   1     -44.892  17.377  -3.422  0.00  0.00     0.026 A 
ATOM      7  C10 NON d   1     -46.014  16.483  -3.418  0.00  0.00     0.024 A 
ATOM      8  C11 NON d   1     -46.614  16.374  -4.660  0.00  0.00     0.061 A 
ATOM      9  S1  NON d   1     -45.800  17.347  -5.810  0.00  0.00    -0.081 SA
BRANCH   8  10
ATOM     10  C12 NON d   1     -47.771  15.584  -5.096  0.00  0.00     0.272 C 
ATOM     11  O3  NON d   1     -47.815  15.005  -6.185  0.00  0.00    -0.282 OA
BRANCH  10  12
ATOM     12  C13 NON d   1     -48.939  15.502  -4.114  0.00  0.00     0.456 C 
ATOM     13  F1  NON d   1     -48.547  15.077  -2.878  0.00  0.00    -0.163 F 
ATOM     14  F2  NON d   1     -49.925  14.651  -4.512  0.00  0.00    -0.163 F 
ATOM     15  F3  NON d   1     -49.542  16.711  -3.919  0.00  0.00    -0.163 F 
ENDBRANCH  10  12
ENDBRANCH   8  10
ENDBRANCH   2   5
BRANCH   1  16
ATOM     16  C6  NON d   1     -41.579  20.058  -4.643  0.00  0.00     0.161 C 
BRANCH  16  17
ATOM     17  C5  NON d   1     -40.648  19.855  -5.816  0.00  0.00    -0.040 A 
ATOM     18  C4  NON d   1     -39.505  19.053  -5.799  0.00  0.00     0.011 A 
ATOM     19  C3  NON d   1     -38.695  18.957  -6.939  0.00  0.00     0.037 A 
ATOM     20  C2  NON d   1     -39.007  19.650  -8.115  0.00  0.00     0.068 A 
ATOM     21  C15 NON d   1     -40.145  20.441  -8.150  0.00  0.00     0.037 A 
ATOM     22  C14 NON d   1     -40.953  20.543  -7.009  0.00  0.00     0.011 A 
BRANCH  20  23
ATOM     23  O1  NON d   1     -38.123  19.476  -9.139  0.00  0.00    -0.356 OA
ATOM     24  C1  NON d   1     -36.808  18.766  -8.767  0.00  0.00     0.210 C 
ENDBRANCH  20  23
ENDBRANCH  16  17
ENDBRANCH   1  16
TORSDOF 6
ENDMDL
MODEL 2
REMARK VINA RESULT:   -15.466      1.091      1.562
REMARK INTER + INTRA:         -17.818
REMARK INTER:                 -17.256
REMARK INTRA:                  -0.562
REMARK CONF_INDEPENDENT:        1.790
REMARK UNBOUND:                -0.562
REMARK  6 active torsions:
REMARK  status: ('A' for Active; 'I' for Inactive)
REMARK    1  A    between atoms: O1_2  and  C2_3 
REMARK    2  A    between atoms: C5_6  and  C6_7 
REMARK    3  A    between atoms: C6_7  and  N1_8 
REMARK       I    between atoms: N1_8  and  C7_9 
REMARK    4  A    between atoms: C7_9  and  C8_11 
REMARK    5  A    between atoms: C11_14  and  C12_15 
REMARK    6  A    between atoms: C12_15  and  C13_17 
ROOT
ATOM      1  N1  NON d   1     -42.133  17.775  -4.561  0.00  0.00    -0.352 N 
ATOM      2  C7  NON d   1     -43.364  18.364  -4.838  0.00  0.00     0.258 C 
ATOM      3  O2  NON d   1     -43.416  19.472  -5.368  0.00  0.00    -0.267 OA
ATOM      4  H8  NON d   1     -42.110  17.041  -3.872  0.00  0.00     0.163 HD
ENDROOT
BRANCH   2   5
ATOM      5  C8  NON d   1     -44.548  17.612  -4.433  0.00  0.00     0.073 A 
ATOM      6  C9  NON d   1     -45.031  17.271  -3.184  0.00  0.00     0.026 A 
ATOM      7  C10 NON d   1     -46.236  16.495  -3.253  0.00  0.00     0.024 A 
ATOM      8  C11 NON d   1     -46.651  16.268  -4.553  0.00  0.00     0.061 A 
ATOM      9  S1  NON d   1     -45.568  16.989  -5.666  0.00  0.00    -0.081 SA
BRANCH   8  10
ATOM     10  C12 NON d   1     -47.813  15.537  -5.071  0.00  0.00     0.272 C 
ATOM     11  O3  NON d   1     -47.828  15.005  -6.185  0.00  0.00    -0.282 OA
BRANCH  10  12
ATOM     12  C13 NON d   1     -49.025  15.454  -4.144  0.00  0.00     0.456 C 
ATOM     13  F1  NON d   1     -49.997  14.633  -4.636  0.00  0.00    -0.163 F 
ATOM     14  F2  NON d   1     -49.622  16.658  -3.922  0.00  0.00    -0.163 F 
ATOM     15  F3  NON d   1     -48.707  14.959  -2.912  0.00  0.00    -0.163 F 
ENDBRANCH  10  12
ENDBRANCH   8  10
ENDBRANCH   2   5
BRANCH   1  16
ATOM     16  C6  NON d   1     -40.948  18.589  -4.741  0.00  0.00     0.161 C 
BRANCH  16  17
ATOM     17  C5  NON d   1     -40.669  19.122  -6.127  0.00  0.00    -0.040 A 
ATOM     18  C4  NON d   1     -40.113  18.380  -7.171  0.00  0.00     0.011 A 
ATOM     19  C3  NON d   1     -39.872  18.983  -8.413  0.00  0.00     0.037 A 
ATOM     20  C2  NON d   1     -40.182  20.329  -8.642  0.00  0.00     0.068 A 
ATOM     21  C15 NON d   1     -40.746  21.075  -7.618  0.00  0.00     0.037 A 
ATOM     22  C14 NON d   1     -40.982  20.475  -6.373  0.00  0.00     0.011 A 
BRANCH  20  23
ATOM     23  O1  NON d   1     -39.880  20.787  -9.891  0.00  0.00    -0.356 OA
ATOM     24  C1  NON d   1     -39.324  22.222  -9.955  0.00  0.00     0.210 C 
ENDBRANCH  20  23
ENDBRANCH  16  17
ENDBRANCH   1  16
TORSDOF 6
ENDMDL
MODEL 3
REMARK VINA RESULT:   -15.295      2.516      3.945
REMARK INTER + INTRA:         -17.701
REMARK INTER:                 -17.085
REMARK INTRA:                  -0.616
REMARK CONF_INDEPENDENT:        1.790
REMARK UNBOUND:                -0.616
REMARK  6 active torsions:
REMARK  status: ('A' for Active; 'I' for Inactive)
REMARK    1  A    between atoms: O1_2  and  C2_3 
REMARK    2  A    between atoms: C5_6  and  C6_7 
REMARK    3  A    between atoms: C6_7  and  N1_8 
REMARK       I    between atoms: N1_8  and  C7_9 
REMARK    4  A    between atoms: C7_9  and  C8_11 
REMARK    5  A    between atoms: C11_14  and  C12_15 
REMARK    6  A    between atoms: C12_15  and  C13_17 
ROOT
ATOM      1  N1  NON d   1     -42.057  18.208  -4.628  0.00  0.00    -0.352 N 
ATOM      2  C7  NON d   1     -43.312  18.556  -5.117  0.00  0.00     0.258 C 
ATOM      3  O2  NON d   1     -43.437  19.515  -5.877  0.00  0.00    -0.267 OA
ATOM      4  H8  NON d   1     -42.020  17.640  -3.796  0.00  0.00     0.163 HD
ENDROOT
BRANCH   2   5
ATOM      5  C8  NON d   1     -44.437  17.751  -4.650  0.00  0.00     0.073 A 
ATOM      6  C9  NON d   1     -44.771  17.291  -3.390  0.00  0.00     0.026 A 
ATOM      7  C10 NON d   1     -45.970  16.504  -3.391  0.00  0.00     0.024 A 
ATOM      8  C11 NON d   1     -46.531  16.387  -4.650  0.00  0.00     0.061 A 
ATOM      9  S1  NON d   1     -45.588  17.223  -5.810  0.00  0.00    -0.081 SA
BRANCH   8  10
ATOM     10  C12 NON d   1     -47.739  15.684  -5.097  0.00  0.00     0.272 C 
ATOM     11  O3  NON d   1     -47.814  15.106  -6.185  0.00  0.00    -0.282 OA
BRANCH  10  12
ATOM     12  C13 NON d   1     -48.921  15.694  -4.128  0.00  0.00     0.456 C 
ATOM     13  F1  NON d   1     -48.575  15.244  -2.887  0.00  0.00    -0.163 F 
ATOM     14  F2  NON d   1     -49.964  14.920  -4.536  0.00  0.00    -0.163 F 
ATOM     15  F3  NON d   1     -49.432  16.946  -3.942  0.00  0.00    -0.163 F 
ENDBRANCH  10  12
ENDBRANCH   8  10
ENDBRANCH   2   5
BRANCH   1  16
ATOM     16  C6  NON d   1     -40.961  19.120  -4.889  0.00  0.00     0.161 C 
BRANCH  16  17
ATOM     17  C5  NON d   1     -40.623  20.131  -3.819  0.00  0.00    -0.040 A 
ATOM     18  C4  NON d   1     -40.730  21.516  -3.965  0.00  0.00     0.011 A 
ATOM     19  C3  NON d   1     -40.364  22.366  -2.913  0.00  0.00     0.037 A 
ATOM     20  C2  NON d   1     -39.889  21.858  -1.697  0.00  0.00     0.068 A 
ATOM     21  C15 NON d   1     -39.789  20.485  -1.533  0.00  0.00     0.037 A 
ATOM     22  C14 NON d   1     -40.149  19.633  -2.587  0.00  0.00     0.011 A 
BRANCH  20  23
ATOM     23  O1  NON d   1     -39.555  22.800  -0.769  0.00  0.00    -0.356 OA
ATOM     24  C1  NON d   1     -40.177  22.606   0.626  0.00  0.00     0.210 C 
ENDBRANCH  20  23
ENDBRANCH  16  17
ENDBRANCH   1  16
TORSDOF 6
ENDMDL
MODEL 4
REMARK VINA RESULT:   -15.043      2.246      3.460
REMARK INTER + INTRA:         -17.503
REMARK INTER:                 -16.833
REMARK INTRA:                  -0.670
REMARK CONF_INDEPENDENT:        1.790
REMARK UNBOUND:                -0.670
REMARK  6 active torsions:
REMARK  status: ('A' for Active; 'I' for Inactive)
REMARK    1  A    between atoms: O1_2  and  C2_3 
REMARK    2  A    between atoms: C5_6  and  C6_7 
REMARK    3  A    between atoms: C6_7  and  N1_8 
REMARK       I    between atoms: N1_8  and  C7_9 
REMARK    4  A    between atoms: C7_9  and  C8_11 
REMARK    5  A    between atoms: C11_14  and  C12_15 
REMARK    6  A    between atoms: C12_15  and  C13_17 
ROOT
ATOM      1  N1  NON d   1     -41.961  17.804  -4.912  0.00  0.00    -0.352 N 
ATOM      2  C7  NON d   1     -43.198  18.376  -5.193  0.00  0.00     0.258 C 
ATOM      3  O2  NON d   1     -43.264  19.436  -5.813  0.00  0.00    -0.267 OA
ATOM      4  H8  NON d   1     -41.916  17.129  -4.165  0.00  0.00     0.163 HD
ENDROOT
BRANCH   2   5
ATOM      5  C8  NON d   1     -44.370  17.670  -4.685  0.00  0.00     0.073 A 
ATOM      6  C9  NON d   1     -44.689  17.222  -3.417  0.00  0.00     0.026 A 
ATOM      7  C10 NON d   1     -45.954  16.548  -3.373  0.00  0.00     0.024 A 
ATOM      8  C11 NON d   1     -46.579  16.503  -4.606  0.00  0.00     0.061 A 
ATOM      9  S1  NON d   1     -45.615  17.268  -5.797  0.00  0.00    -0.081 SA
BRANCH   8  10
ATOM     10  C12 NON d   1     -47.865  15.922  -5.005  0.00  0.00     0.272 C 
ATOM     11  O3  NON d   1     -48.188  15.755  -6.185  0.00  0.00    -0.282 OA
BRANCH  10  12
ATOM     12  C13 NON d   1     -48.802  15.515  -3.869  0.00  0.00     0.456 C 
ATOM     13  F1  NON d   1     -48.343  14.428  -3.185  0.00  0.00    -0.163 F 
ATOM     14  F2  NON d   1     -50.058  15.196  -4.288  0.00  0.00    -0.163 F 
ATOM     15  F3  NON d   1     -48.955  16.504  -2.940  0.00  0.00    -0.163 F 
ENDBRANCH  10  12
ENDBRANCH   8  10
ENDBRANCH   2   5
BRANCH   1  16
ATOM     16  C6  NON d   1     -40.779  18.591  -5.201  0.00  0.00     0.161 C 
BRANCH  16  17
ATOM     17  C5  NON d   1     -40.485  19.767  -4.299  0.00  0.00    -0.040 A 
ATOM     18  C4  NON d   1     -39.849  19.682  -3.058  0.00  0.00     0.011 A 
ATOM     19  C3  NON d   1     -39.650  20.836  -2.289  0.00  0.00     0.037 A 
ATOM     20  C2  NON d   1     -40.072  22.093  -2.738  0.00  0.00     0.068 A 
ATOM     21  C15 NON d   1     -40.693  22.194  -3.974  0.00  0.00     0.037 A 
ATOM     22  C14 NON d   1     -40.899  21.040  -4.741  0.00  0.00     0.011 A 
BRANCH  20  23
ATOM     23  O1  NON d   1     -39.827  23.125  -1.880  0.00  0.00    -0.356 OA
ATOM     24  C1  NON d   1     -41.064  23.934  -1.446  0.00  0.00     0.210 C 
ENDBRANCH  20  23
ENDBRANCH  16  17
ENDBRANCH   1  16
TORSDOF 6
ENDMDL
MODEL 5
REMARK VINA RESULT:   -14.664      2.303      3.089
REMARK INTER + INTRA:         -17.125
REMARK INTER:                 -16.453
REMARK INTRA:                  -0.672
REMARK CONF_INDEPENDENT:        1.790
REMARK UNBOUND:                -0.672
REMARK  6 active torsions:
REMARK  status: ('A' for Active; 'I' for Inactive)
REMARK    1  A    between atoms: O1_2  and  C2_3 
REMARK    2  A    between atoms: C5_6  and  C6_7 
REMARK    3  A    between atoms: C6_7  and  N1_8 
REMARK       I    between atoms: N1_8  and  C7_9 
REMARK    4  A    between atoms: C7_9  and  C8_11 
REMARK    5  A    between atoms: C11_14  and  C12_15 
REMARK    6  A    between atoms: C12_15  and  C13_17 
ROOT
ATOM      1  N1  NON d   1     -42.808  19.029  -4.829  0.00  0.00    -0.352 N 
ATOM      2  C7  NON d   1     -43.137  17.681  -4.932  0.00  0.00     0.258 C 
ATOM      3  O2  NON d   1     -42.331  16.880  -5.404  0.00  0.00    -0.267 OA
ATOM      4  H8  NON d   1     -43.564  19.689  -4.736  0.00  0.00     0.163 HD
ENDROOT
BRANCH   2   5
ATOM      5  C8  NON d   1     -44.476  17.304  -4.491  0.00  0.00     0.073 A 
ATOM      6  C9  NON d   1     -45.045  17.259  -3.232  0.00  0.00     0.026 A 
ATOM      7  C10 NON d   1     -46.404  16.801  -3.257  0.00  0.00     0.024 A 
ATOM      8  C11 NON d   1     -46.847  16.514  -4.536  0.00  0.00     0.061 A 
ATOM      9  S1  NON d   1     -45.605  16.794  -5.681  0.00  0.00    -0.081 SA
BRANCH   8  10
ATOM     10  C12 NON d   1     -48.148  16.029  -5.011  0.00  0.00     0.272 C 
ATOM     11  O3  NON d   1     -48.514  16.130  -6.185  0.00  0.00    -0.282 OA
BRANCH  10  12
ATOM     12  C13 NON d   1     -49.044  15.370  -3.963  0.00  0.00     0.456 C 
ATOM     13  F1  NON d   1     -50.118  14.742  -4.522  0.00  0.00    -0.163 F 
ATOM     14  F2  NON d   1     -49.550  16.247  -3.051  0.00  0.00    -0.163 F 
ATOM     15  F3  NON d   1     -48.387  14.415  -3.241  0.00  0.00    -0.163 F 
ENDBRANCH  10  12
ENDBRANCH   8  10
ENDBRANCH   2   5
BRANCH   1  16
ATOM     16  C6  NON d   1     -41.582  19.469  -5.466  0.00  0.00     0.161 C 
BRANCH  16  17
ATOM     17  C5  NON d   1     -40.281  19.165  -4.760  0.00  0.00    -0.040 A 
ATOM     18  C4  NON d   1     -39.026  19.150  -5.372  0.00  0.00     0.011 A 
ATOM     19  C3  NON d   1     -37.883  18.828  -4.627  0.00  0.00     0.037 A 
ATOM     20  C2  NON d   1     -37.965  18.520  -3.263  0.00  0.00     0.068 A 
ATOM     21  C15 NON d   1     -39.204  18.543  -2.640  0.00  0.00     0.037 A 
ATOM     22  C14 NON d   1     -40.348  18.859  -3.386  0.00  0.00     0.011 A 
BRANCH  20  23
ATOM     23  O1  NON d   1     -36.777  18.211  -2.669  0.00  0.00    -0.356 OA
ATOM     24  C1  NON d   1     -36.870  17.277  -1.447  0.00  0.00     0.210 C 
ENDBRANCH  20  23
ENDBRANCH  16  17
ENDBRANCH   1  16
TORSDOF 6
ENDMDL
MODEL 6
REMARK VINA RESULT:   -13.617      2.154      2.836
REMARK INTER + INTRA:         -15.943
REMARK INTER:                 -15.406
REMARK INTRA:                  -0.537
REMARK CONF_INDEPENDENT:        1.790
REMARK UNBOUND:                -0.537
REMARK  6 active torsions:
REMARK  status: ('A' for Active; 'I' for Inactive)
REMARK    1  A    between atoms: O1_2  and  C2_3 
REMARK    2  A    between atoms: C5_6  and  C6_7 
REMARK    3  A    between atoms: C6_7  and  N1_8 
REMARK       I    between atoms: N1_8  and  C7_9 
REMARK    4  A    between atoms: C7_9  and  C8_11 
REMARK    5  A    between atoms: C11_14  and  C12_15 
REMARK    6  A    between atoms: C12_15  and  C13_17 
ROOT
ATOM      1  N1  NON d   1     -44.208  18.138  -4.806  0.00  0.00    -0.352 N 
ATOM      2  C7  NON d   1     -45.411  17.830  -5.434  0.00  0.00     0.258 C 
ATOM      3  O2  NON d   1     -45.652  18.264  -6.560  0.00  0.00    -0.267 OA
ATOM      4  H8  NON d   1     -44.164  18.038  -3.805  0.00  0.00     0.163 HD
ENDROOT
BRANCH   2   5
ATOM      5  C8  NON d   1     -46.350  17.013  -4.672  0.00  0.00     0.073 A 
ATOM      6  C9  NON d   1     -46.285  16.501  -3.390  0.00  0.00     0.026 A 
ATOM      7  C10 NON d   1     -47.440  15.723  -3.048  0.00  0.00     0.024 A 
ATOM      8  C11 NON d   1     -48.367  15.664  -4.074  0.00  0.00     0.061 A 
ATOM      9  S1  NON d   1     -47.815  16.544  -5.435  0.00  0.00    -0.081 SA
BRANCH   8  10
ATOM     10  C12 NON d   1     -49.668  14.989  -4.149  0.00  0.00     0.272 C 
ATOM     11  O3  NON d   1     -49.963  14.202  -5.052  0.00  0.00    -0.282 OA
BRANCH  10  12
ATOM     12  C13 NON d   1     -50.657  15.308  -3.029  0.00  0.00     0.456 C 
ATOM     13  F1  NON d   1     -50.156  15.007  -1.796  0.00  0.00    -0.163 F 
ATOM     14  F2  NON d   1     -51.834  14.630  -3.135  0.00  0.00    -0.163 F 
ATOM     15  F3  NON d   1     -50.988  16.631  -2.985  0.00  0.00    -0.163 F 
ENDBRANCH  10  12
ENDBRANCH   8  10
ENDBRANCH   2   5
BRANCH   1  16
ATOM     16  C6  NON d   1     -43.358  19.128  -5.439  0.00  0.00     0.161 C 
BRANCH  16  17
ATOM     17  C5  NON d   1     -41.896  19.137  -5.059  0.00  0.00    -0.040 A 
ATOM     18  C4  NON d   1     -40.849  19.469  -5.922  0.00  0.00     0.011 A 
ATOM     19  C3  NON d   1     -39.522  19.419  -5.472  0.00  0.00     0.037 A 
ATOM     20  C2  NON d   1     -39.212  19.044  -4.159  0.00  0.00     0.068 A 
ATOM     21  C15 NON d   1     -40.242  18.723  -3.288  0.00  0.00     0.037 A 
ATOM     22  C14 NON d   1     -41.569  18.767  -3.739  0.00  0.00     0.011 A 
BRANCH  20  23
ATOM     23  O1  NON d   1     -37.880  19.024  -3.864  0.00  0.00    -0.356 OA
ATOM     24  C1  NON d   1     -37.283  17.631  -3.589  0.00  0.00     0.210 C 
ENDBRANCH  20  23
ENDBRANCH  16  17
ENDBRANCH   1  16
TORSDOF 6
ENDMDL
