MODEL 1
REMARK VINA RESULT:   -31.797      0.000      0.000
REMARK INTER + INTRA:         -36.021
REMARK INTER:                 -34.780
REMARK INTRA:                  -1.241
REMARK CONF_INDEPENDENT:        2.983
REMARK UNBOUND:                -1.241
REMARK  10 active torsions:
REMARK  status: ('A' for Active; 'I' for Inactive)
REMARK    1  A    between atoms: C1_2  and  C2_4 
REMARK    2  A    between atoms: C2_4  and  C3_5 
REMARK    3  A    between atoms: C3_5  and  C4_6 
REMARK    4  A    between atoms: C4_6  and  C5_7 
REMARK    5  A    between atoms: C5_7  and  C6_8 
REMARK    6  A    between atoms: C7_9  and  C6_8 
REMARK    7  A    between atoms: C7_9  and  N1_10 
REMARK    8  A    between atoms: C7_9  and  C12_18 
REMARK       I    between atoms: N1_10  and  C8_11 
REMARK    9  A    between atoms: C8_11  and  C9_13 
REMARK   10  A    between atoms: C13_20  and  C14_21 
ROOT
ATOM      1  C7  NON d   1     -42.042  18.990  -4.219  0.00  0.00     0.154 C 
ENDROOT
BRANCH   1   2
ATOM      2  C6  NON d   1     -41.578  18.079  -3.053  0.00  0.00     0.033 C 
BRANCH   2   3
ATOM      3  C5  NON d   1     -40.293  18.425  -2.278  0.00  0.00     0.002 C 
BRANCH   3   4
ATOM      4  C4  NON d   1     -39.479  19.571  -2.896  0.00  0.00     0.001 C 
BRANCH   4   5
ATOM      5  C3  NON d   1     -39.364  20.833  -2.026  0.00  0.00     0.010 C 
BRANCH   5   6
ATOM      6  C2  NON d   1     -39.040  22.109  -2.807  0.00  0.00     0.113 C 
BRANCH   6   7
ATOM      7  C1  NON d   1     -40.048  23.260  -2.807  0.00  0.00     0.172 C 
ATOM      8  O1  NON d   1     -39.545  24.399  -2.591  0.00  0.00    -0.648 OA
ATOM      9  O2  NON d   1     -41.250  22.952  -3.041  0.00  0.00    -0.648 OA
ENDBRANCH   6   7
ENDBRANCH   5   6
ENDBRANCH   4   5
ENDBRANCH   3   4
ENDBRANCH   2   3
ENDBRANCH   1   2
BRANCH   1  10
ATOM     10  N1  NON d   1     -43.407  18.762  -4.650  0.00  0.00    -0.345 N 
ATOM     11  C8  NON d   1     -43.914  17.482  -4.727  0.00  0.00     0.260 C 
ATOM     12  O3  NON d   1     -43.242  16.505  -4.398  0.00  0.00    -0.267 OA
ATOM     13  H12 NON d   1     -43.987  19.566  -4.859  0.00  0.00     0.163 HD
BRANCH  11  14
ATOM     14  C9  NON d   1     -45.251  17.331  -5.251  0.00  0.00     0.091 A 
ATOM     15  C10 NON d   1     -46.187  16.391  -4.860  0.00  0.00     0.141 A 
ATOM     16  N2  NON d   1     -47.438  16.505  -5.435  0.00  0.00    -0.265 NA
ATOM     17  C11 NON d   1     -47.434  17.533  -6.256  0.00  0.00     0.166 A 
ATOM     18  S1  NON d   1     -45.943  18.371  -6.418  0.00  0.00    -0.076 SA
ENDBRANCH  11  14
ENDBRANCH   1  10
BRANCH   1  19
ATOM     19  C12 NON d   1     -41.113  19.059  -5.421  0.00  0.00     0.127 A 
ATOM     20  N3  NON d   1     -41.200  19.880  -6.463  0.00  0.00    -0.231 NA
ATOM     21  C13 NON d   1     -39.981  19.811  -7.122  0.00  0.00     0.084 A 
ATOM     22  C24 NON d   1     -39.173  18.888  -6.499  0.00  0.00     0.122 A 
ATOM     23  N4  NON d   1     -39.910  18.390  -5.462  0.00  0.00    -0.350 N 
ATOM     24  H23 NON d   1     -39.584  17.712  -4.788  0.00  0.00     0.166 HD
BRANCH  21  25
ATOM     25  C14 NON d   1     -39.602  20.631  -8.274  0.00  0.00    -0.005 A 
ATOM     26  C15 NON d   1     -40.284  21.823  -8.550  0.00  0.00     0.014 A 
ATOM     27  C16 NON d   1     -39.931  22.615  -9.652  0.00  0.00     0.013 A 
ATOM     28  C17 NON d   1     -38.880  22.241 -10.509  0.00  0.00    -0.026 A 
ATOM     29  C18 NON d   1     -38.516  23.021 -11.619  0.00  0.00     0.012 A 
ATOM     30  C22 NON d   1     -38.173  21.053 -10.240  0.00  0.00    -0.025 A 
ATOM     31  C19 NON d   1     -37.464  22.632 -12.457  0.00  0.00     0.001 A 
ATOM     32  C20 NON d   1     -36.762  21.458 -12.187  0.00  0.00     0.001 A 
ATOM     33  C21 NON d   1     -37.115  20.677 -11.086  0.00  0.00     0.012 A 
ATOM     34  C23 NON d   1     -38.545  20.267  -9.128  0.00  0.00     0.026 A 
ENDBRANCH  21  25
ENDBRANCH   1  19
TORSDOF 10
ENDMDL
MODEL 2
REMARK VINA RESULT:   -31.597      1.123      1.996
REMARK INTER + INTRA:         -36.148
REMARK INTER:                 -34.580
REMARK INTRA:                  -1.568
REMARK CONF_INDEPENDENT:        2.983
REMARK UNBOUND:                -1.568
REMARK  10 active torsions:
REMARK  status: ('A' for Active; 'I' for Inactive)
REMARK    1  A    between atoms: C1_2  and  C2_4 
REMARK    2  A    between atoms: C2_4  and  C3_5 
REMARK    3  A    between atoms: C3_5  and  C4_6 
REMARK    4  A    between atoms: C4_6  and  C5_7 
REMARK    5  A    between atoms: C5_7  and  C6_8 
REMARK    6  A    between atoms: C7_9  and  C6_8 
REMARK    7  A    between atoms: C7_9  and  N1_10 
REMARK    8  A    between atoms: C7_9  and  C12_18 
REMARK       I    between atoms: N1_10  and  C8_11 
REMARK    9  A    between atoms: C8_11  and  C9_13 
REMARK   10  A    between atoms: C13_20  and  C14_21 
ROOT
ATOM      1  C7  NON d   1     -41.969  18.867  -4.364  0.00  0.00     0.154 C 
ENDROOT
BRANCH   1   2
ATOM      2  C6  NON d   1     -41.418  17.836  -3.343  0.00  0.00     0.033 C 
BRANCH   2   3
ATOM      3  C5  NON d   1     -40.292  18.246  -2.376  0.00  0.00     0.002 C 
BRANCH   3   4
ATOM      4  C4  NON d   1     -40.570  19.543  -1.606  0.00  0.00     0.001 C 
BRANCH   4   5
ATOM      5  C3  NON d   1     -39.395  20.533  -1.546  0.00  0.00     0.010 C 
BRANCH   5   6
ATOM      6  C2  NON d   1     -39.659  21.869  -2.245  0.00  0.00     0.113 C 
BRANCH   6   7
ATOM      7  C1  NON d   1     -39.160  22.073  -3.677  0.00  0.00     0.172 C 
ATOM      8  O1  NON d   1     -39.282  21.063  -4.425  0.00  0.00    -0.648 OA
ATOM      9  O2  NON d   1     -38.709  23.220  -3.954  0.00  0.00    -0.648 OA
ENDBRANCH   6   7
ENDBRANCH   5   6
ENDBRANCH   4   5
ENDBRANCH   3   4
ENDBRANCH   2   3
ENDBRANCH   1   2
BRANCH   1  10
ATOM     10  N1  NON d   1     -43.356  18.663  -4.731  0.00  0.00    -0.345 N 
ATOM     11  C8  NON d   1     -43.852  17.390  -4.920  0.00  0.00     0.260 C 
ATOM     12  O3  NON d   1     -43.150  16.396  -4.747  0.00  0.00    -0.267 OA
ATOM     13  H12 NON d   1     -43.958  19.475  -4.810  0.00  0.00     0.163 HD
BRANCH  11  14
ATOM     14  C9  NON d   1     -45.219  17.275  -5.372  0.00  0.00     0.091 A 
ATOM     15  C10 NON d   1     -46.157  16.358  -4.933  0.00  0.00     0.141 A 
ATOM     16  N2  NON d   1     -47.433  16.505  -5.441  0.00  0.00    -0.265 NA
ATOM     17  C11 NON d   1     -47.447  17.534  -6.259  0.00  0.00     0.166 A 
ATOM     18  S1  NON d   1     -45.946  18.336  -6.500  0.00  0.00    -0.076 SA
ENDBRANCH  11  14
ENDBRANCH   1  10
BRANCH   1  19
ATOM     19  C12 NON d   1     -41.121  19.092  -5.606  0.00  0.00     0.127 A 
ATOM     20  N3  NON d   1     -41.259  20.054  -6.514  0.00  0.00    -0.231 NA
ATOM     21  C13 NON d   1     -40.089  20.062  -7.260  0.00  0.00     0.084 A 
ATOM     22  C24 NON d   1     -39.263  19.049  -6.831  0.00  0.00     0.122 A 
ATOM     23  N4  NON d   1     -39.941  18.419  -5.824  0.00  0.00    -0.350 N 
ATOM     24  H23 NON d   1     -39.587  17.647  -5.277  0.00  0.00     0.166 HD
BRANCH  21  25
ATOM     25  C14 NON d   1     -39.769  21.032  -8.309  0.00  0.00    -0.005 A 
ATOM     26  C15 NON d   1     -39.048  20.637  -9.442  0.00  0.00     0.014 A 
ATOM     27  C16 NON d   1     -38.735  21.558 -10.452  0.00  0.00     0.013 A 
ATOM     28  C17 NON d   1     -39.139  22.902 -10.361  0.00  0.00    -0.026 A 
ATOM     29  C18 NON d   1     -38.830  23.838 -11.362  0.00  0.00     0.012 A 
ATOM     30  C22 NON d   1     -39.878  23.315  -9.235  0.00  0.00    -0.025 A 
ATOM     31  C19 NON d   1     -39.246  25.170 -11.253  0.00  0.00     0.001 A 
ATOM     32  C20 NON d   1     -39.981  25.577 -10.141  0.00  0.00     0.001 A 
ATOM     33  C21 NON d   1     -40.294  24.655  -9.142  0.00  0.00     0.012 A 
ATOM     34  C23 NON d   1     -40.181  22.375  -8.227  0.00  0.00     0.026 A 
ENDBRANCH  21  25
ENDBRANCH   1  19
TORSDOF 10
ENDMDL
MODEL 3
REMARK VINA RESULT:   -31.330      2.589      7.187
REMARK INTER + INTRA:         -37.623
REMARK INTER:                 -34.313
REMARK INTRA:                  -3.309
REMARK CONF_INDEPENDENT:        2.983
REMARK UNBOUND:                -3.309
REMARK  10 active torsions:
REMARK  status: ('A' for Active; 'I' for Inactive)
REMARK    1  A    between atoms: C1_2  and  C2_4 
REMARK    2  A    between atoms: C2_4  and  C3_5 
REMARK    3  A    between atoms: C3_5  and  C4_6 
REMARK    4  A    between atoms: C4_6  and  C5_7 
REMARK    5  A    between atoms: C5_7  and  C6_8 
REMARK    6  A    between atoms: C7_9  and  C6_8 
REMARK    7  A    between atoms: C7_9  and  N1_10 
REMARK    8  A    between atoms: C7_9  and  C12_18 
REMARK       I    between atoms: N1_10  and  C8_11 
REMARK    9  A    between atoms: C8_11  and  C9_13 
REMARK   10  A    between atoms: C13_20  and  C14_21 
ROOT
ATOM      1  C7  NON d   1     -41.666  18.385  -4.897  0.00  0.00     0.154 C 
ENDROOT
BRANCH   1   2
ATOM      2  C6  NON d   1     -40.719  18.144  -6.102  0.00  0.00     0.033 C 
BRANCH   2   3
ATOM      3  C5  NON d   1     -39.316  18.779  -6.109  0.00  0.00     0.002 C 
BRANCH   3   4
ATOM      4  C4  NON d   1     -38.677  18.870  -7.501  0.00  0.00     0.001 C 
BRANCH   4   5
ATOM      5  C3  NON d   1     -39.669  18.871  -8.676  0.00  0.00     0.010 C 
BRANCH   5   6
ATOM      6  C2  NON d   1     -40.469  20.167  -8.825  0.00  0.00     0.113 C 
BRANCH   6   7
ATOM      7  C1  NON d   1     -41.123  20.787  -7.588  0.00  0.00     0.172 C 
ATOM      8  O1  NON d   1     -40.514  21.788  -7.118  0.00  0.00    -0.648 OA
ATOM      9  O2  NON d   1     -42.195  20.249  -7.193  0.00  0.00    -0.648 OA
ENDBRANCH   6   7
ENDBRANCH   5   6
ENDBRANCH   4   5
ENDBRANCH   3   4
ENDBRANCH   2   3
ENDBRANCH   1   2
BRANCH   1  10
ATOM     10  N1  NON d   1     -43.077  18.319  -5.222  0.00  0.00    -0.345 N 
ATOM     11  C8  NON d   1     -43.817  17.198  -4.910  0.00  0.00     0.260 C 
ATOM     12  O3  NON d   1     -43.318  16.244  -4.316  0.00  0.00    -0.267 OA
ATOM     13  H12 NON d   1     -43.510  19.128  -5.652  0.00  0.00     0.163 HD
BRANCH  11  14
ATOM     14  C9  NON d   1     -45.193  17.173  -5.348  0.00  0.00     0.091 A 
ATOM     15  C10 NON d   1     -46.165  16.269  -4.958  0.00  0.00     0.141 A 
ATOM     16  N2  NON d   1     -47.439  16.505  -5.436  0.00  0.00    -0.265 NA
ATOM     17  C11 NON d   1     -47.418  17.588  -6.182  0.00  0.00     0.166 A 
ATOM     18  S1  NON d   1     -45.886  18.338  -6.391  0.00  0.00    -0.076 SA
ENDBRANCH  11  14
ENDBRANCH   1  10
BRANCH   1  19
ATOM     19  C12 NON d   1     -41.374  19.617  -4.056  0.00  0.00     0.127 A 
ATOM     20  N3  NON d   1     -40.853  19.656  -2.833  0.00  0.00    -0.231 NA
ATOM     21  C13 NON d   1     -40.467  20.970  -2.610  0.00  0.00     0.084 A 
ATOM     22  C24 NON d   1     -40.818  21.742  -3.694  0.00  0.00     0.122 A 
ATOM     23  N4  NON d   1     -41.427  20.892  -4.574  0.00  0.00    -0.350 N 
ATOM     24  H23 NON d   1     -41.772  21.148  -5.488  0.00  0.00     0.166 HD
BRANCH  21  25
ATOM     25  C14 NON d   1     -39.754  21.446  -1.424  0.00  0.00    -0.005 A 
ATOM     26  C15 NON d   1     -38.542  20.858  -1.043  0.00  0.00     0.014 A 
ATOM     27  C16 NON d   1     -37.852  21.305   0.093  0.00  0.00     0.013 A 
ATOM     28  C17 NON d   1     -38.352  22.359   0.880  0.00  0.00    -0.026 A 
ATOM     29  C18 NON d   1     -37.676  22.816   2.023  0.00  0.00     0.012 A 
ATOM     30  C22 NON d   1     -39.563  22.972   0.504  0.00  0.00    -0.025 A 
ATOM     31  C19 NON d   1     -38.189  23.869   2.789  0.00  0.00     0.001 A 
ATOM     32  C20 NON d   1     -39.385  24.478   2.414  0.00  0.00     0.001 A 
ATOM     33  C21 NON d   1     -40.065  24.033   1.279  0.00  0.00     0.012 A 
ATOM     34  C23 NON d   1     -40.245  22.507  -0.640  0.00  0.00     0.026 A 
ENDBRANCH  21  25
ENDBRANCH   1  19
TORSDOF 10
ENDMDL
MODEL 4
REMARK VINA RESULT:   -30.287      2.924      7.277
REMARK INTER + INTRA:         -35.047
REMARK INTER:                 -33.270
REMARK INTRA:                  -1.777
REMARK CONF_INDEPENDENT:        2.983
REMARK UNBOUND:                -1.777
REMARK  10 active torsions:
REMARK  status: ('A' for Active; 'I' for Inactive)
REMARK    1  A    between atoms: C1_2  and  C2_4 
REMARK    2  A    between atoms: C2_4  and  C3_5 
REMARK    3  A    between atoms: C3_5  and  C4_6 
REMARK    4  A    between atoms: C4_6  and  C5_7 
REMARK    5  A    between atoms: C5_7  and  C6_8 
REMARK    6  A    between atoms: C7_9  and  C6_8 
REMARK    7  A    between atoms: C7_9  and  N1_10 
REMARK    8  A    between atoms: C7_9  and  C12_18 
REMARK       I    between atoms: N1_10  and  C8_11 
REMARK    9  A    between atoms: C8_11  and  C9_13 
REMARK   10  A    between atoms: C13_20  and  C14_21 
ROOT
ATOM      1  C7  NON d   1     -41.865  18.332  -5.211  0.00  0.00     0.154 C 
ENDROOT
BRANCH   1   2
ATOM      2  C6  NON d   1     -41.391  19.296  -6.330  0.00  0.00     0.033 C 
BRANCH   2   3
ATOM      3  C5  NON d   1     -40.802  20.669  -5.956  0.00  0.00     0.002 C 
BRANCH   3   4
ATOM      4  C4  NON d   1     -40.077  21.375  -7.110  0.00  0.00     0.001 C 
BRANCH   4   5
ATOM      5  C3  NON d   1     -39.939  20.547  -8.398  0.00  0.00     0.010 C 
BRANCH   5   6
ATOM      6  C2  NON d   1     -38.562  19.905  -8.590  0.00  0.00     0.113 C 
BRANCH   6   7
ATOM      7  C1  NON d   1     -38.405  18.398  -8.379  0.00  0.00     0.172 C 
ATOM      8  O1  NON d   1     -39.362  17.703  -8.821  0.00  0.00    -0.648 OA
ATOM      9  O2  NON d   1     -37.341  18.019  -7.814  0.00  0.00    -0.648 OA
ENDBRANCH   6   7
ENDBRANCH   5   6
ENDBRANCH   4   5
ENDBRANCH   3   4
ENDBRANCH   2   3
ENDBRANCH   1   2
BRANCH   1  10
ATOM     10  N1  NON d   1     -43.303  18.166  -5.134  0.00  0.00    -0.345 N 
ATOM     11  C8  NON d   1     -43.849  17.028  -4.578  0.00  0.00     0.260 C 
ATOM     12  O3  NON d   1     -43.140  16.144  -4.099  0.00  0.00    -0.267 OA
ATOM     13  H12 NON d   1     -43.894  18.919  -5.467  0.00  0.00     0.163 HD
BRANCH  11  14
ATOM     14  C9  NON d   1     -45.287  16.897  -4.621  0.00  0.00     0.091 A 
ATOM     15  C10 NON d   1     -46.061  16.701  -5.751  0.00  0.00     0.141 A 
ATOM     16  N2  NON d   1     -47.411  16.505  -5.533  0.00  0.00    -0.265 NA
ATOM     17  C11 NON d   1     -47.643  16.554  -4.239  0.00  0.00     0.166 A 
ATOM     18  S1  NON d   1     -46.288  16.883  -3.235  0.00  0.00    -0.076 SA
ENDBRANCH  11  14
ENDBRANCH   1  10
BRANCH   1  19
ATOM     19  C12 NON d   1     -41.287  18.582  -3.827  0.00  0.00     0.127 A 
ATOM     20  N3  NON d   1     -40.358  19.471  -3.488  0.00  0.00    -0.231 NA
ATOM     21  C13 NON d   1     -40.392  19.569  -2.105  0.00  0.00     0.084 A 
ATOM     22  C24 NON d   1     -41.315  18.679  -1.603  0.00  0.00     0.122 A 
ATOM     23  N4  NON d   1     -41.836  18.034  -2.690  0.00  0.00    -0.350 N 
ATOM     24  H23 NON d   1     -42.568  17.338  -2.658  0.00  0.00     0.166 HD
BRANCH  21  25
ATOM     25  C14 NON d   1     -39.600  20.509  -1.310  0.00  0.00    -0.005 A 
ATOM     26  C15 NON d   1     -38.211  20.579  -1.474  0.00  0.00     0.014 A 
ATOM     27  C16 NON d   1     -37.442  21.474  -0.717  0.00  0.00     0.013 A 
ATOM     28  C17 NON d   1     -38.041  22.332   0.224  0.00  0.00    -0.026 A 
ATOM     29  C18 NON d   1     -37.285  23.232   0.993  0.00  0.00     0.012 A 
ATOM     30  C22 NON d   1     -39.439  22.286   0.392  0.00  0.00    -0.025 A 
ATOM     31  C19 NON d   1     -37.902  24.079   1.921  0.00  0.00     0.001 A 
ATOM     32  C20 NON d   1     -39.286  24.036   2.084  0.00  0.00     0.001 A 
ATOM     33  C21 NON d   1     -40.046  23.146   1.324  0.00  0.00     0.012 A 
ATOM     34  C23 NON d   1     -40.196  21.376  -0.376  0.00  0.00     0.026 A 
ENDBRANCH  21  25
ENDBRANCH   1  19
TORSDOF 10
ENDMDL
MODEL 5
REMARK VINA RESULT:   -29.953      2.034      2.273
REMARK INTER + INTRA:         -34.566
REMARK INTER:                 -32.936
REMARK INTRA:                  -1.629
REMARK CONF_INDEPENDENT:        2.983
REMARK UNBOUND:                -1.629
REMARK  10 active torsions:
REMARK  status: ('A' for Active; 'I' for Inactive)
REMARK    1  A    between atoms: C1_2  and  C2_4 
REMARK    2  A    between atoms: C2_4  and  C3_5 
REMARK    3  A    between atoms: C3_5  and  C4_6 
REMARK    4  A    between atoms: C4_6  and  C5_7 
REMARK    5  A    between atoms: C5_7  and  C6_8 
REMARK    6  A    between atoms: C7_9  and  C6_8 
REMARK    7  A    between atoms: C7_9  and  N1_10 
REMARK    8  A    between atoms: C7_9  and  C12_18 
REMARK       I    between atoms: N1_10  and  C8_11 
REMARK    9  A    between atoms: C8_11  and  C9_13 
REMARK   10  A    between atoms: C13_20  and  C14_21 
ROOT
ATOM      1  C7  NON d   1     -42.305  18.559  -4.587  0.00  0.00     0.154 C 
ENDROOT
BRANCH   1   2
ATOM      2  C6  NON d   1     -41.582  17.606  -3.599  0.00  0.00     0.033 C 
BRANCH   2   3
ATOM      3  C5  NON d   1     -41.085  18.145  -2.244  0.00  0.00     0.002 C 
BRANCH   3   4
ATOM      4  C4  NON d   1     -40.504  19.564  -2.311  0.00  0.00     0.001 C 
BRANCH   4   5
ATOM      5  C3  NON d   1     -39.006  19.641  -2.648  0.00  0.00     0.010 C 
BRANCH   5   6
ATOM      6  C2  NON d   1     -38.694  20.334  -3.977  0.00  0.00     0.113 C 
BRANCH   6   7
ATOM      7  C1  NON d   1     -37.676  19.701  -4.928  0.00  0.00     0.172 C 
ATOM      8  O1  NON d   1     -36.942  20.528  -5.538  0.00  0.00    -0.648 OA
ATOM      9  O2  NON d   1     -37.667  18.439  -4.980  0.00  0.00    -0.648 OA
ENDBRANCH   6   7
ENDBRANCH   5   6
ENDBRANCH   4   5
ENDBRANCH   3   4
ENDBRANCH   2   3
ENDBRANCH   1   2
BRANCH   1  10
ATOM     10  N1  NON d   1     -43.641  18.135  -4.957  0.00  0.00    -0.345 N 
ATOM     11  C8  NON d   1     -44.442  17.472  -4.052  0.00  0.00     0.260 C 
ATOM     12  O3  NON d   1     -44.067  17.255  -2.901  0.00  0.00    -0.267 OA
ATOM     13  H12 NON d   1     -43.981  18.369  -5.883  0.00  0.00     0.163 HD
BRANCH  11  14
ATOM     14  C9  NON d   1     -45.723  17.003  -4.526  0.00  0.00     0.091 A 
ATOM     15  C10 NON d   1     -46.218  17.119  -5.813  0.00  0.00     0.141 A 
ATOM     16  N2  NON d   1     -47.431  16.504  -6.053  0.00  0.00    -0.265 NA
ATOM     17  C11 NON d   1     -47.841  15.927  -4.944  0.00  0.00     0.166 A 
ATOM     18  S1  NON d   1     -46.838  16.132  -3.565  0.00  0.00    -0.076 SA
ENDBRANCH  11  14
ENDBRANCH   1  10
BRANCH   1  19
ATOM     19  C12 NON d   1     -41.515  18.960  -5.823  0.00  0.00     0.127 A 
ATOM     20  N3  NON d   1     -41.600  20.102  -6.500  0.00  0.00    -0.231 NA
ATOM     21  C13 NON d   1     -40.485  20.155  -7.323  0.00  0.00     0.084 A 
ATOM     22  C24 NON d   1     -39.753  18.998  -7.182  0.00  0.00     0.122 A 
ATOM     23  N4  NON d   1     -40.434  18.238  -6.273  0.00  0.00    -0.350 N 
ATOM     24  H23 NON d   1     -40.135  17.337  -5.927  0.00  0.00     0.166 HD
BRANCH  21  25
ATOM     25  C14 NON d   1     -40.123  21.290  -8.175  0.00  0.00    -0.005 A 
ATOM     26  C15 NON d   1     -40.000  22.573  -7.628  0.00  0.00     0.014 A 
ATOM     27  C16 NON d   1     -39.656  23.668  -8.435  0.00  0.00     0.013 A 
ATOM     28  C17 NON d   1     -39.419  23.510  -9.812  0.00  0.00    -0.026 A 
ATOM     29  C18 NON d   1     -39.078  24.596 -10.635  0.00  0.00     0.012 A 
ATOM     30  C22 NON d   1     -39.524  22.224 -10.377  0.00  0.00    -0.025 A 
ATOM     31  C19 NON d   1     -38.843  24.416 -12.003  0.00  0.00     0.001 A 
ATOM     32  C20 NON d   1     -38.943  23.142 -12.560  0.00  0.00     0.001 A 
ATOM     33  C21 NON d   1     -39.280  22.056 -11.752  0.00  0.00     0.012 A 
ATOM     34  C23 NON d   1     -39.875  21.135  -9.551  0.00  0.00     0.026 A 
ENDBRANCH  21  25
ENDBRANCH   1  19
TORSDOF 10
ENDMDL
MODEL 6
REMARK VINA RESULT:   -29.334      2.435      6.798
REMARK INTER + INTRA:         -34.486
REMARK INTER:                 -32.317
REMARK INTRA:                  -2.169
REMARK CONF_INDEPENDENT:        2.983
REMARK UNBOUND:                -2.169
REMARK  10 active torsions:
REMARK  status: ('A' for Active; 'I' for Inactive)
REMARK    1  A    between atoms: C1_2  and  C2_4 
REMARK    2  A    between atoms: C2_4  and  C3_5 
REMARK    3  A    between atoms: C3_5  and  C4_6 
REMARK    4  A    between atoms: C4_6  and  C5_7 
REMARK    5  A    between atoms: C5_7  and  C6_8 
REMARK    6  A    between atoms: C7_9  and  C6_8 
REMARK    7  A    between atoms: C7_9  and  N1_10 
REMARK    8  A    between atoms: C7_9  and  C12_18 
REMARK       I    between atoms: N1_10  and  C8_11 
REMARK    9  A    between atoms: C8_11  and  C9_13 
REMARK   10  A    between atoms: C13_20  and  C14_21 
ROOT
ATOM      1  C7  NON d   1     -41.986  18.733  -5.334  0.00  0.00     0.154 C 
ENDROOT
BRANCH   1   2
ATOM      2  C6  NON d   1     -41.672  19.858  -6.356  0.00  0.00     0.033 C 
BRANCH   2   3
ATOM      3  C5  NON d   1     -40.253  19.984  -6.940  0.00  0.00     0.002 C 
BRANCH   3   4
ATOM      4  C4  NON d   1     -39.971  21.334  -7.613  0.00  0.00     0.001 C 
BRANCH   4   5
ATOM      5  C3  NON d   1     -40.022  22.553  -6.677  0.00  0.00     0.010 C 
BRANCH   5   6
ATOM      6  C2  NON d   1     -40.217  22.205  -5.199  0.00  0.00     0.113 C 
BRANCH   6   7
ATOM      7  C1  NON d   1     -40.738  23.279  -4.242  0.00  0.00     0.172 C 
ATOM      8  O1  NON d   1     -40.285  24.438  -4.456  0.00  0.00    -0.648 OA
ATOM      9  O2  NON d   1     -41.568  22.897  -3.370  0.00  0.00    -0.648 OA
ENDBRANCH   6   7
ENDBRANCH   5   6
ENDBRANCH   4   5
ENDBRANCH   3   4
ENDBRANCH   2   3
ENDBRANCH   1   2
BRANCH   1  10
ATOM     10  N1  NON d   1     -43.399  18.466  -5.152  0.00  0.00    -0.345 N 
ATOM     11  C8  NON d   1     -43.837  17.202  -4.817  0.00  0.00     0.260 C 
ATOM     12  O3  NON d   1     -43.047  16.279  -4.624  0.00  0.00    -0.267 OA
ATOM     13  H12 NON d   1     -44.050  19.237  -5.244  0.00  0.00     0.163 HD
BRANCH  11  14
ATOM     14  C9  NON d   1     -45.264  16.996  -4.744  0.00  0.00     0.091 A 
ATOM     15  C10 NON d   1     -46.119  16.774  -5.809  0.00  0.00     0.141 A 
ATOM     16  N2  NON d   1     -47.434  16.505  -5.484  0.00  0.00    -0.265 NA
ATOM     17  C11 NON d   1     -47.560  16.525  -4.175  0.00  0.00     0.166 A 
ATOM     18  S1  NON d   1     -46.145  16.912  -3.281  0.00  0.00    -0.076 SA
ENDBRANCH  11  14
ENDBRANCH   1  10
BRANCH   1  19
ATOM     19  C12 NON d   1     -41.291  18.845  -3.986  0.00  0.00     0.127 A 
ATOM     20  N3  NON d   1     -40.481  19.814  -3.573  0.00  0.00    -0.231 NA
ATOM     21  C13 NON d   1     -40.362  19.671  -2.198  0.00  0.00     0.084 A 
ATOM     22  C24 NON d   1     -41.065  18.561  -1.789  0.00  0.00     0.122 A 
ATOM     23  N4  NON d   1     -41.605  18.026  -2.925  0.00  0.00    -0.350 N 
ATOM     24  H23 NON d   1     -42.209  17.216  -2.958  0.00  0.00     0.166 HD
BRANCH  21  25
ATOM     25  C14 NON d   1     -39.638  20.590  -1.318  0.00  0.00    -0.005 A 
ATOM     26  C15 NON d   1     -38.239  20.644  -1.348  0.00  0.00     0.014 A 
ATOM     27  C16 NON d   1     -37.536  21.519  -0.508  0.00  0.00     0.013 A 
ATOM     28  C17 NON d   1     -38.211  22.371   0.385  0.00  0.00    -0.026 A 
ATOM     29  C18 NON d   1     -37.522  23.250   1.236  0.00  0.00     0.012 A 
ATOM     30  C22 NON d   1     -39.619  22.340   0.419  0.00  0.00    -0.025 A 
ATOM     31  C19 NON d   1     -38.214  24.092   2.114  0.00  0.00     0.001 A 
ATOM     32  C20 NON d   1     -39.608  24.064   2.144  0.00  0.00     0.001 A 
ATOM     33  C21 NON d   1     -40.302  23.195   1.302  0.00  0.00     0.012 A 
ATOM     34  C23 NON d   1     -40.310  21.451  -0.431  0.00  0.00     0.026 A 
ENDBRANCH  21  25
ENDBRANCH   1  19
TORSDOF 10
ENDMDL
MODEL 7
REMARK VINA RESULT:   -29.187      2.684      6.814
REMARK INTER + INTRA:         -34.317
REMARK INTER:                 -32.170
REMARK INTRA:                  -2.147
REMARK CONF_INDEPENDENT:        2.983
REMARK UNBOUND:                -2.147
REMARK  10 active torsions:
REMARK  status: ('A' for Active; 'I' for Inactive)
REMARK    1  A    between atoms: C1_2  and  C2_4 
REMARK    2  A    between atoms: C2_4  and  C3_5 
REMARK    3  A    between atoms: C3_5  and  C4_6 
REMARK    4  A    between atoms: C4_6  and  C5_7 
REMARK    5  A    between atoms: C5_7  and  C6_8 
REMARK    6  A    between atoms: C7_9  and  C6_8 
REMARK    7  A    between atoms: C7_9  and  N1_10 
REMARK    8  A    between atoms: C7_9  and  C12_18 
REMARK       I    between atoms: N1_10  and  C8_11 
REMARK    9  A    between atoms: C8_11  and  C9_13 
REMARK   10  A    between atoms: C13_20  and  C14_21 
ROOT
ATOM      1  C7  NON d   1     -41.440  17.701  -5.292  0.00  0.00     0.154 C 
ENDROOT
BRANCH   1   2
ATOM      2  C6  NON d   1     -40.529  18.141  -6.468  0.00  0.00     0.033 C 
BRANCH   2   3
ATOM      3  C5  NON d   1     -40.584  19.594  -6.974  0.00  0.00     0.002 C 
BRANCH   3   4
ATOM      4  C4  NON d   1     -39.532  19.926  -8.041  0.00  0.00     0.001 C 
BRANCH   4   5
ATOM      5  C3  NON d   1     -38.355  18.940  -8.127  0.00  0.00     0.010 C 
BRANCH   5   6
ATOM      6  C2  NON d   1     -37.060  19.447  -7.488  0.00  0.00     0.113 C 
BRANCH   6   7
ATOM      7  C1  NON d   1     -36.767  19.107  -6.025  0.00  0.00     0.172 C 
ATOM      8  O1  NON d   1     -36.628  20.110  -5.271  0.00  0.00    -0.648 OA
ATOM      9  O2  NON d   1     -36.719  17.879  -5.734  0.00  0.00    -0.648 OA
ENDBRANCH   6   7
ENDBRANCH   5   6
ENDBRANCH   4   5
ENDBRANCH   3   4
ENDBRANCH   2   3
ENDBRANCH   1   2
BRANCH   1  10
ATOM     10  N1  NON d   1     -42.860  17.793  -5.569  0.00  0.00    -0.345 N 
ATOM     11  C8  NON d   1     -43.751  16.938  -4.956  0.00  0.00     0.260 C 
ATOM     12  O3  NON d   1     -43.378  16.103  -4.134  0.00  0.00    -0.267 OA
ATOM     13  H12 NON d   1     -43.182  18.522  -6.195  0.00  0.00     0.163 HD
BRANCH  11  14
ATOM     14  C9  NON d   1     -45.137  17.033  -5.353  0.00  0.00     0.091 A 
ATOM     15  C10 NON d   1     -46.150  16.152  -5.021  0.00  0.00     0.141 A 
ATOM     16  N2  NON d   1     -47.420  16.505  -5.435  0.00  0.00    -0.265 NA
ATOM     17  C11 NON d   1     -47.353  17.652  -6.075  0.00  0.00     0.166 A 
ATOM     18  S1  NON d   1     -45.785  18.331  -6.258  0.00  0.00    -0.076 SA
ENDBRANCH  11  14
ENDBRANCH   1  10
BRANCH   1  19
ATOM     19  C12 NON d   1     -41.124  18.316  -3.938  0.00  0.00     0.127 A 
ATOM     20  N3  NON d   1     -40.506  19.468  -3.699  0.00  0.00    -0.231 NA
ATOM     21  C13 NON d   1     -40.737  19.770  -2.365  0.00  0.00     0.084 A 
ATOM     22  C24 NON d   1     -41.454  18.751  -1.780  0.00  0.00     0.122 A 
ATOM     23  N4  NON d   1     -41.651  17.824  -2.765  0.00  0.00    -0.350 N 
ATOM     24  H23 NON d   1     -42.176  16.967  -2.662  0.00  0.00     0.166 HD
BRANCH  21  25
ATOM     25  C14 NON d   1     -40.320  21.005  -1.699  0.00  0.00    -0.005 A 
ATOM     26  C15 NON d   1     -40.657  22.251  -2.243  0.00  0.00     0.014 A 
ATOM     27  C16 NON d   1     -40.261  23.440  -1.615  0.00  0.00     0.013 A 
ATOM     28  C17 NON d   1     -39.521  23.420  -0.419  0.00  0.00    -0.026 A 
ATOM     29  C18 NON d   1     -39.113  24.601   0.221  0.00  0.00     0.012 A 
ATOM     30  C22 NON d   1     -39.186  22.176   0.151  0.00  0.00    -0.025 A 
ATOM     31  C19 NON d   1     -38.381  24.558   1.413  0.00  0.00     0.001 A 
ATOM     32  C20 NON d   1     -38.053  23.327   1.979  0.00  0.00     0.001 A 
ATOM     33  C21 NON d   1     -38.454  22.147   1.352  0.00  0.00     0.012 A 
ATOM     34  C23 NON d   1     -39.590  20.989  -0.497  0.00  0.00     0.026 A 
ENDBRANCH  21  25
ENDBRANCH   1  19
TORSDOF 10
ENDMDL
MODEL 8
REMARK VINA RESULT:   -29.029      2.698      7.067
REMARK INTER + INTRA:         -33.939
REMARK INTER:                 -32.012
REMARK INTRA:                  -1.927
REMARK CONF_INDEPENDENT:        2.983
REMARK UNBOUND:                -1.927
REMARK  10 active torsions:
REMARK  status: ('A' for Active; 'I' for Inactive)
REMARK    1  A    between atoms: C1_2  and  C2_4 
REMARK    2  A    between atoms: C2_4  and  C3_5 
REMARK    3  A    between atoms: C3_5  and  C4_6 
REMARK    4  A    between atoms: C4_6  and  C5_7 
REMARK    5  A    between atoms: C5_7  and  C6_8 
REMARK    6  A    between atoms: C7_9  and  C6_8 
REMARK    7  A    between atoms: C7_9  and  N1_10 
REMARK    8  A    between atoms: C7_9  and  C12_18 
REMARK       I    between atoms: N1_10  and  C8_11 
REMARK    9  A    between atoms: C8_11  and  C9_13 
REMARK   10  A    between atoms: C13_20  and  C14_21 
ROOT
ATOM      1  C7  NON d   1     -41.890  18.589  -5.228  0.00  0.00     0.154 C 
ENDROOT
BRANCH   1   2
ATOM      2  C6  NON d   1     -41.496  19.655  -6.285  0.00  0.00     0.033 C 
BRANCH   2   3
ATOM      3  C5  NON d   1     -40.422  19.326  -7.338  0.00  0.00     0.002 C 
BRANCH   3   4
ATOM      4  C4  NON d   1     -39.005  19.185  -6.764  0.00  0.00     0.001 C 
BRANCH   4   5
ATOM      5  C3  NON d   1     -38.344  20.503  -6.328  0.00  0.00     0.010 C 
BRANCH   5   6
ATOM      6  C2  NON d   1     -38.192  21.534  -7.449  0.00  0.00     0.113 C 
BRANCH   6   7
ATOM      7  C1  NON d   1     -39.447  22.104  -8.113  0.00  0.00     0.172 C 
ATOM      8  O1  NON d   1     -39.753  21.561  -9.211  0.00  0.00    -0.648 OA
ATOM      9  O2  NON d   1     -40.042  23.026  -7.488  0.00  0.00    -0.648 OA
ENDBRANCH   6   7
ENDBRANCH   5   6
ENDBRANCH   4   5
ENDBRANCH   3   4
ENDBRANCH   2   3
ENDBRANCH   1   2
BRANCH   1  10
ATOM     10  N1  NON d   1     -43.316  18.357  -5.115  0.00  0.00    -0.345 N 
ATOM     11  C8  NON d   1     -43.796  17.138  -4.684  0.00  0.00     0.260 C 
ATOM     12  O3  NON d   1     -43.036  16.231  -4.348  0.00  0.00    -0.267 OA
ATOM     13  H12 NON d   1     -43.947  19.121  -5.327  0.00  0.00     0.163 HD
BRANCH  11  14
ATOM     14  C9  NON d   1     -45.229  16.956  -4.686  0.00  0.00     0.091 A 
ATOM     15  C10 NON d   1     -46.031  16.754  -5.795  0.00  0.00     0.141 A 
ATOM     16  N2  NON d   1     -47.366  16.505  -5.540  0.00  0.00    -0.265 NA
ATOM     17  C11 NON d   1     -47.558  16.519  -4.239  0.00  0.00     0.166 A 
ATOM     18  S1  NON d   1     -46.185  16.877  -3.271  0.00  0.00    -0.076 SA
ENDBRANCH  11  14
ENDBRANCH   1  10
BRANCH   1  19
ATOM     19  C12 NON d   1     -41.270  18.757  -3.850  0.00  0.00     0.127 A 
ATOM     20  N3  NON d   1     -40.413  19.695  -3.459  0.00  0.00    -0.231 NA
ATOM     21  C13 NON d   1     -40.388  19.653  -2.072  0.00  0.00     0.084 A 
ATOM     22  C24 NON d   1     -41.198  18.633  -1.629  0.00  0.00     0.122 A 
ATOM     23  N4  NON d   1     -41.710  18.050  -2.754  0.00  0.00    -0.350 N 
ATOM     24  H23 NON d   1     -42.371  17.286  -2.765  0.00  0.00     0.166 HD
BRANCH  21  25
ATOM     25  C14 NON d   1     -39.649  20.584  -1.218  0.00  0.00    -0.005 A 
ATOM     26  C15 NON d   1     -38.255  20.674  -1.309  0.00  0.00     0.014 A 
ATOM     27  C16 NON d   1     -37.536  21.560  -0.494  0.00  0.00     0.013 A 
ATOM     28  C17 NON d   1     -38.192  22.389   0.434  0.00  0.00    -0.026 A 
ATOM     29  C18 NON d   1     -37.488  23.279   1.261  0.00  0.00     0.012 A 
ATOM     30  C22 NON d   1     -39.596  22.322   0.531  0.00  0.00    -0.025 A 
ATOM     31  C19 NON d   1     -38.161  24.097   2.176  0.00  0.00     0.001 A 
ATOM     32  C20 NON d   1     -39.551  24.034   2.267  0.00  0.00     0.001 A 
ATOM     33  C21 NON d   1     -40.261  23.154   1.450  0.00  0.00     0.012 A 
ATOM     34  C23 NON d   1     -40.302  21.422  -0.295  0.00  0.00     0.026 A 
ENDBRANCH  21  25
ENDBRANCH   1  19
TORSDOF 10
ENDMDL
MODEL 9
REMARK VINA RESULT:   -28.925      2.418      3.211
REMARK INTER + INTRA:         -34.026
REMARK INTER:                 -31.908
REMARK INTRA:                  -2.118
REMARK CONF_INDEPENDENT:        2.983
REMARK UNBOUND:                -2.118
REMARK  10 active torsions:
REMARK  status: ('A' for Active; 'I' for Inactive)
REMARK    1  A    between atoms: C1_2  and  C2_4 
REMARK    2  A    between atoms: C2_4  and  C3_5 
REMARK    3  A    between atoms: C3_5  and  C4_6 
REMARK    4  A    between atoms: C4_6  and  C5_7 
REMARK    5  A    between atoms: C5_7  and  C6_8 
REMARK    6  A    between atoms: C7_9  and  C6_8 
REMARK    7  A    between atoms: C7_9  and  N1_10 
REMARK    8  A    between atoms: C7_9  and  C12_18 
REMARK       I    between atoms: N1_10  and  C8_11 
REMARK    9  A    between atoms: C8_11  and  C9_13 
REMARK   10  A    between atoms: C13_20  and  C14_21 
ROOT
ATOM      1  C7  NON d   1     -42.044  18.369  -3.898  0.00  0.00     0.154 C 
ENDROOT
BRANCH   1   2
ATOM      2  C6  NON d   1     -40.982  17.646  -3.027  0.00  0.00     0.033 C 
BRANCH   2   3
ATOM      3  C5  NON d   1     -39.918  18.471  -2.280  0.00  0.00     0.002 C 
BRANCH   3   4
ATOM      4  C4  NON d   1     -39.924  19.965  -2.632  0.00  0.00     0.001 C 
BRANCH   4   5
ATOM      5  C3  NON d   1     -38.727  20.442  -3.472  0.00  0.00     0.010 C 
BRANCH   5   6
ATOM      6  C2  NON d   1     -37.841  19.314  -4.006  0.00  0.00     0.113 C 
BRANCH   6   7
ATOM      7  C1  NON d   1     -37.374  19.357  -5.462  0.00  0.00     0.172 C 
ATOM      8  O1  NON d   1     -37.274  20.519  -5.947  0.00  0.00    -0.648 OA
ATOM      9  O2  NON d   1     -37.121  18.244  -6.003  0.00  0.00    -0.648 OA
ENDBRANCH   6   7
ENDBRANCH   5   6
ENDBRANCH   4   5
ENDBRANCH   3   4
ENDBRANCH   2   3
ENDBRANCH   1   2
BRANCH   1  10
ATOM     10  N1  NON d   1     -43.270  17.619  -4.092  0.00  0.00    -0.345 N 
ATOM     11  C8  NON d   1     -44.330  18.174  -4.777  0.00  0.00     0.260 C 
ATOM     12  O3  NON d   1     -44.257  19.297  -5.273  0.00  0.00    -0.267 OA
ATOM     13  H12 NON d   1     -43.313  16.669  -3.743  0.00  0.00     0.163 HD
BRANCH  11  14
ATOM     14  C9  NON d   1     -45.547  17.400  -4.848  0.00  0.00     0.091 A 
ATOM     15  C10 NON d   1     -46.370  17.259  -5.952  0.00  0.00     0.141 A 
ATOM     16  N2  NON d   1     -47.429  16.385  -5.811  0.00  0.00    -0.265 NA
ATOM     17  C11 NON d   1     -47.396  15.871  -4.600  0.00  0.00     0.166 A 
ATOM     18  S1  NON d   1     -46.146  16.438  -3.567  0.00  0.00    -0.076 SA
ENDBRANCH  11  14
ENDBRANCH   1  10
BRANCH   1  19
ATOM     19  C12 NON d   1     -41.550  18.926  -5.224  0.00  0.00     0.127 A 
ATOM     20  N3  NON d   1     -41.510  20.201  -5.599  0.00  0.00    -0.231 NA
ATOM     21  C13 NON d   1     -40.694  20.257  -6.720  0.00  0.00     0.084 A 
ATOM     22  C24 NON d   1     -40.289  18.986  -7.057  0.00  0.00     0.122 A 
ATOM     23  N4  NON d   1     -40.869  18.156  -6.139  0.00  0.00    -0.350 N 
ATOM     24  H23 NON d   1     -40.739  17.155  -6.094  0.00  0.00     0.166 HD
BRANCH  21  25
ATOM     25  C14 NON d   1     -40.292  21.486  -7.405  0.00  0.00    -0.005 A 
ATOM     26  C15 NON d   1     -40.302  21.553  -8.804  0.00  0.00     0.014 A 
ATOM     27  C16 NON d   1     -39.917  22.725  -9.471  0.00  0.00     0.013 A 
ATOM     28  C17 NON d   1     -39.517  23.869  -8.758  0.00  0.00    -0.026 A 
ATOM     29  C18 NON d   1     -39.125  25.049  -9.410  0.00  0.00     0.012 A 
ATOM     30  C22 NON d   1     -39.514  23.826  -7.350  0.00  0.00    -0.025 A 
ATOM     31  C19 NON d   1     -38.733  26.178  -8.681  0.00  0.00     0.001 A 
ATOM     32  C20 NON d   1     -38.736  26.136  -7.287  0.00  0.00     0.001 A 
ATOM     33  C21 NON d   1     -39.124  24.969  -6.629  0.00  0.00     0.012 A 
ATOM     34  C23 NON d   1     -39.901  22.637  -6.696  0.00  0.00     0.026 A 
ENDBRANCH  21  25
ENDBRANCH   1  19
TORSDOF 10
ENDMDL
