MODEL 1
REMARK VINA RESULT:   -30.379      0.000      0.000
REMARK INTER + INTRA:         -34.082
REMARK INTER:                 -32.467
REMARK INTRA:                  -1.615
REMARK CONF_INDEPENDENT:        2.088
REMARK UNBOUND:                -1.615
REMARK  7 active torsions:
REMARK  status: ('A' for Active; 'I' for Inactive)
REMARK    1  A    between atoms: C3_3  and  C4_4 
REMARK    2  A    between atoms: C4_4  and  N1_5 
REMARK    3  A    between atoms: N1_5  and  C5_6 
REMARK    4  A    between atoms: C8_9  and  C9_10 
REMARK       I    between atoms: C9_10  and  N2_12 
REMARK    5  A    between atoms: N2_12  and  C10_13 
REMARK    6  A    between atoms: C12_15  and  C13_16 
REMARK    7  A    between atoms: C21_24  and  N3_25 
ROOT
ATOM      1  C9  NON d   1     -39.621  20.823  -1.792  0.00  0.00     0.256 C 
ATOM      2  O1  NON d   1     -38.664  21.223  -2.449  0.00  0.00    -0.267 OA
ATOM      3  N2  NON d   1     -39.835  21.102  -0.452  0.00  0.00    -0.321 N 
ATOM      4  H9  NON d   1     -40.676  20.772  -0.000  0.00  0.00     0.169 HD
ENDROOT
BRANCH   1   5
ATOM      5  C8  NON d   1     -40.624  19.956  -2.506  0.00  0.00     0.032 A 
ATOM      6  C7  NON d   1     -41.099  18.832  -1.813  0.00  0.00     0.019 A 
ATOM      7  C6  NON d   1     -42.072  17.984  -2.364  0.00  0.00     0.024 A 
ATOM      8  C5  NON d   1     -42.642  18.241  -3.613  0.00  0.00     0.008 A 
ATOM      9  C23 NON d   1     -42.123  19.335  -4.327  0.00  0.00     0.024 A 
ATOM     10  C22 NON d   1     -41.137  20.192  -3.784  0.00  0.00     0.019 A 
BRANCH   8  11
ATOM     11  N1  NON d   1     -43.590  17.399  -4.228  0.00  0.00    -0.289 NA
ATOM     12  H6  NON d   1     -43.639  17.568  -5.229  0.00  0.00     0.128 HD
BRANCH  11  13
ATOM     13  C4  NON d   1     -44.920  17.270  -3.618  0.00  0.00     0.134 C 
BRANCH  13  14
ATOM     14  C3  NON d   1     -46.075  16.715  -4.420  0.00  0.00    -0.002 A 
ATOM     15  C2  NON d   1     -47.208  16.071  -3.905  0.00  0.00     0.035 A 
ATOM     16  C1  NON d   1     -47.454  15.760  -2.417  0.00  0.00     0.070 C 
ATOM     17  N5  NON d   1     -47.969  15.719  -4.984  0.00  0.00    -0.278 N 
ATOM     18  N4  NON d   1     -47.440  16.132  -6.155  0.00  0.00    -0.185 NA
ATOM     19  C25 NON d   1     -49.221  15.001  -4.998  0.00  0.00     0.179 C 
ATOM     20  C24 NON d   1     -46.287  16.711  -5.810  0.00  0.00     0.149 A 
ENDBRANCH  13  14
ENDBRANCH  11  13
ENDBRANCH   8  11
ENDBRANCH   1   5
BRANCH   3  21
ATOM     21  C10 NON d   1     -39.060  21.961   0.384  0.00  0.00     0.057 A 
ATOM     22  C11 NON d   1     -39.591  23.045   1.104  0.00  0.00     0.043 A 
ATOM     23  C12 NON d   1     -38.835  23.802   2.030  0.00  0.00    -0.024 A 
ATOM     24  C19 NON d   1     -37.495  23.410   2.196  0.00  0.00     0.014 A 
ATOM     25  C20 NON d   1     -36.933  22.358   1.459  0.00  0.00     0.026 A 
ATOM     26  C21 NON d   1     -37.693  21.660   0.518  0.00  0.00     0.033 A 
BRANCH  23  27
ATOM     27  C13 NON d   1     -39.432  24.940   2.811  0.00  0.00    -0.026 A 
ATOM     28  C14 NON d   1     -39.268  25.057   4.208  0.00  0.00     0.012 A 
ATOM     29  C15 NON d   1     -39.823  26.114   4.945  0.00  0.00     0.001 A 
ATOM     30  C16 NON d   1     -40.554  27.104   4.304  0.00  0.00     0.000 A 
ATOM     31  C17 NON d   1     -40.733  27.032   2.929  0.00  0.00     0.001 A 
ATOM     32  C18 NON d   1     -40.188  25.963   2.200  0.00  0.00     0.012 A 
ENDBRANCH  23  27
BRANCH  26  33
ATOM     33  N3  NON d   1     -37.106  20.601  -0.215  0.00  0.00    -0.301 NA
ATOM     34  H18 NON d   1     -37.678  19.763  -0.133  0.00  0.00     0.124 HD
ATOM     35  H19 NON d   1     -36.989  20.841  -1.197  0.00  0.00     0.124 HD
ENDBRANCH  26  33
ENDBRANCH   3  21
TORSDOF 7
ENDMDL
MODEL 2
REMARK VINA RESULT:   -30.238      6.336      9.053
REMARK INTER + INTRA:         -34.204
REMARK INTER:                 -32.326
REMARK INTRA:                  -1.879
REMARK CONF_INDEPENDENT:        2.088
REMARK UNBOUND:                -1.879
REMARK  7 active torsions:
REMARK  status: ('A' for Active; 'I' for Inactive)
REMARK    1  A    between atoms: C3_3  and  C4_4 
REMARK    2  A    between atoms: C4_4  and  N1_5 
REMARK    3  A    between atoms: N1_5  and  C5_6 
REMARK    4  A    between atoms: C8_9  and  C9_10 
REMARK       I    between atoms: C9_10  and  N2_12 
REMARK    5  A    between atoms: N2_12  and  C10_13 
REMARK    6  A    between atoms: C12_15  and  C13_16 
REMARK    7  A    between atoms: C21_24  and  N3_25 
ROOT
ATOM      1  C9  NON d   1     -39.834  20.188  -6.327  0.00  0.00     0.256 C 
ATOM      2  O1  NON d   1     -38.941  20.783  -5.730  0.00  0.00    -0.267 OA
ATOM      3  N2  NON d   1     -40.055  20.256  -7.692  0.00  0.00    -0.321 N 
ATOM      4  H9  NON d   1     -40.783  19.694  -8.110  0.00  0.00     0.169 HD
ENDROOT
BRANCH   1   5
ATOM      5  C8  NON d   1     -40.755  19.332  -5.499  0.00  0.00     0.032 A 
ATOM      6  C7  NON d   1     -42.129  19.442  -5.760  0.00  0.00     0.019 A 
ATOM      7  C6  NON d   1     -43.073  18.655  -5.083  0.00  0.00     0.024 A 
ATOM      8  C5  NON d   1     -42.685  17.697  -4.143  0.00  0.00     0.008 A 
ATOM      9  C23 NON d   1     -41.313  17.629  -3.845  0.00  0.00     0.024 A 
ATOM     10  C22 NON d   1     -40.355  18.423  -4.516  0.00  0.00     0.019 A 
BRANCH   8  11
ATOM     11  N1  NON d   1     -43.595  16.912  -3.406  0.00  0.00    -0.289 NA
ATOM     12  H6  NON d   1     -43.572  15.941  -3.707  0.00  0.00     0.128 HD
BRANCH  11  13
ATOM     13  C4  NON d   1     -44.966  17.407  -3.222  0.00  0.00     0.134 C 
BRANCH  13  14
ATOM     14  C3  NON d   1     -46.097  16.840  -4.048  0.00  0.00    -0.002 A 
ATOM     15  C2  NON d   1     -47.323  16.367  -3.561  0.00  0.00     0.035 A 
ATOM     16  C1  NON d   1     -47.717  16.289  -2.074  0.00  0.00     0.070 C 
ATOM     17  N5  NON d   1     -48.023  15.930  -4.650  0.00  0.00    -0.278 N 
ATOM     18  N4  NON d   1     -47.364  16.131  -5.810  0.00  0.00    -0.185 NA
ATOM     19  C25 NON d   1     -49.330  15.320  -4.686  0.00  0.00     0.179 C 
ATOM     20  C24 NON d   1     -46.194  16.658  -5.439  0.00  0.00     0.149 A 
ENDBRANCH  13  14
ENDBRANCH  11  13
ENDBRANCH   8  11
ENDBRANCH   1   5
BRANCH   3  21
ATOM     21  C10 NON d   1     -39.259  20.936  -8.663  0.00  0.00     0.057 A 
ATOM     22  C11 NON d   1     -39.788  21.718  -9.704  0.00  0.00     0.043 A 
ATOM     23  C12 NON d   1     -38.983  22.491 -10.575  0.00  0.00    -0.024 A 
ATOM     24  C19 NON d   1     -37.597  22.434 -10.342  0.00  0.00     0.014 A 
ATOM     25  C20 NON d   1     -37.045  21.630  -9.335  0.00  0.00     0.026 A 
ATOM     26  C21 NON d   1     -37.863  20.842  -8.523  0.00  0.00     0.033 A 
BRANCH  23  27
ATOM     27  C13 NON d   1     -39.571  23.343 -11.664  0.00  0.00    -0.026 A 
ATOM     28  C14 NON d   1     -39.673  22.889 -12.997  0.00  0.00     0.012 A 
ATOM     29  C15 NON d   1     -40.220  23.678 -14.021  0.00  0.00     0.001 A 
ATOM     30  C16 NON d   1     -40.698  24.950 -13.742  0.00  0.00     0.000 A 
ATOM     31  C17 NON d   1     -40.625  25.432 -12.442  0.00  0.00     0.001 A 
ATOM     32  C18 NON d   1     -40.063  24.644 -11.426  0.00  0.00     0.012 A 
ENDBRANCH  23  27
BRANCH  26  33
ATOM     33  N3  NON d   1     -37.285  20.037  -7.513  0.00  0.00    -0.301 NA
ATOM     34  H18 NON d   1     -36.992  20.620  -6.731  0.00  0.00     0.124 HD
ATOM     35  H19 NON d   1     -37.930  19.323  -7.183  0.00  0.00     0.124 HD
ENDBRANCH  26  33
ENDBRANCH   3  21
TORSDOF 7
ENDMDL
MODEL 3
REMARK VINA RESULT:   -30.131      6.696      9.220
REMARK INTER + INTRA:         -33.715
REMARK INTER:                 -32.219
REMARK INTRA:                  -1.496
REMARK CONF_INDEPENDENT:        2.088
REMARK UNBOUND:                -1.496
REMARK  7 active torsions:
REMARK  status: ('A' for Active; 'I' for Inactive)
REMARK    1  A    between atoms: C3_3  and  C4_4 
REMARK    2  A    between atoms: C4_4  and  N1_5 
REMARK    3  A    between atoms: N1_5  and  C5_6 
REMARK    4  A    between atoms: C8_9  and  C9_10 
REMARK       I    between atoms: C9_10  and  N2_12 
REMARK    5  A    between atoms: N2_12  and  C10_13 
REMARK    6  A    between atoms: C12_15  and  C13_16 
REMARK    7  A    between atoms: C21_24  and  N3_25 
ROOT
ATOM      1  C9  NON d   1     -40.547  20.322  -7.395  0.00  0.00     0.256 C 
ATOM      2  O1  NON d   1     -40.298  19.784  -8.471  0.00  0.00    -0.267 OA
ATOM      3  N2  NON d   1     -40.239  21.634  -7.076  0.00  0.00    -0.321 N 
ATOM      4  H9  NON d   1     -40.525  22.012  -6.183  0.00  0.00     0.169 HD
ENDROOT
BRANCH   1   5
ATOM      5  C8  NON d   1     -41.229  19.477  -6.352  0.00  0.00     0.032 A 
ATOM      6  C7  NON d   1     -42.555  19.808  -6.035  0.00  0.00     0.019 A 
ATOM      7  C6  NON d   1     -43.301  19.057  -5.114  0.00  0.00     0.024 A 
ATOM      8  C5  NON d   1     -42.771  17.920  -4.498  0.00  0.00     0.008 A 
ATOM      9  C23 NON d   1     -41.425  17.626  -4.776  0.00  0.00     0.024 A 
ATOM     10  C22 NON d   1     -40.661  18.381  -5.697  0.00  0.00     0.019 A 
BRANCH   8  11
ATOM     11  N1  NON d   1     -43.463  17.158  -3.536  0.00  0.00    -0.289 NA
ATOM     12  H6  NON d   1     -43.335  16.162  -3.693  0.00  0.00     0.128 HD
BRANCH  11  13
ATOM     13  C4  NON d   1     -44.860  17.499  -3.237  0.00  0.00     0.134 C 
BRANCH  13  14
ATOM     14  C3  NON d   1     -45.982  16.905  -4.057  0.00  0.00    -0.002 A 
ATOM     15  C2  NON d   1     -47.219  16.461  -3.572  0.00  0.00     0.035 A 
ATOM     16  C1  NON d   1     -47.638  16.447  -2.090  0.00  0.00     0.070 C 
ATOM     17  N5  NON d   1     -47.903  15.984  -4.654  0.00  0.00    -0.278 N 
ATOM     18  N4  NON d   1     -47.224  16.131  -5.810  0.00  0.00    -0.185 NA
ATOM     19  C25 NON d   1     -49.214  15.380  -4.686  0.00  0.00     0.179 C 
ATOM     20  C24 NON d   1     -46.057  16.666  -5.442  0.00  0.00     0.149 A 
ENDBRANCH  13  14
ENDBRANCH  11  13
ENDBRANCH   8  11
ENDBRANCH   1   5
BRANCH   3  21
ATOM     21  C10 NON d   1     -39.673  22.622  -7.938  0.00  0.00     0.057 A 
ATOM     22  C11 NON d   1     -39.510  22.454  -9.324  0.00  0.00     0.043 A 
ATOM     23  C12 NON d   1     -39.071  23.492 -10.181  0.00  0.00    -0.024 A 
ATOM     24  C19 NON d   1     -38.798  24.725  -9.562  0.00  0.00     0.014 A 
ATOM     25  C20 NON d   1     -38.916  24.903  -8.176  0.00  0.00     0.026 A 
ATOM     26  C21 NON d   1     -39.306  23.846  -7.352  0.00  0.00     0.033 A 
BRANCH  23  27
ATOM     27  C13 NON d   1     -38.931  23.299 -11.664  0.00  0.00    -0.026 A 
ATOM     28  C14 NON d   1     -39.565  24.151 -12.594  0.00  0.00     0.012 A 
ATOM     29  C15 NON d   1     -39.441  23.977 -13.981  0.00  0.00     0.001 A 
ATOM     30  C16 NON d   1     -38.663  22.947 -14.489  0.00  0.00     0.000 A 
ATOM     31  C17 NON d   1     -38.015  22.090 -13.609  0.00  0.00     0.001 A 
ATOM     32  C18 NON d   1     -38.155  22.261 -12.223  0.00  0.00     0.012 A 
ENDBRANCH  23  27
BRANCH  26  33
ATOM     33  N3  NON d   1     -39.418  24.048  -5.955  0.00  0.00    -0.301 NA
ATOM     34  H18 NON d   1     -39.994  23.316  -5.545  0.00  0.00     0.124 HD
ATOM     35  H19 NON d   1     -38.507  24.061  -5.501  0.00  0.00     0.124 HD
ENDBRANCH  26  33
ENDBRANCH   3  21
TORSDOF 7
ENDMDL
MODEL 4
REMARK VINA RESULT:   -29.808      2.150      4.032
REMARK INTER + INTRA:         -33.504
REMARK INTER:                 -31.896
REMARK INTRA:                  -1.608
REMARK CONF_INDEPENDENT:        2.088
REMARK UNBOUND:                -1.608
REMARK  7 active torsions:
REMARK  status: ('A' for Active; 'I' for Inactive)
REMARK    1  A    between atoms: C3_3  and  C4_4 
REMARK    2  A    between atoms: C4_4  and  N1_5 
REMARK    3  A    between atoms: N1_5  and  C5_6 
REMARK    4  A    between atoms: C8_9  and  C9_10 
REMARK       I    between atoms: C9_10  and  N2_12 
REMARK    5  A    between atoms: N2_12  and  C10_13 
REMARK    6  A    between atoms: C12_15  and  C13_16 
REMARK    7  A    between atoms: C21_24  and  N3_25 
ROOT
ATOM      1  C9  NON d   1     -41.877  18.815  -4.300  0.00  0.00     0.256 C 
ATOM      2  O1  NON d   1     -41.189  19.175  -5.251  0.00  0.00    -0.267 OA
ATOM      3  N2  NON d   1     -41.498  18.899  -2.971  0.00  0.00    -0.321 N 
ATOM      4  H9  NON d   1     -42.147  18.625  -2.247  0.00  0.00     0.169 HD
ENDROOT
BRANCH   1   5
ATOM      5  C8  NON d   1     -43.228  18.231  -4.619  0.00  0.00     0.032 A 
ATOM      6  C7  NON d   1     -44.085  19.010  -5.410  0.00  0.00     0.019 A 
ATOM      7  C6  NON d   1     -45.347  18.544  -5.809  0.00  0.00     0.024 A 
ATOM      8  C5  NON d   1     -45.793  17.264  -5.470  0.00  0.00     0.008 A 
ATOM      9  C23 NON d   1     -44.954  16.508  -4.632  0.00  0.00     0.024 A 
ATOM     10  C22 NON d   1     -43.684  16.973  -4.218  0.00  0.00     0.019 A 
BRANCH   8  11
ATOM     11  N1  NON d   1     -47.066  16.764  -5.810  0.00  0.00    -0.289 NA
ATOM     12  H6  NON d   1     -47.757  17.508  -5.844  0.00  0.00     0.128 HD
BRANCH  11  13
ATOM     13  C4  NON d   1     -47.564  15.571  -5.112  0.00  0.00     0.134 C 
BRANCH  13  14
ATOM     14  C3  NON d   1     -48.505  15.713  -3.938  0.00  0.00    -0.002 A 
ATOM     15  C2  NON d   1     -48.315  16.534  -2.818  0.00  0.00     0.035 A 
ATOM     16  C1  NON d   1     -47.071  17.403  -2.555  0.00  0.00     0.070 C 
ATOM     17  N5  NON d   1     -49.395  16.329  -2.008  0.00  0.00    -0.278 N 
ATOM     18  N4  NON d   1     -50.295  15.476  -2.541  0.00  0.00    -0.185 NA
ATOM     19  C25 NON d   1     -49.664  16.909  -0.714  0.00  0.00     0.179 C 
ATOM     20  C24 NON d   1     -49.742  15.091  -3.694  0.00  0.00     0.149 A 
ENDBRANCH  13  14
ENDBRANCH  11  13
ENDBRANCH   8  11
ENDBRANCH   1   5
BRANCH   3  21
ATOM     21  C10 NON d   1     -40.307  19.488  -2.449  0.00  0.00     0.057 A 
ATOM     22  C11 NON d   1     -40.293  20.497  -1.470  0.00  0.00     0.043 A 
ATOM     23  C12 NON d   1     -39.104  20.975  -0.870  0.00  0.00    -0.024 A 
ATOM     24  C19 NON d   1     -37.910  20.378  -1.313  0.00  0.00     0.014 A 
ATOM     25  C20 NON d   1     -37.897  19.400  -2.317  0.00  0.00     0.026 A 
ATOM     26  C21 NON d   1     -39.083  18.983  -2.923  0.00  0.00     0.033 A 
BRANCH  23  27
ATOM     27  C13 NON d   1     -39.115  22.034   0.196  0.00  0.00    -0.026 A 
ATOM     28  C14 NON d   1     -37.924  22.573   0.729  0.00  0.00     0.012 A 
ATOM     29  C15 NON d   1     -37.926  23.561   1.726  0.00  0.00     0.001 A 
ATOM     30  C16 NON d   1     -39.125  24.056   2.217  0.00  0.00     0.000 A 
ATOM     31  C17 NON d   1     -40.320  23.559   1.715  0.00  0.00     0.001 A 
ATOM     32  C18 NON d   1     -40.312  22.560   0.729  0.00  0.00     0.012 A 
ENDBRANCH  23  27
BRANCH  26  33
ATOM     33  N3  NON d   1     -39.047  17.994  -3.934  0.00  0.00    -0.301 NA
ATOM     34  H18 NON d   1     -38.873  17.081  -3.520  0.00  0.00     0.124 HD
ATOM     35  H19 NON d   1     -39.912  17.968  -4.469  0.00  0.00     0.124 HD
ENDBRANCH  26  33
ENDBRANCH   3  21
TORSDOF 7
ENDMDL
MODEL 5
REMARK VINA RESULT:   -28.883      4.198      6.024
REMARK INTER + INTRA:         -32.715
REMARK INTER:                 -30.971
REMARK INTRA:                  -1.744
REMARK CONF_INDEPENDENT:        2.088
REMARK UNBOUND:                -1.744
REMARK  7 active torsions:
REMARK  status: ('A' for Active; 'I' for Inactive)
REMARK    1  A    between atoms: C3_3  and  C4_4 
REMARK    2  A    between atoms: C4_4  and  N1_5 
REMARK    3  A    between atoms: N1_5  and  C5_6 
REMARK    4  A    between atoms: C8_9  and  C9_10 
REMARK       I    between atoms: C9_10  and  N2_12 
REMARK    5  A    between atoms: N2_12  and  C10_13 
REMARK    6  A    between atoms: C12_15  and  C13_16 
REMARK    7  A    between atoms: C21_24  and  N3_25 
ROOT
ATOM      1  C9  NON d   1     -41.881  18.609  -3.942  0.00  0.00     0.256 C 
ATOM      2  O1  NON d   1     -41.100  17.782  -3.478  0.00  0.00    -0.267 OA
ATOM      3  N2  NON d   1     -41.604  19.956  -4.101  0.00  0.00    -0.321 N 
ATOM      4  H9  NON d   1     -42.288  20.559  -4.537  0.00  0.00     0.169 HD
ENDROOT
BRANCH   1   5
ATOM      5  C8  NON d   1     -43.240  18.108  -4.353  0.00  0.00     0.032 A 
ATOM      6  C7  NON d   1     -43.978  18.922  -5.225  0.00  0.00     0.019 A 
ATOM      7  C6  NON d   1     -45.235  18.530  -5.712  0.00  0.00     0.024 A 
ATOM      8  C5  NON d   1     -45.792  17.292  -5.382  0.00  0.00     0.008 A 
ATOM      9  C23 NON d   1     -45.074  16.505  -4.465  0.00  0.00     0.024 A 
ATOM     10  C22 NON d   1     -43.811  16.894  -3.962  0.00  0.00     0.019 A 
BRANCH   8  11
ATOM     11  N1  NON d   1     -47.066  16.869  -5.810  0.00  0.00    -0.289 NA
ATOM     12  H6  NON d   1     -47.720  17.647  -5.849  0.00  0.00     0.128 HD
BRANCH  11  13
ATOM     13  C4  NON d   1     -47.658  15.675  -5.192  0.00  0.00     0.134 C 
BRANCH  13  14
ATOM     14  C3  NON d   1     -48.575  15.810  -3.998  0.00  0.00    -0.002 A 
ATOM     15  C2  NON d   1     -48.326  16.565  -2.844  0.00  0.00     0.035 A 
ATOM     16  C1  NON d   1     -47.035  17.354  -2.559  0.00  0.00     0.070 C 
ATOM     17  N5  NON d   1     -49.406  16.378  -2.028  0.00  0.00    -0.278 N 
ATOM     18  N4  NON d   1     -50.357  15.601  -2.586  0.00  0.00    -0.185 NA
ATOM     19  C25 NON d   1     -49.627  16.909  -0.704  0.00  0.00     0.179 C 
ATOM     20  C24 NON d   1     -49.840  15.243  -3.765  0.00  0.00     0.149 A 
ENDBRANCH  13  14
ENDBRANCH  11  13
ENDBRANCH   8  11
ENDBRANCH   1   5
BRANCH   3  21
ATOM     21  C10 NON d   1     -40.363  20.618  -3.854  0.00  0.00     0.057 A 
ATOM     22  C11 NON d   1     -39.767  21.527  -4.744  0.00  0.00     0.043 A 
ATOM     23  C12 NON d   1     -38.607  22.272  -4.425  0.00  0.00    -0.024 A 
ATOM     24  C19 NON d   1     -38.067  22.050  -3.146  0.00  0.00     0.014 A 
ATOM     25  C20 NON d   1     -38.621  21.119  -2.257  0.00  0.00     0.026 A 
ATOM     26  C21 NON d   1     -39.739  20.365  -2.619  0.00  0.00     0.033 A 
BRANCH  23  27
ATOM     27  C13 NON d   1     -38.002  23.261  -5.382  0.00  0.00    -0.026 A 
ATOM     28  C14 NON d   1     -38.279  23.230  -6.766  0.00  0.00     0.012 A 
ATOM     29  C15 NON d   1     -37.718  24.148  -7.667  0.00  0.00     0.001 A 
ATOM     30  C16 NON d   1     -36.866  25.143  -7.210  0.00  0.00     0.000 A 
ATOM     31  C17 NON d   1     -36.573  25.214  -5.854  0.00  0.00     0.001 A 
ATOM     32  C18 NON d   1     -37.126  24.284  -4.961  0.00  0.00     0.012 A 
ENDBRANCH  23  27
BRANCH  26  33
ATOM     33  N3  NON d   1     -40.283  19.429  -1.707  0.00  0.00    -0.301 NA
ATOM     34  H18 NON d   1     -41.276  19.304  -1.890  0.00  0.00     0.124 HD
ATOM     35  H19 NON d   1     -39.809  18.530  -1.760  0.00  0.00     0.124 HD
ENDBRANCH  26  33
ENDBRANCH   3  21
TORSDOF 7
ENDMDL
MODEL 6
REMARK VINA RESULT:   -28.814      2.312      4.093
REMARK INTER + INTRA:         -32.763
REMARK INTER:                 -30.903
REMARK INTRA:                  -1.860
REMARK CONF_INDEPENDENT:        2.088
REMARK UNBOUND:                -1.860
REMARK  7 active torsions:
REMARK  status: ('A' for Active; 'I' for Inactive)
REMARK    1  A    between atoms: C3_3  and  C4_4 
REMARK    2  A    between atoms: C4_4  and  N1_5 
REMARK    3  A    between atoms: N1_5  and  C5_6 
REMARK    4  A    between atoms: C8_9  and  C9_10 
REMARK       I    between atoms: C9_10  and  N2_12 
REMARK    5  A    between atoms: N2_12  and  C10_13 
REMARK    6  A    between atoms: C12_15  and  C13_16 
REMARK    7  A    between atoms: C21_24  and  N3_25 
ROOT
ATOM      1  C9  NON d   1     -41.766  18.261  -3.998  0.00  0.00     0.256 C 
ATOM      2  O1  NON d   1     -40.931  17.364  -4.072  0.00  0.00    -0.267 OA
ATOM      3  N2  NON d   1     -41.538  19.513  -3.452  0.00  0.00    -0.321 N 
ATOM      4  H9  NON d   1     -42.268  20.211  -3.476  0.00  0.00     0.169 HD
ENDROOT
BRANCH   1   5
ATOM      5  C8  NON d   1     -43.140  17.960  -4.537  0.00  0.00     0.032 A 
ATOM      6  C7  NON d   1     -43.663  16.688  -4.263  0.00  0.00     0.019 A 
ATOM      7  C6  NON d   1     -44.953  16.318  -4.674  0.00  0.00     0.024 A 
ATOM      8  C5  NON d   1     -45.792  17.214  -5.341  0.00  0.00     0.008 A 
ATOM      9  C23 NON d   1     -45.243  18.468  -5.662  0.00  0.00     0.024 A 
ATOM     10  C22 NON d   1     -43.942  18.847  -5.260  0.00  0.00     0.019 A 
BRANCH   8  11
ATOM     11  N1  NON d   1     -47.078  16.879  -5.811  0.00  0.00    -0.289 NA
ATOM     12  H6  NON d   1     -47.688  17.692  -5.828  0.00  0.00     0.128 HD
BRANCH  11  13
ATOM     13  C4  NON d   1     -47.745  15.694  -5.257  0.00  0.00     0.134 C 
BRANCH  13  14
ATOM     14  C3  NON d   1     -48.687  15.829  -4.082  0.00  0.00    -0.002 A 
ATOM     15  C2  NON d   1     -48.443  16.546  -2.903  0.00  0.00     0.035 A 
ATOM     16  C1  NON d   1     -47.133  17.283  -2.566  0.00  0.00     0.070 C 
ATOM     17  N5  NON d   1     -49.548  16.375  -2.118  0.00  0.00    -0.278 N 
ATOM     18  N4  NON d   1     -50.510  15.645  -2.720  0.00  0.00    -0.185 NA
ATOM     19  C25 NON d   1     -49.784  16.878  -0.786  0.00  0.00     0.179 C 
ATOM     20  C24 NON d   1     -49.976  15.300  -3.894  0.00  0.00     0.149 A 
ENDBRANCH  13  14
ENDBRANCH  11  13
ENDBRANCH   8  11
ENDBRANCH   1   5
BRANCH   3  21
ATOM     21  C10 NON d   1     -40.299  20.029  -2.964  0.00  0.00     0.057 A 
ATOM     22  C11 NON d   1     -40.177  20.816  -1.806  0.00  0.00     0.043 A 
ATOM     23  C12 NON d   1     -38.929  21.206  -1.265  0.00  0.00    -0.024 A 
ATOM     24  C19 NON d   1     -37.791  20.759  -1.961  0.00  0.00     0.014 A 
ATOM     25  C20 NON d   1     -37.890  20.007  -3.140  0.00  0.00     0.026 A 
ATOM     26  C21 NON d   1     -39.137  19.678  -3.674  0.00  0.00     0.033 A 
BRANCH  23  27
ATOM     27  C13 NON d   1     -38.821  22.024  -0.009  0.00  0.00    -0.026 A 
ATOM     28  C14 NON d   1     -37.620  22.112   0.727  0.00  0.00     0.012 A 
ATOM     29  C15 NON d   1     -37.511  22.872   1.902  0.00  0.00     0.001 A 
ATOM     30  C16 NON d   1     -38.603  23.585   2.376  0.00  0.00     0.000 A 
ATOM     31  C17 NON d   1     -39.802  23.532   1.678  0.00  0.00     0.001 A 
ATOM     32  C18 NON d   1     -39.908  22.757   0.512  0.00  0.00     0.012 A 
ENDBRANCH  23  27
BRANCH  26  33
ATOM     33  N3  NON d   1     -39.214  18.919  -4.866  0.00  0.00    -0.301 NA
ATOM     34  H18 NON d   1     -39.044  17.936  -4.662  0.00  0.00     0.124 HD
ATOM     35  H19 NON d   1     -40.118  19.021  -5.322  0.00  0.00     0.124 HD
ENDBRANCH  26  33
ENDBRANCH   3  21
TORSDOF 7
ENDMDL
MODEL 7
REMARK VINA RESULT:   -28.594      3.244      4.436
REMARK INTER + INTRA:         -32.517
REMARK INTER:                 -30.682
REMARK INTRA:                  -1.835
REMARK CONF_INDEPENDENT:        2.088
REMARK UNBOUND:                -1.835
REMARK  7 active torsions:
REMARK  status: ('A' for Active; 'I' for Inactive)
REMARK    1  A    between atoms: C3_3  and  C4_4 
REMARK    2  A    between atoms: C4_4  and  N1_5 
REMARK    3  A    between atoms: N1_5  and  C5_6 
REMARK    4  A    between atoms: C8_9  and  C9_10 
REMARK       I    between atoms: C9_10  and  N2_12 
REMARK    5  A    between atoms: N2_12  and  C10_13 
REMARK    6  A    between atoms: C12_15  and  C13_16 
REMARK    7  A    between atoms: C21_24  and  N3_25 
ROOT
ATOM      1  C9  NON d   1     -42.109  18.771  -4.068  0.00  0.00     0.256 C 
ATOM      2  O1  NON d   1     -41.383  17.968  -3.487  0.00  0.00    -0.267 OA
ATOM      3  N2  NON d   1     -41.830  20.118  -4.229  0.00  0.00    -0.321 N 
ATOM      4  H9  NON d   1     -42.461  20.698  -4.765  0.00  0.00     0.169 HD
ENDROOT
BRANCH   1   5
ATOM      5  C8  NON d   1     -43.400  18.238  -4.632  0.00  0.00     0.032 A 
ATOM      6  C7  NON d   1     -43.718  16.904  -4.336  0.00  0.00     0.019 A 
ATOM      7  C6  NON d   1     -44.919  16.321  -4.768  0.00  0.00     0.024 A 
ATOM      8  C5  NON d   1     -45.873  17.053  -5.479  0.00  0.00     0.008 A 
ATOM      9  C23 NON d   1     -45.525  18.372  -5.820  0.00  0.00     0.024 A 
ATOM     10  C22 NON d   1     -44.314  18.967  -5.397  0.00  0.00     0.019 A 
BRANCH   8  11
ATOM     11  N1  NON d   1     -47.073  16.504  -5.971  0.00  0.00    -0.289 NA
ATOM     12  H6  NON d   1     -47.759  17.229  -6.164  0.00  0.00     0.128 HD
BRANCH  11  13
ATOM     13  C4  NON d   1     -47.660  15.352  -5.273  0.00  0.00     0.134 C 
BRANCH  13  14
ATOM     14  C3  NON d   1     -48.609  15.567  -4.115  0.00  0.00    -0.002 A 
ATOM     15  C2  NON d   1     -48.395  16.405  -3.013  0.00  0.00     0.035 A 
ATOM     16  C1  NON d   1     -47.115  17.221  -2.753  0.00  0.00     0.070 C 
ATOM     17  N5  NON d   1     -49.494  16.269  -2.213  0.00  0.00    -0.278 N 
ATOM     18  N4  NON d   1     -50.426  15.446  -2.738  0.00  0.00    -0.185 NA
ATOM     19  C25 NON d   1     -49.752  16.892  -0.936  0.00  0.00     0.179 C 
ATOM     20  C24 NON d   1     -49.877  15.008  -3.874  0.00  0.00     0.149 A 
ENDBRANCH  13  14
ENDBRANCH  11  13
ENDBRANCH   8  11
ENDBRANCH   1   5
BRANCH   3  21
ATOM     21  C10 NON d   1     -40.638  20.804  -3.848  0.00  0.00     0.057 A 
ATOM     22  C11 NON d   1     -40.621  22.075  -3.247  0.00  0.00     0.043 A 
ATOM     23  C12 NON d   1     -39.441  22.681  -2.756  0.00  0.00    -0.024 A 
ATOM     24  C19 NON d   1     -38.259  21.933  -2.905  0.00  0.00     0.014 A 
ATOM     25  C20 NON d   1     -38.246  20.682  -3.536  0.00  0.00     0.026 A 
ATOM     26  C21 NON d   1     -39.420  20.132  -4.053  0.00  0.00     0.033 A 
BRANCH  23  27
ATOM     27  C13 NON d   1     -39.450  24.029  -2.091  0.00  0.00    -0.026 A 
ATOM     28  C14 NON d   1     -40.615  24.566  -1.502  0.00  0.00     0.012 A 
ATOM     29  C15 NON d   1     -40.634  25.824  -0.881  0.00  0.00     0.001 A 
ATOM     30  C16 NON d   1     -39.477  26.587  -0.815  0.00  0.00     0.000 A 
ATOM     31  C17 NON d   1     -38.306  26.093  -1.374  0.00  0.00     0.001 A 
ATOM     32  C18 NON d   1     -38.298  24.840  -2.008  0.00  0.00     0.012 A 
ENDBRANCH  23  27
BRANCH  26  33
ATOM     33  N3  NON d   1     -39.385  18.867  -4.687  0.00  0.00    -0.301 NA
ATOM     34  H18 NON d   1     -39.343  18.129  -3.987  0.00  0.00     0.124 HD
ATOM     35  H19 NON d   1     -40.193  18.723  -5.288  0.00  0.00     0.124 HD
ENDBRANCH  26  33
ENDBRANCH   3  21
TORSDOF 7
ENDMDL
MODEL 8
REMARK VINA RESULT:   -28.082      3.190      5.129
REMARK INTER + INTRA:         -31.554
REMARK INTER:                 -30.171
REMARK INTRA:                  -1.383
REMARK CONF_INDEPENDENT:        2.088
REMARK UNBOUND:                -1.383
REMARK  7 active torsions:
REMARK  status: ('A' for Active; 'I' for Inactive)
REMARK    1  A    between atoms: C3_3  and  C4_4 
REMARK    2  A    between atoms: C4_4  and  N1_5 
REMARK    3  A    between atoms: N1_5  and  C5_6 
REMARK    4  A    between atoms: C8_9  and  C9_10 
REMARK       I    between atoms: C9_10  and  N2_12 
REMARK    5  A    between atoms: N2_12  and  C10_13 
REMARK    6  A    between atoms: C12_15  and  C13_16 
REMARK    7  A    between atoms: C21_24  and  N3_25 
ROOT
ATOM      1  C9  NON d   1     -42.122  18.930  -4.057  0.00  0.00     0.256 C 
ATOM      2  O1  NON d   1     -41.734  18.772  -2.902  0.00  0.00    -0.267 OA
ATOM      3  N2  NON d   1     -41.468  19.685  -5.016  0.00  0.00    -0.321 N 
ATOM      4  H9  NON d   1     -41.832  19.722  -5.958  0.00  0.00     0.169 HD
ENDROOT
BRANCH   1   5
ATOM      5  C8  NON d   1     -43.412  18.256  -4.441  0.00  0.00     0.032 A 
ATOM      6  C7  NON d   1     -44.240  18.938  -5.345  0.00  0.00     0.019 A 
ATOM      7  C6  NON d   1     -45.441  18.380  -5.810  0.00  0.00     0.024 A 
ATOM      8  C5  NON d   1     -45.850  17.101  -5.423  0.00  0.00     0.008 A 
ATOM      9  C23 NON d   1     -45.046  16.445  -4.474  0.00  0.00     0.024 A 
ATOM     10  C22 NON d   1     -43.838  17.002  -3.994  0.00  0.00     0.019 A 
BRANCH   8  11
ATOM     11  N1  NON d   1     -47.065  16.513  -5.827  0.00  0.00    -0.289 NA
ATOM     12  H6  NON d   1     -47.777  17.218  -5.997  0.00  0.00     0.128 HD
BRANCH  11  13
ATOM     13  C4  NON d   1     -47.583  15.369  -5.064  0.00  0.00     0.134 C 
BRANCH  13  14
ATOM     14  C3  NON d   1     -48.631  15.580  -3.995  0.00  0.00    -0.002 A 
ATOM     15  C2  NON d   1     -48.522  16.425  -2.882  0.00  0.00     0.035 A 
ATOM     16  C1  NON d   1     -47.278  17.255  -2.517  0.00  0.00     0.070 C 
ATOM     17  N5  NON d   1     -49.685  16.282  -2.180  0.00  0.00    -0.278 N 
ATOM     18  N4  NON d   1     -50.560  15.448  -2.780  0.00  0.00    -0.185 NA
ATOM     19  C25 NON d   1     -50.059  16.908  -0.935  0.00  0.00     0.179 C 
ATOM     20  C24 NON d   1     -49.910  15.010  -3.862  0.00  0.00     0.149 A 
ENDBRANCH  13  14
ENDBRANCH  11  13
ENDBRANCH   8  11
ENDBRANCH   1   5
BRANCH   3  21
ATOM     21  C10 NON d   1     -40.203  20.334  -4.888  0.00  0.00     0.057 A 
ATOM     22  C11 NON d   1     -39.862  21.187  -3.824  0.00  0.00     0.043 A 
ATOM     23  C12 NON d   1     -38.561  21.715  -3.643  0.00  0.00    -0.024 A 
ATOM     24  C19 NON d   1     -37.606  21.337  -4.605  0.00  0.00     0.014 A 
ATOM     25  C20 NON d   1     -37.934  20.521  -5.696  0.00  0.00     0.026 A 
ATOM     26  C21 NON d   1     -39.238  20.054  -5.872  0.00  0.00     0.033 A 
BRANCH  23  27
ATOM     27  C13 NON d   1     -38.211  22.602  -2.482  0.00  0.00    -0.026 A 
ATOM     28  C14 NON d   1     -39.107  23.572  -1.983  0.00  0.00     0.012 A 
ATOM     29  C15 NON d   1     -38.788  24.406  -0.901  0.00  0.00     0.001 A 
ATOM     30  C16 NON d   1     -37.560  24.288  -0.267  0.00  0.00     0.000 A 
ATOM     31  C17 NON d   1     -36.652  23.341  -0.720  0.00  0.00     0.001 A 
ATOM     32  C18 NON d   1     -36.971  22.520  -1.813  0.00  0.00     0.012 A 
ENDBRANCH  23  27
BRANCH  26  33
ATOM     33  N3  NON d   1     -39.547  19.231  -6.981  0.00  0.00    -0.301 NA
ATOM     34  H18 NON d   1     -40.289  18.579  -6.732  0.00  0.00     0.124 HD
ATOM     35  H19 NON d   1     -39.831  19.779  -7.791  0.00  0.00     0.124 HD
ENDBRANCH  26  33
ENDBRANCH   3  21
TORSDOF 7
ENDMDL
