MODEL 1
REMARK VINA RESULT:   -21.308      0.000      0.000
REMARK INTER + INTRA:         -24.049
REMARK INTER:                 -23.397
REMARK INTRA:                  -0.652
REMARK CONF_INDEPENDENT:        2.088
REMARK UNBOUND:                -0.652
REMARK  7 active torsions:
REMARK  status: ('A' for Active; 'I' for Inactive)
REMARK    1  A    between atoms: C2_2  and  C3_3 
REMARK    2  A    between atoms: C3_3  and  C4_4 
REMARK    3  A    between atoms: C4_4  and  S2_6 
REMARK    4  A    between atoms: S2_6  and  C5_7 
REMARK    5  A    between atoms: C5_7  and  C6_8 
REMARK    6  A    between atoms: C6_8  and  C7_10 
REMARK    7  A    between atoms: C10_13  and  N1_14 
REMARK       I    between atoms: N1_14  and  C11_15 
ROOT
ATOM      1  C7  NON d   1     -42.114  17.610  -4.145  0.00  0.00     0.011 A 
ATOM      2  C8  NON d   1     -42.007  17.596  -2.749  0.00  0.00     0.017 A 
ATOM      3  C9  NON d   1     -40.824  18.006  -2.122  0.00  0.00     0.030 A 
ATOM      4  C10 NON d   1     -39.727  18.441  -2.877  0.00  0.00     0.034 A 
ATOM      5  C13 NON d   1     -39.840  18.466  -4.267  0.00  0.00     0.030 A 
ATOM      6  C14 NON d   1     -41.023  18.055  -4.899  0.00  0.00     0.017 A 
ENDROOT
BRANCH   1   7
ATOM      7  C6  NON d   1     -43.384  17.126  -4.774  0.00  0.00     0.169 C 
ATOM      8  O1  NON d   1     -43.355  16.085  -5.429  0.00  0.00    -0.291 OA
BRANCH   7   9
ATOM      9  C5  NON d   1     -44.632  17.976  -4.589  0.00  0.00     0.163 C 
BRANCH   9  10
ATOM     10  S2  NON d   1     -45.921  17.631  -5.810  0.00  0.00    -0.115 SA
BRANCH  10  11
ATOM     11  C4  NON d   1     -47.015  16.467  -5.030  0.00  0.00     0.045 C 
ATOM     12  S1  NON d   1     -47.915  15.286  -5.810  0.00  0.00    -0.077 SA
BRANCH  11  13
ATOM     13  C3  NON d   1     -46.924  16.582  -3.502  0.00  0.00     0.057 C 
BRANCH  13  14
ATOM     14  C2  NON d   1     -48.181  16.874  -2.684  0.00  0.00     0.001 C 
ATOM     15  C1  NON d   1     -49.258  15.778  -2.801  0.00  0.00     0.005 C 
ENDBRANCH  13  14
ENDBRANCH  11  13
ENDBRANCH  10  11
ENDBRANCH   9  10
ENDBRANCH   7   9
ENDBRANCH   1   7
BRANCH   4  16
ATOM     16  N1  NON d   1     -38.562  18.810  -2.174  0.00  0.00    -0.328 N 
ATOM     17  C11 NON d   1     -37.250  18.561  -2.534  0.00  0.00     0.218 C 
ATOM     18  C12 NON d   1     -36.255  19.039  -1.506  0.00  0.00     0.117 C 
ATOM     19  O2  NON d   1     -36.862  18.028  -3.569  0.00  0.00    -0.274 OA
ATOM     20  H12 NON d   1     -38.711  19.319  -1.311  0.00  0.00     0.169 HD
ENDBRANCH   4  16
TORSDOF 7
ENDMDL
MODEL 2
REMARK VINA RESULT:   -21.204      0.919      1.429
REMARK INTER + INTRA:         -23.952
REMARK INTER:                 -23.292
REMARK INTRA:                  -0.661
REMARK CONF_INDEPENDENT:        2.088
REMARK UNBOUND:                -0.661
REMARK  7 active torsions:
REMARK  status: ('A' for Active; 'I' for Inactive)
REMARK    1  A    between atoms: C2_2  and  C3_3 
REMARK    2  A    between atoms: C3_3  and  C4_4 
REMARK    3  A    between atoms: C4_4  and  S2_6 
REMARK    4  A    between atoms: S2_6  and  C5_7 
REMARK    5  A    between atoms: C5_7  and  C6_8 
REMARK    6  A    between atoms: C6_8  and  C7_10 
REMARK    7  A    between atoms: C10_13  and  N1_14 
REMARK       I    between atoms: N1_14  and  C11_15 
ROOT
ATOM      1  C7  NON d   1     -42.195  17.761  -3.997  0.00  0.00     0.011 A 
ATOM      2  C8  NON d   1     -41.049  18.032  -4.753  0.00  0.00     0.017 A 
ATOM      3  C9  NON d   1     -39.900  18.550  -4.144  0.00  0.00     0.030 A 
ATOM      4  C10 NON d   1     -39.874  18.805  -2.767  0.00  0.00     0.034 A 
ATOM      5  C13 NON d   1     -41.013  18.522  -2.012  0.00  0.00     0.030 A 
ATOM      6  C14 NON d   1     -42.166  18.004  -2.620  0.00  0.00     0.017 A 
ENDROOT
BRANCH   1   7
ATOM      7  C6  NON d   1     -43.414  17.243  -4.698  0.00  0.00     0.169 C 
ATOM      8  O1  NON d   1     -43.314  16.219  -5.371  0.00  0.00    -0.291 OA
BRANCH   7   9
ATOM      9  C5  NON d   1     -44.701  18.042  -4.559  0.00  0.00     0.163 C 
BRANCH   9  10
ATOM     10  S2  NON d   1     -45.940  17.630  -5.810  0.00  0.00    -0.115 SA
BRANCH  10  11
ATOM     11  C4  NON d   1     -47.042  16.477  -5.026  0.00  0.00     0.045 C 
ATOM     12  S1  NON d   1     -48.040  15.380  -5.810  0.00  0.00    -0.077 SA
BRANCH  11  13
ATOM     13  C3  NON d   1     -46.858  16.506  -3.502  0.00  0.00     0.057 C 
BRANCH  13  14
ATOM     14  C2  NON d   1     -47.964  17.075  -2.614  0.00  0.00     0.001 C 
ATOM     15  C1  NON d   1     -49.345  16.441  -2.870  0.00  0.00     0.005 C 
ENDBRANCH  13  14
ENDBRANCH  11  13
ENDBRANCH  10  11
ENDBRANCH   9  10
ENDBRANCH   7   9
ENDBRANCH   1   7
BRANCH   4  16
ATOM     16  N1  NON d   1     -38.691  19.354  -2.231  0.00  0.00    -0.328 N 
ATOM     17  C11 NON d   1     -37.808  20.217  -2.854  0.00  0.00     0.218 C 
ATOM     18  C12 NON d   1     -36.605  20.546  -2.005  0.00  0.00     0.117 C 
ATOM     19  O2  NON d   1     -37.932  20.714  -3.970  0.00  0.00    -0.274 OA
ATOM     20  H12 NON d   1     -38.472  19.084  -1.280  0.00  0.00     0.169 HD
ENDBRANCH   4  16
TORSDOF 7
ENDMDL
MODEL 3
REMARK VINA RESULT:   -19.991      2.084      2.439
REMARK INTER + INTRA:         -22.651
REMARK INTER:                 -22.079
REMARK INTRA:                  -0.573
REMARK CONF_INDEPENDENT:        2.088
REMARK UNBOUND:                -0.573
REMARK  7 active torsions:
REMARK  status: ('A' for Active; 'I' for Inactive)
REMARK    1  A    between atoms: C2_2  and  C3_3 
REMARK    2  A    between atoms: C3_3  and  C4_4 
REMARK    3  A    between atoms: C4_4  and  S2_6 
REMARK    4  A    between atoms: S2_6  and  C5_7 
REMARK    5  A    between atoms: C5_7  and  C6_8 
REMARK    6  A    between atoms: C6_8  and  C7_10 
REMARK    7  A    between atoms: C10_13  and  N1_14 
REMARK       I    between atoms: N1_14  and  C11_15 
ROOT
ATOM      1  C7  NON d   1     -42.245  18.121  -4.585  0.00  0.00     0.011 A 
ATOM      2  C8  NON d   1     -41.120  17.976  -3.765  0.00  0.00     0.017 A 
ATOM      3  C9  NON d   1     -39.869  18.444  -4.185  0.00  0.00     0.030 A 
ATOM      4  C10 NON d   1     -39.719  19.068  -5.429  0.00  0.00     0.034 A 
ATOM      5  C13 NON d   1     -40.844  19.224  -6.239  0.00  0.00     0.030 A 
ATOM      6  C14 NON d   1     -42.099  18.755  -5.824  0.00  0.00     0.017 A 
ENDROOT
BRANCH   1   7
ATOM      7  C6  NON d   1     -43.556  17.571  -4.112  0.00  0.00     0.169 C 
ATOM      8  O1  NON d   1     -43.558  16.505  -3.498  0.00  0.00    -0.291 OA
BRANCH   7   9
ATOM      9  C5  NON d   1     -44.815  18.354  -4.453  0.00  0.00     0.163 C 
BRANCH   9  10
ATOM     10  S2  NON d   1     -45.765  17.630  -5.810  0.00  0.00    -0.115 SA
BRANCH  10  11
ATOM     11  C4  NON d   1     -46.948  16.551  -5.040  0.00  0.00     0.045 C 
ATOM     12  S1  NON d   1     -47.840  15.358  -5.810  0.00  0.00    -0.077 SA
BRANCH  11  13
ATOM     13  C3  NON d   1     -46.948  16.750  -3.518  0.00  0.00     0.057 C 
BRANCH  13  14
ATOM     14  C2  NON d   1     -48.098  16.194  -2.678  0.00  0.00     0.001 C 
ATOM     15  C1  NON d   1     -49.456  16.216  -3.404  0.00  0.00     0.005 C 
ENDBRANCH  13  14
ENDBRANCH  11  13
ENDBRANCH  10  11
ENDBRANCH   9  10
ENDBRANCH   7   9
ENDBRANCH   1   7
BRANCH   4  16
ATOM     16  N1  NON d   1     -38.422  19.486  -5.794  0.00  0.00    -0.328 N 
ATOM     17  C11 NON d   1     -37.727  19.160  -6.943  0.00  0.00     0.218 C 
ATOM     18  C12 NON d   1     -36.329  19.729  -6.969  0.00  0.00     0.117 C 
ATOM     19  O2  NON d   1     -38.141  18.496  -7.888  0.00  0.00    -0.274 OA
ATOM     20  H12 NON d   1     -37.956  20.098  -5.135  0.00  0.00     0.169 HD
ENDBRANCH   4  16
TORSDOF 7
ENDMDL
MODEL 4
REMARK VINA RESULT:   -19.958      1.712      1.951
REMARK INTER + INTRA:         -22.668
REMARK INTER:                 -22.046
REMARK INTRA:                  -0.622
REMARK CONF_INDEPENDENT:        2.088
REMARK UNBOUND:                -0.622
REMARK  7 active torsions:
REMARK  status: ('A' for Active; 'I' for Inactive)
REMARK    1  A    between atoms: C2_2  and  C3_3 
REMARK    2  A    between atoms: C3_3  and  C4_4 
REMARK    3  A    between atoms: C4_4  and  S2_6 
REMARK    4  A    between atoms: S2_6  and  C5_7 
REMARK    5  A    between atoms: C5_7  and  C6_8 
REMARK    6  A    between atoms: C6_8  and  C7_10 
REMARK    7  A    between atoms: C10_13  and  N1_14 
REMARK       I    between atoms: N1_14  and  C11_15 
ROOT
ATOM      1  C7  NON d   1     -42.260  18.273  -4.200  0.00  0.00     0.011 A 
ATOM      2  C8  NON d   1     -42.055  19.466  -4.902  0.00  0.00     0.017 A 
ATOM      3  C9  NON d   1     -40.937  20.266  -4.636  0.00  0.00     0.030 A 
ATOM      4  C10 NON d   1     -40.001  19.887  -3.665  0.00  0.00     0.034 A 
ATOM      5  C13 NON d   1     -40.200  18.691  -2.975  0.00  0.00     0.030 A 
ATOM      6  C14 NON d   1     -41.320  17.888  -3.238  0.00  0.00     0.017 A 
ENDROOT
BRANCH   1   7
ATOM      7  C6  NON d   1     -43.490  17.469  -4.491  0.00  0.00     0.169 C 
ATOM      8  O1  NON d   1     -43.365  16.269  -4.727  0.00  0.00    -0.291 OA
BRANCH   7   9
ATOM      9  C5  NON d   1     -44.824  18.201  -4.509  0.00  0.00     0.163 C 
BRANCH   9  10
ATOM     10  S2  NON d   1     -45.938  17.630  -5.813  0.00  0.00    -0.115 SA
BRANCH  10  11
ATOM     11  C4  NON d   1     -47.038  16.475  -5.027  0.00  0.00     0.045 C 
ATOM     12  S1  NON d   1     -48.035  15.377  -5.809  0.00  0.00    -0.077 SA
BRANCH  11  13
ATOM     13  C3  NON d   1     -46.851  16.505  -3.504  0.00  0.00     0.057 C 
BRANCH  13  14
ATOM     14  C2  NON d   1     -48.071  16.620  -2.591  0.00  0.00     0.001 C 
ATOM     15  C1  NON d   1     -49.131  15.529  -2.841  0.00  0.00     0.005 C 
ENDBRANCH  13  14
ENDBRANCH  11  13
ENDBRANCH  10  11
ENDBRANCH   9  10
ENDBRANCH   7   9
ENDBRANCH   1   7
BRANCH   4  16
ATOM     16  N1  NON d   1     -38.917  20.759  -3.433  0.00  0.00    -0.328 N 
ATOM     17  C11 NON d   1     -37.960  21.168  -4.343  0.00  0.00     0.218 C 
ATOM     18  C12 NON d   1     -36.900  22.050  -3.729  0.00  0.00     0.117 C 
ATOM     19  O2  NON d   1     -37.921  20.896  -5.539  0.00  0.00    -0.274 OA
ATOM     20  H12 NON d   1     -38.840  21.124  -2.492  0.00  0.00     0.169 HD
ENDBRANCH   4  16
TORSDOF 7
ENDMDL
MODEL 5
REMARK VINA RESULT:   -19.429      2.483      2.732
REMARK INTER + INTRA:         -22.015
REMARK INTER:                 -21.518
REMARK INTRA:                  -0.497
REMARK CONF_INDEPENDENT:        2.088
REMARK UNBOUND:                -0.497
REMARK  7 active torsions:
REMARK  status: ('A' for Active; 'I' for Inactive)
REMARK    1  A    between atoms: C2_2  and  C3_3 
REMARK    2  A    between atoms: C3_3  and  C4_4 
REMARK    3  A    between atoms: C4_4  and  S2_6 
REMARK    4  A    between atoms: S2_6  and  C5_7 
REMARK    5  A    between atoms: C5_7  and  C6_8 
REMARK    6  A    between atoms: C6_8  and  C7_10 
REMARK    7  A    between atoms: C10_13  and  N1_14 
REMARK       I    between atoms: N1_14  and  C11_15 
ROOT
ATOM      1  C7  NON d   1     -41.982  18.414  -4.931  0.00  0.00     0.011 A 
ATOM      2  C8  NON d   1     -42.266  19.780  -4.817  0.00  0.00     0.017 A 
ATOM      3  C9  NON d   1     -41.230  20.715  -4.697  0.00  0.00     0.030 A 
ATOM      4  C10 NON d   1     -39.892  20.303  -4.692  0.00  0.00     0.034 A 
ATOM      5  C13 NON d   1     -39.610  18.943  -4.819  0.00  0.00     0.030 A 
ATOM      6  C14 NON d   1     -40.644  18.003  -4.938  0.00  0.00     0.017 A 
ENDROOT
BRANCH   1   7
ATOM      7  C6  NON d   1     -43.122  17.447  -5.018  0.00  0.00     0.169 C 
ATOM      8  O1  NON d   1     -42.904  16.320  -5.460  0.00  0.00    -0.291 OA
BRANCH   7   9
ATOM      9  C5  NON d   1     -44.496  17.934  -4.582  0.00  0.00     0.163 C 
BRANCH   9  10
ATOM     10  S2  NON d   1     -45.788  17.628  -5.810  0.00  0.00    -0.115 SA
BRANCH  10  11
ATOM     11  C4  NON d   1     -46.932  16.514  -5.030  0.00  0.00     0.045 C 
ATOM     12  S1  NON d   1     -47.888  15.379  -5.810  0.00  0.00    -0.077 SA
BRANCH  11  13
ATOM     13  C3  NON d   1     -46.829  16.619  -3.502  0.00  0.00     0.057 C 
BRANCH  13  14
ATOM     14  C2  NON d   1     -48.082  16.460  -2.642  0.00  0.00     0.001 C 
ATOM     15  C1  NON d   1     -49.394  16.637  -3.431  0.00  0.00     0.005 C 
ENDBRANCH  13  14
ENDBRANCH  11  13
ENDBRANCH  10  11
ENDBRANCH   9  10
ENDBRANCH   7   9
ENDBRANCH   1   7
BRANCH   4  16
ATOM     16  N1  NON d   1     -38.907  21.301  -4.538  0.00  0.00    -0.328 N 
ATOM     17  C11 NON d   1     -38.994  22.630  -4.906  0.00  0.00     0.218 C 
ATOM     18  C12 NON d   1     -37.718  23.397  -4.658  0.00  0.00     0.117 C 
ATOM     19  O2  NON d   1     -39.975  23.199  -5.375  0.00  0.00    -0.274 OA
ATOM     20  H12 NON d   1     -38.041  21.001  -4.105  0.00  0.00     0.169 HD
ENDBRANCH   4  16
TORSDOF 7
ENDMDL
