MODEL 1
REMARK VINA RESULT:   -30.181      0.000      0.000
REMARK INTER + INTRA:         -33.523
REMARK INTER:                 -31.673
REMARK INTRA:                  -1.850
REMARK CONF_INDEPENDENT:        1.492
REMARK UNBOUND:                -1.850
REMARK  5 active torsions:
REMARK  status: ('A' for Active; 'I' for Inactive)
REMARK    1  A    between atoms: N3_3  and  C1_4 
REMARK    2  A    between atoms: C4_7  and  C5_8 
REMARK       I    between atoms: C5_8  and  N4_10 
REMARK    3  A    between atoms: N4_10  and  C6_11 
REMARK    4  A    between atoms: C8_13  and  C9_14 
REMARK    5  A    between atoms: C15_21  and  N5_22 
ROOT
ATOM      1  N1  NON d   1     -48.150  15.051  -4.718  0.00  0.00     0.068 N 
ATOM      2  N2  NON d   1     -47.622  15.923  -5.238  0.00  0.00    -0.162 NA
ATOM      3  N3  NON d   1     -47.066  16.879  -5.810  0.00  0.00    -0.073 NA
ENDROOT
BRANCH   3   4
ATOM      4  C1  NON d   1     -45.852  17.313  -5.245  0.00  0.00     0.093 A 
ATOM      5  C2  NON d   1     -45.279  16.508  -4.250  0.00  0.00     0.035 A 
ATOM      6  C3  NON d   1     -44.057  16.841  -3.641  0.00  0.00     0.019 A 
ATOM      7  C4  NON d   1     -43.379  17.997  -4.030  0.00  0.00     0.032 A 
ATOM      8  C16 NON d   1     -43.946  18.807  -5.027  0.00  0.00     0.019 A 
ATOM      9  C17 NON d   1     -45.162  18.467  -5.632  0.00  0.00     0.035 A 
BRANCH   7  10
ATOM     10  C5  NON d   1     -42.092  18.462  -3.425  0.00  0.00     0.256 C 
ATOM     11  O1  NON d   1     -41.596  17.744  -2.559  0.00  0.00    -0.267 OA
ATOM     12  N4  NON d   1     -41.551  19.649  -3.889  0.00  0.00    -0.321 N 
ATOM     13  H3  NON d   1     -41.972  20.065  -4.707  0.00  0.00     0.169 HD
BRANCH  12  14
ATOM     14  C6  NON d   1     -40.392  20.329  -3.402  0.00  0.00     0.057 A 
ATOM     15  C7  NON d   1     -40.469  21.744  -3.396  0.00  0.00     0.044 A 
ATOM     16  C8  NON d   1     -39.409  22.563  -2.951  0.00  0.00    -0.017 A 
ATOM     17  C13 NON d   1     -38.266  21.913  -2.471  0.00  0.00     0.014 A 
ATOM     18  C14 NON d   1     -38.187  20.520  -2.433  0.00  0.00     0.026 A 
ATOM     19  C15 NON d   1     -39.218  19.710  -2.923  0.00  0.00     0.033 A 
BRANCH  16  20
ATOM     20  C9  NON d   1     -39.519  24.046  -2.978  0.00  0.00     0.015 A 
ATOM     21  C10 NON d   1     -38.683  25.005  -2.422  0.00  0.00     0.020 A 
ATOM     22  C11 NON d   1     -39.110  26.346  -2.665  0.00  0.00     0.008 A 
ATOM     23  C12 NON d   1     -40.271  26.389  -3.398  0.00  0.00     0.050 A 
ATOM     24  S1  NON d   1     -40.834  24.830  -3.783  0.00  0.00    -0.101 SA
ENDBRANCH  16  20
BRANCH  19  25
ATOM     25  N5  NON d   1     -39.123  18.335  -2.629  0.00  0.00    -0.301 NA
ATOM     26  H10 NON d   1     -39.517  18.137  -1.703  0.00  0.00     0.124 HD
ATOM     27  H11 NON d   1     -39.579  17.747  -3.320  0.00  0.00     0.124 HD
ENDBRANCH  19  25
ENDBRANCH  12  14
ENDBRANCH   7  10
ENDBRANCH   3   4
TORSDOF 5
ENDMDL
MODEL 2
REMARK VINA RESULT:   -29.711      2.416      2.527
REMARK INTER + INTRA:         -33.093
REMARK INTER:                 -31.202
REMARK INTRA:                  -1.891
REMARK CONF_INDEPENDENT:        1.492
REMARK UNBOUND:                -1.891
REMARK  5 active torsions:
REMARK  status: ('A' for Active; 'I' for Inactive)
REMARK    1  A    between atoms: N3_3  and  C1_4 
REMARK    2  A    between atoms: C4_7  and  C5_8 
REMARK       I    between atoms: C5_8  and  N4_10 
REMARK    3  A    between atoms: N4_10  and  C6_11 
REMARK    4  A    between atoms: C8_13  and  C9_14 
REMARK    5  A    between atoms: C15_21  and  N5_22 
ROOT
ATOM      1  N1  NON d   1     -47.580  15.503  -5.526  0.00  0.00     0.068 N 
ATOM      2  N2  NON d   1     -47.068  16.505  -5.730  0.00  0.00    -0.162 NA
ATOM      3  N3  NON d   1     -46.529  17.605  -5.953  0.00  0.00    -0.073 NA
ENDROOT
BRANCH   3   4
ATOM      4  C1  NON d   1     -45.271  17.808  -5.355  0.00  0.00     0.093 A 
ATOM      5  C2  NON d   1     -44.706  16.728  -4.660  0.00  0.00     0.035 A 
ATOM      6  C3  NON d   1     -43.444  16.821  -4.048  0.00  0.00     0.019 A 
ATOM      7  C4  NON d   1     -42.718  18.010  -4.131  0.00  0.00     0.032 A 
ATOM      8  C16 NON d   1     -43.277  19.094  -4.827  0.00  0.00     0.019 A 
ATOM      9  C17 NON d   1     -44.533  18.992  -5.437  0.00  0.00     0.035 A 
BRANCH   7  10
ATOM     10  C5  NON d   1     -41.384  18.228  -3.489  0.00  0.00     0.256 C 
ATOM     11  O1  NON d   1     -40.633  17.257  -3.431  0.00  0.00    -0.267 OA
ATOM     12  N4  NON d   1     -41.090  19.498  -3.025  0.00  0.00    -0.321 N 
ATOM     13  H3  NON d   1     -41.725  20.243  -3.270  0.00  0.00     0.169 HD
BRANCH  12  14
ATOM     14  C6  NON d   1     -39.929  19.916  -2.303  0.00  0.00     0.057 A 
ATOM     15  C7  NON d   1     -40.149  20.892  -1.300  0.00  0.00     0.044 A 
ATOM     16  C8  NON d   1     -39.108  21.413  -0.502  0.00  0.00    -0.017 A 
ATOM     17  C13 NON d   1     -37.826  20.895  -0.717  0.00  0.00     0.014 A 
ATOM     18  C14 NON d   1     -37.596  19.905  -1.674  0.00  0.00     0.026 A 
ATOM     19  C15 NON d   1     -38.619  19.427  -2.499  0.00  0.00     0.033 A 
BRANCH  16  20
ATOM     20  C9  NON d   1     -39.375  22.453   0.528  0.00  0.00     0.015 A 
ATOM     21  C10 NON d   1     -38.481  23.192   1.290  0.00  0.00     0.020 A 
ATOM     22  C11 NON d   1     -39.113  24.113   2.180  0.00  0.00     0.008 A 
ATOM     23  C12 NON d   1     -40.482  24.058   2.086  0.00  0.00     0.050 A 
ATOM     24  S1  NON d   1     -40.992  22.907   0.942  0.00  0.00    -0.101 SA
ENDBRANCH  16  20
BRANCH  19  25
ATOM     25  N5  NON d   1     -38.320  18.281  -3.264  0.00  0.00    -0.301 NA
ATOM     26  H10 NON d   1     -38.524  17.430  -2.730  0.00  0.00     0.124 HD
ATOM     27  H11 NON d   1     -38.817  18.251  -4.148  0.00  0.00     0.124 HD
ENDBRANCH  19  25
ENDBRANCH  12  14
ENDBRANCH   7  10
ENDBRANCH   3   4
TORSDOF 5
ENDMDL
MODEL 3
REMARK VINA RESULT:   -29.289      4.591      4.947
REMARK INTER + INTRA:         -32.685
REMARK INTER:                 -30.780
REMARK INTRA:                  -1.905
REMARK CONF_INDEPENDENT:        1.492
REMARK UNBOUND:                -1.905
REMARK  5 active torsions:
REMARK  status: ('A' for Active; 'I' for Inactive)
REMARK    1  A    between atoms: N3_3  and  C1_4 
REMARK    2  A    between atoms: C4_7  and  C5_8 
REMARK       I    between atoms: C5_8  and  N4_10 
REMARK    3  A    between atoms: N4_10  and  C6_11 
REMARK    4  A    between atoms: C8_13  and  C9_14 
REMARK    5  A    between atoms: C15_21  and  N5_22 
ROOT
ATOM      1  N1  NON d   1     -47.815  16.532  -6.330  0.00  0.00     0.068 N 
ATOM      2  N2  NON d   1     -47.086  16.505  -5.449  0.00  0.00    -0.162 NA
ATOM      3  N3  NON d   1     -46.301  16.457  -4.484  0.00  0.00    -0.073 NA
ENDROOT
BRANCH   3   4
ATOM      4  C1  NON d   1     -45.058  17.090  -4.669  0.00  0.00     0.093 A 
ATOM      5  C2  NON d   1     -45.067  18.385  -5.208  0.00  0.00     0.035 A 
ATOM      6  C3  NON d   1     -43.881  19.112  -5.409  0.00  0.00     0.019 A 
ATOM      7  C4  NON d   1     -42.653  18.547  -5.061  0.00  0.00     0.032 A 
ATOM      8  C16 NON d   1     -42.637  17.252  -4.519  0.00  0.00     0.019 A 
ATOM      9  C17 NON d   1     -43.823  16.536  -4.318  0.00  0.00     0.035 A 
BRANCH   7  10
ATOM     10  C5  NON d   1     -41.331  19.218  -5.264  0.00  0.00     0.256 C 
ATOM     11  O1  NON d   1     -40.723  19.559  -4.251  0.00  0.00    -0.267 OA
ATOM     12  N4  NON d   1     -40.886  19.390  -6.563  0.00  0.00    -0.321 N 
ATOM     13  H3  NON d   1     -41.403  18.930  -7.298  0.00  0.00     0.169 HD
BRANCH  12  14
ATOM     14  C6  NON d   1     -39.711  20.079  -6.998  0.00  0.00     0.057 A 
ATOM     15  C7  NON d   1     -39.831  20.779  -8.225  0.00  0.00     0.044 A 
ATOM     16  C8  NON d   1     -38.763  21.504  -8.795  0.00  0.00    -0.017 A 
ATOM     17  C13 NON d   1     -37.564  21.538  -8.074  0.00  0.00     0.014 A 
ATOM     18  C14 NON d   1     -37.440  20.886  -6.846  0.00  0.00     0.026 A 
ATOM     19  C15 NON d   1     -38.483  20.125  -6.306  0.00  0.00     0.033 A 
BRANCH  16  20
ATOM     20  C9  NON d   1     -38.920  22.211 -10.094  0.00  0.00     0.015 A 
ATOM     21  C10 NON d   1     -39.758  23.266 -10.431  0.00  0.00     0.020 A 
ATOM     22  C11 NON d   1     -39.624  23.691 -11.788  0.00  0.00     0.008 A 
ATOM     23  C12 NON d   1     -38.690  22.950 -12.468  0.00  0.00     0.050 A 
ATOM     24  S1  NON d   1     -37.989  21.755 -11.479  0.00  0.00    -0.101 SA
ENDBRANCH  16  20
BRANCH  19  25
ATOM     25  N5  NON d   1     -38.321  19.704  -4.971  0.00  0.00    -0.301 NA
ATOM     26  H10 NON d   1     -38.708  20.401  -4.326  0.00  0.00     0.124 HD
ATOM     27  H11 NON d   1     -38.747  18.802  -4.784  0.00  0.00     0.124 HD
ENDBRANCH  19  25
ENDBRANCH  12  14
ENDBRANCH   7  10
ENDBRANCH   3   4
TORSDOF 5
ENDMDL
MODEL 4
REMARK VINA RESULT:   -29.261      4.318      4.604
REMARK INTER + INTRA:         -32.654
REMARK INTER:                 -30.752
REMARK INTRA:                  -1.902
REMARK CONF_INDEPENDENT:        1.492
REMARK UNBOUND:                -1.902
REMARK  5 active torsions:
REMARK  status: ('A' for Active; 'I' for Inactive)
REMARK    1  A    between atoms: N3_3  and  C1_4 
REMARK    2  A    between atoms: C4_7  and  C5_8 
REMARK       I    between atoms: C5_8  and  N4_10 
REMARK    3  A    between atoms: N4_10  and  C6_11 
REMARK    4  A    between atoms: C8_13  and  C9_14 
REMARK    5  A    between atoms: C15_21  and  N5_22 
ROOT
ATOM      1  N1  NON d   1     -47.809  16.528  -6.316  0.00  0.00     0.068 N 
ATOM      2  N2  NON d   1     -47.065  16.505  -5.447  0.00  0.00    -0.162 NA
ATOM      3  N3  NON d   1     -46.263  16.461  -4.497  0.00  0.00    -0.073 NA
ENDROOT
BRANCH   3   4
ATOM      4  C1  NON d   1     -45.073  17.196  -4.660  0.00  0.00     0.093 A 
ATOM      5  C2  NON d   1     -43.888  16.621  -4.180  0.00  0.00     0.035 A 
ATOM      6  C3  NON d   1     -42.645  17.263  -4.315  0.00  0.00     0.019 A 
ATOM      7  C4  NON d   1     -42.570  18.504  -4.949  0.00  0.00     0.032 A 
ATOM      8  C16 NON d   1     -43.753  19.085  -5.435  0.00  0.00     0.019 A 
ATOM      9  C17 NON d   1     -44.987  18.437  -5.299  0.00  0.00     0.035 A 
BRANCH   7  10
ATOM     10  C5  NON d   1     -41.307  19.289  -5.117  0.00  0.00     0.256 C 
ATOM     11  O1  NON d   1     -40.736  19.645  -4.089  0.00  0.00    -0.267 OA
ATOM     12  N4  NON d   1     -40.870  19.541  -6.406  0.00  0.00    -0.321 N 
ATOM     13  H3  NON d   1     -41.342  19.065  -7.161  0.00  0.00     0.169 HD
BRANCH  12  14
ATOM     14  C6  NON d   1     -39.754  20.339  -6.808  0.00  0.00     0.057 A 
ATOM     15  C7  NON d   1     -39.922  21.064  -8.014  0.00  0.00     0.044 A 
ATOM     16  C8  NON d   1     -38.914  21.894  -8.551  0.00  0.00    -0.017 A 
ATOM     17  C13 NON d   1     -37.728  22.006  -7.816  0.00  0.00     0.014 A 
ATOM     18  C14 NON d   1     -37.560  21.329  -6.606  0.00  0.00     0.026 A 
ATOM     19  C15 NON d   1     -38.539  20.467  -6.101  0.00  0.00     0.033 A 
BRANCH  16  20
ATOM     20  C9  NON d   1     -39.119  22.624  -9.830  0.00  0.00     0.015 A 
ATOM     21  C10 NON d   1     -39.053  22.156 -11.136  0.00  0.00     0.020 A 
ATOM     22  C11 NON d   1     -39.321  23.159 -12.116  0.00  0.00     0.008 A 
ATOM     23  C12 NON d   1     -39.582  24.379 -11.544  0.00  0.00     0.050 A 
ATOM     24  S1  NON d   1     -39.500  24.311  -9.846  0.00  0.00    -0.101 SA
ENDBRANCH  16  20
BRANCH  19  25
ATOM     25  N5  NON d   1     -38.355  20.020  -4.778  0.00  0.00    -0.301 NA
ATOM     26  H10 NON d   1     -38.803  20.663  -4.116  0.00  0.00     0.124 HD
ATOM     27  H11 NON d   1     -38.705  19.080  -4.622  0.00  0.00     0.124 HD
ENDBRANCH  19  25
ENDBRANCH  12  14
ENDBRANCH   7  10
ENDBRANCH   3   4
TORSDOF 5
ENDMDL
MODEL 5
REMARK VINA RESULT:   -29.243      1.614      1.678
REMARK INTER + INTRA:         -32.143
REMARK INTER:                 -30.734
REMARK INTRA:                  -1.409
REMARK CONF_INDEPENDENT:        1.492
REMARK UNBOUND:                -1.409
REMARK  5 active torsions:
REMARK  status: ('A' for Active; 'I' for Inactive)
REMARK    1  A    between atoms: N3_3  and  C1_4 
REMARK    2  A    between atoms: C4_7  and  C5_8 
REMARK       I    between atoms: C5_8  and  N4_10 
REMARK    3  A    between atoms: N4_10  and  C6_11 
REMARK    4  A    between atoms: C8_13  and  C9_14 
REMARK    5  A    between atoms: C15_21  and  N5_22 
ROOT
ATOM      1  N1  NON d   1     -47.924  14.996  -4.619  0.00  0.00     0.068 N 
ATOM      2  N2  NON d   1     -47.504  15.896  -5.188  0.00  0.00    -0.162 NA
ATOM      3  N3  NON d   1     -47.065  16.880  -5.810  0.00  0.00    -0.073 NA
ENDROOT
BRANCH   3   4
ATOM      4  C1  NON d   1     -45.828  17.387  -5.369  0.00  0.00     0.093 A 
ATOM      5  C2  NON d   1     -45.102  16.611  -4.454  0.00  0.00     0.035 A 
ATOM      6  C3  NON d   1     -43.846  17.017  -3.972  0.00  0.00     0.019 A 
ATOM      7  C4  NON d   1     -43.289  18.220  -4.411  0.00  0.00     0.032 A 
ATOM      8  C16 NON d   1     -44.010  19.000  -5.329  0.00  0.00     0.019 A 
ATOM      9  C17 NON d   1     -45.259  18.587  -5.808  0.00  0.00     0.035 A 
BRANCH   7  10
ATOM     10  C5  NON d   1     -41.977  18.762  -3.937  0.00  0.00     0.256 C 
ATOM     11  O1  NON d   1     -41.214  17.966  -3.393  0.00  0.00    -0.267 OA
ATOM     12  N4  NON d   1     -41.715  20.103  -4.156  0.00  0.00    -0.321 N 
ATOM     13  H3  NON d   1     -42.355  20.612  -4.748  0.00  0.00     0.169 HD
BRANCH  12  14
ATOM     14  C6  NON d   1     -40.582  20.854  -3.715  0.00  0.00     0.057 A 
ATOM     15  C7  NON d   1     -40.235  21.968  -4.519  0.00  0.00     0.044 A 
ATOM     16  C8  NON d   1     -39.140  22.809  -4.224  0.00  0.00    -0.017 A 
ATOM     17  C13 NON d   1     -38.413  22.518  -3.064  0.00  0.00     0.014 A 
ATOM     18  C14 NON d   1     -38.763  21.447  -2.240  0.00  0.00     0.026 A 
ATOM     19  C15 NON d   1     -39.817  20.584  -2.561  0.00  0.00     0.033 A 
BRANCH  16  20
ATOM     20  C9  NON d   1     -38.795  23.959  -5.102  0.00  0.00     0.015 A 
ATOM     21  C10 NON d   1     -37.945  24.009  -6.199  0.00  0.00     0.020 A 
ATOM     22  C11 NON d   1     -37.869  25.300  -6.805  0.00  0.00     0.008 A 
ATOM     23  C12 NON d   1     -38.659  26.218  -6.156  0.00  0.00     0.050 A 
ATOM     24  S1  NON d   1     -39.475  25.526  -4.833  0.00  0.00    -0.101 SA
ENDBRANCH  16  20
BRANCH  19  25
ATOM     25  N5  NON d   1     -40.216  19.684  -1.551  0.00  0.00    -0.301 NA
ATOM     26  H10 NON d   1     -40.109  18.716  -1.872  0.00  0.00     0.124 HD
ATOM     27  H11 NON d   1     -39.706  19.809  -0.683  0.00  0.00     0.124 HD
ENDBRANCH  19  25
ENDBRANCH  12  14
ENDBRANCH   7  10
ENDBRANCH   3   4
TORSDOF 5
ENDMDL
MODEL 6
REMARK VINA RESULT:   -28.826      1.876      2.385
REMARK INTER + INTRA:         -32.197
REMARK INTER:                 -30.318
REMARK INTRA:                  -1.879
REMARK CONF_INDEPENDENT:        1.492
REMARK UNBOUND:                -1.879
REMARK  5 active torsions:
REMARK  status: ('A' for Active; 'I' for Inactive)
REMARK    1  A    between atoms: N3_3  and  C1_4 
REMARK    2  A    between atoms: C4_7  and  C5_8 
REMARK       I    between atoms: C5_8  and  N4_10 
REMARK    3  A    between atoms: N4_10  and  C6_11 
REMARK    4  A    between atoms: C8_13  and  C9_14 
REMARK    5  A    between atoms: C15_21  and  N5_22 
ROOT
ATOM      1  N1  NON d   1     -47.815  16.631  -6.476  0.00  0.00     0.068 N 
ATOM      2  N2  NON d   1     -47.121  16.505  -5.575  0.00  0.00    -0.162 NA
ATOM      3  N3  NON d   1     -46.372  16.349  -4.593  0.00  0.00    -0.073 NA
ENDROOT
BRANCH   3   4
ATOM      4  C1  NON d   1     -45.201  17.129  -4.581  0.00  0.00     0.093 A 
ATOM      5  C2  NON d   1     -45.179  18.272  -5.394  0.00  0.00     0.035 A 
ATOM      6  C3  NON d   1     -44.067  19.130  -5.435  0.00  0.00     0.019 A 
ATOM      7  C4  NON d   1     -42.949  18.856  -4.645  0.00  0.00     0.032 A 
ATOM      8  C16 NON d   1     -42.965  17.716  -3.826  0.00  0.00     0.019 A 
ATOM      9  C17 NON d   1     -44.079  16.867  -3.788  0.00  0.00     0.035 A 
BRANCH   7  10
ATOM     10  C5  NON d   1     -41.701  19.683  -4.636  0.00  0.00     0.256 C 
ATOM     11  O1  NON d   1     -40.657  19.111  -4.942  0.00  0.00    -0.267 OA
ATOM     12  N4  NON d   1     -41.815  21.021  -4.302  0.00  0.00    -0.321 N 
ATOM     13  H3  NON d   1     -42.746  21.404  -4.223  0.00  0.00     0.169 HD
BRANCH  12  14
ATOM     14  C6  NON d   1     -40.761  21.972  -4.140  0.00  0.00     0.057 A 
ATOM     15  C7  NON d   1     -40.980  22.968  -3.156  0.00  0.00     0.044 A 
ATOM     16  C8  NON d   1     -40.039  23.983  -2.876  0.00  0.00    -0.017 A 
ATOM     17  C13 NON d   1     -38.840  23.951  -3.597  0.00  0.00     0.014 A 
ATOM     18  C14 NON d   1     -38.591  22.956  -4.543  0.00  0.00     0.026 A 
ATOM     19  C15 NON d   1     -39.545  21.981  -4.856  0.00  0.00     0.033 A 
BRANCH  16  20
ATOM     20  C9  NON d   1     -40.313  25.023  -1.848  0.00  0.00     0.015 A 
ATOM     21  C10 NON d   1     -40.163  26.401  -1.924  0.00  0.00     0.020 A 
ATOM     22  C11 NON d   1     -40.539  27.083  -0.726  0.00  0.00     0.008 A 
ATOM     23  C12 NON d   1     -40.966  26.214   0.247  0.00  0.00     0.050 A 
ATOM     24  S1  NON d   1     -40.908  24.597  -0.281  0.00  0.00    -0.101 SA
ENDBRANCH  16  20
BRANCH  19  25
ATOM     25  N5  NON d   1     -39.101  20.907  -5.655  0.00  0.00    -0.301 NA
ATOM     26  H10 NON d   1     -38.777  20.132  -5.066  0.00  0.00     0.124 HD
ATOM     27  H11 NON d   1     -39.810  20.568  -6.296  0.00  0.00     0.124 HD
ENDBRANCH  19  25
ENDBRANCH  12  14
ENDBRANCH   7  10
ENDBRANCH   3   4
TORSDOF 5
ENDMDL
MODEL 7
REMARK VINA RESULT:   -28.364      2.766      3.020
REMARK INTER + INTRA:         -30.813
REMARK INTER:                 -29.856
REMARK INTRA:                  -0.958
REMARK CONF_INDEPENDENT:        1.492
REMARK UNBOUND:                -0.958
REMARK  5 active torsions:
REMARK  status: ('A' for Active; 'I' for Inactive)
REMARK    1  A    between atoms: N3_3  and  C1_4 
REMARK    2  A    between atoms: C4_7  and  C5_8 
REMARK       I    between atoms: C5_8  and  N4_10 
REMARK    3  A    between atoms: N4_10  and  C6_11 
REMARK    4  A    between atoms: C8_13  and  C9_14 
REMARK    5  A    between atoms: C15_21  and  N5_22 
ROOT
ATOM      1  N1  NON d   1     -47.832  16.710  -6.396  0.00  0.00     0.068 N 
ATOM      2  N2  NON d   1     -47.076  16.507  -5.562  0.00  0.00    -0.162 NA
ATOM      3  N3  NON d   1     -46.259  16.266  -4.653  0.00  0.00    -0.073 NA
ENDROOT
BRANCH   3   4
ATOM      4  C1  NON d   1     -45.084  17.041  -4.660  0.00  0.00     0.093 A 
ATOM      5  C2  NON d   1     -43.918  16.448  -4.154  0.00  0.00     0.035 A 
ATOM      6  C3  NON d   1     -42.688  17.128  -4.139  0.00  0.00     0.019 A 
ATOM      7  C4  NON d   1     -42.606  18.427  -4.645  0.00  0.00     0.032 A 
ATOM      8  C16 NON d   1     -43.769  19.025  -5.156  0.00  0.00     0.019 A 
ATOM      9  C17 NON d   1     -44.990  18.339  -5.171  0.00  0.00     0.035 A 
BRANCH   7  10
ATOM     10  C5  NON d   1     -41.358  19.252  -4.647  0.00  0.00     0.256 C 
ATOM     11  O1  NON d   1     -41.448  20.391  -5.101  0.00  0.00    -0.267 OA
ATOM     12  N4  NON d   1     -40.207  18.684  -4.130  0.00  0.00    -0.321 N 
ATOM     13  H3  NON d   1     -40.298  17.801  -3.648  0.00  0.00     0.169 HD
BRANCH  12  14
ATOM     14  C6  NON d   1     -38.891  19.242  -4.111  0.00  0.00     0.057 A 
ATOM     15  C7  NON d   1     -38.658  20.293  -5.033  0.00  0.00     0.044 A 
ATOM     16  C8  NON d   1     -37.412  20.947  -5.144  0.00  0.00    -0.017 A 
ATOM     17  C13 NON d   1     -36.401  20.535  -4.269  0.00  0.00     0.014 A 
ATOM     18  C14 NON d   1     -36.624  19.527  -3.328  0.00  0.00     0.026 A 
ATOM     19  C15 NON d   1     -37.843  18.845  -3.254  0.00  0.00     0.033 A 
BRANCH  16  20
ATOM     20  C9  NON d   1     -37.200  22.033  -6.137  0.00  0.00     0.015 A 
ATOM     21  C10 NON d   1     -36.193  22.184  -7.081  0.00  0.00     0.020 A 
ATOM     22  C11 NON d   1     -36.325  23.364  -7.874  0.00  0.00     0.008 A 
ATOM     23  C12 NON d   1     -37.429  24.099  -7.520  0.00  0.00     0.050 A 
ATOM     24  S1  NON d   1     -38.289  23.373  -6.244  0.00  0.00    -0.101 SA
ENDBRANCH  16  20
BRANCH  19  25
ATOM     25  N5  NON d   1     -38.024  18.013  -2.131  0.00  0.00    -0.301 NA
ATOM     26  H10 NON d   1     -37.492  18.371  -1.330  0.00  0.00     0.124 HD
ATOM     27  H11 NON d   1     -38.998  17.907  -1.866  0.00  0.00     0.124 HD
ENDBRANCH  19  25
ENDBRANCH  12  14
ENDBRANCH   7  10
ENDBRANCH   3   4
TORSDOF 5
ENDMDL
MODEL 8
REMARK VINA RESULT:   -28.233      2.164      2.902
REMARK INTER + INTRA:         -30.669
REMARK INTER:                 -29.725
REMARK INTRA:                  -0.944
REMARK CONF_INDEPENDENT:        1.492
REMARK UNBOUND:                -0.944
REMARK  5 active torsions:
REMARK  status: ('A' for Active; 'I' for Inactive)
REMARK    1  A    between atoms: N3_3  and  C1_4 
REMARK    2  A    between atoms: C4_7  and  C5_8 
REMARK       I    between atoms: C5_8  and  N4_10 
REMARK    3  A    between atoms: N4_10  and  C6_11 
REMARK    4  A    between atoms: C8_13  and  C9_14 
REMARK    5  A    between atoms: C15_21  and  N5_22 
ROOT
ATOM      1  N1  NON d   1     -48.595  15.516  -3.957  0.00  0.00     0.068 N 
ATOM      2  N2  NON d   1     -47.926  15.987  -4.756  0.00  0.00    -0.162 NA
ATOM      3  N3  NON d   1     -47.215  16.505  -5.637  0.00  0.00    -0.073 NA
ENDROOT
BRANCH   3   4
ATOM      4  C1  NON d   1     -45.990  17.046  -5.202  0.00  0.00     0.093 A 
ATOM      5  C2  NON d   1     -45.557  18.232  -5.810  0.00  0.00     0.035 A 
ATOM      6  C3  NON d   1     -44.361  18.865  -5.430  0.00  0.00     0.019 A 
ATOM      7  C4  NON d   1     -43.575  18.314  -4.415  0.00  0.00     0.032 A 
ATOM      8  C16 NON d   1     -44.005  17.127  -3.800  0.00  0.00     0.019 A 
ATOM      9  C17 NON d   1     -45.200  16.505  -4.182  0.00  0.00     0.035 A 
BRANCH   7  10
ATOM     10  C5  NON d   1     -42.271  18.886  -3.956  0.00  0.00     0.256 C 
ATOM     11  O1  NON d   1     -41.709  18.307  -3.029  0.00  0.00    -0.267 OA
ATOM     12  N4  NON d   1     -41.790  20.006  -4.612  0.00  0.00    -0.321 N 
ATOM     13  H3  NON d   1     -42.266  20.294  -5.454  0.00  0.00     0.169 HD
BRANCH  12  14
ATOM     14  C6  NON d   1     -40.626  20.771  -4.292  0.00  0.00     0.057 A 
ATOM     15  C7  NON d   1     -40.392  20.982  -2.911  0.00  0.00     0.044 A 
ATOM     16  C8  NON d   1     -39.289  21.720  -2.429  0.00  0.00    -0.017 A 
ATOM     17  C13 NON d   1     -38.395  22.218  -3.383  0.00  0.00     0.014 A 
ATOM     18  C14 NON d   1     -38.589  21.987  -4.746  0.00  0.00     0.026 A 
ATOM     19  C15 NON d   1     -39.709  21.300  -5.225  0.00  0.00     0.033 A 
BRANCH  16  20
ATOM     20  C9  NON d   1     -39.087  21.937  -0.971  0.00  0.00     0.015 A 
ATOM     21  C10 NON d   1     -40.013  22.265   0.010  0.00  0.00     0.020 A 
ATOM     22  C11 NON d   1     -39.445  22.384   1.315  0.00  0.00     0.008 A 
ATOM     23  C12 NON d   1     -38.092  22.150   1.309  0.00  0.00     0.050 A 
ATOM     24  S1  NON d   1     -37.519  21.795  -0.254  0.00  0.00    -0.101 SA
ENDBRANCH  16  20
BRANCH  19  25
ATOM     25  N5  NON d   1     -39.682  20.937  -6.587  0.00  0.00    -0.301 NA
ATOM     26  H10 NON d   1     -39.583  21.769  -7.178  0.00  0.00     0.124 HD
ATOM     27  H11 NON d   1     -38.944  20.277  -6.809  0.00  0.00     0.124 HD
ENDBRANCH  19  25
ENDBRANCH  12  14
ENDBRANCH   7  10
ENDBRANCH   3   4
TORSDOF 5
ENDMDL
MODEL 9
REMARK VINA RESULT:   -27.798      2.532      3.197
REMARK INTER + INTRA:         -30.233
REMARK INTER:                 -29.290
REMARK INTRA:                  -0.944
REMARK CONF_INDEPENDENT:        1.492
REMARK UNBOUND:                -0.944
REMARK  5 active torsions:
REMARK  status: ('A' for Active; 'I' for Inactive)
REMARK    1  A    between atoms: N3_3  and  C1_4 
REMARK    2  A    between atoms: C4_7  and  C5_8 
REMARK       I    between atoms: C5_8  and  N4_10 
REMARK    3  A    between atoms: N4_10  and  C6_11 
REMARK    4  A    between atoms: C8_13  and  C9_14 
REMARK    5  A    between atoms: C15_21  and  N5_22 
ROOT
ATOM      1  N1  NON d   1     -47.993  16.873  -6.006  0.00  0.00     0.068 N 
ATOM      2  N2  NON d   1     -47.069  16.505  -5.441  0.00  0.00    -0.162 NA
ATOM      3  N3  NON d   1     -46.069  16.085  -4.829  0.00  0.00    -0.073 NA
ENDROOT
BRANCH   3   4
ATOM      4  C1  NON d   1     -44.927  16.907  -4.878  0.00  0.00     0.093 A 
ATOM      5  C2  NON d   1     -45.093  18.214  -5.358  0.00  0.00     0.035 A 
ATOM      6  C3  NON d   1     -44.021  19.121  -5.424  0.00  0.00     0.019 A 
ATOM      7  C4  NON d   1     -42.751  18.727  -4.996  0.00  0.00     0.032 A 
ATOM      8  C16 NON d   1     -42.579  17.421  -4.511  0.00  0.00     0.019 A 
ATOM      9  C17 NON d   1     -43.653  16.524  -4.446  0.00  0.00     0.035 A 
BRANCH   7  10
ATOM     10  C5  NON d   1     -41.536  19.599  -5.053  0.00  0.00     0.256 C 
ATOM     11  O1  NON d   1     -40.722  19.473  -4.141  0.00  0.00    -0.267 OA
ATOM     12  N4  NON d   1     -41.413  20.465  -6.125  0.00  0.00    -0.321 N 
ATOM     13  H3  NON d   1     -42.070  20.365  -6.885  0.00  0.00     0.169 HD
BRANCH  12  14
ATOM     14  C6  NON d   1     -40.396  21.446  -6.341  0.00  0.00     0.057 A 
ATOM     15  C7  NON d   1     -39.809  21.988  -5.170  0.00  0.00     0.044 A 
ATOM     16  C8  NON d   1     -38.795  22.969  -5.210  0.00  0.00    -0.017 A 
ATOM     17  C13 NON d   1     -38.355  23.374  -6.475  0.00  0.00     0.014 A 
ATOM     18  C14 NON d   1     -38.895  22.824  -7.639  0.00  0.00     0.026 A 
ATOM     19  C15 NON d   1     -39.935  21.889  -7.599  0.00  0.00     0.033 A 
BRANCH  16  20
ATOM     20  C9  NON d   1     -38.216  23.528  -3.959  0.00  0.00     0.015 A 
ATOM     21  C10 NON d   1     -38.853  23.926  -2.791  0.00  0.00     0.020 A 
ATOM     22  C11 NON d   1     -37.958  24.410  -1.788  0.00  0.00     0.008 A 
ATOM     23  C12 NON d   1     -36.652  24.378  -2.209  0.00  0.00     0.050 A 
ATOM     24  S1  NON d   1     -36.512  23.776  -3.794  0.00  0.00    -0.101 SA
ENDBRANCH  16  20
BRANCH  19  25
ATOM     25  N5  NON d   1     -40.242  21.244  -8.814  0.00  0.00    -0.301 NA
ATOM     26  H10 NON d   1     -41.256  21.241  -8.972  0.00  0.00     0.124 HD
ATOM     27  H11 NON d   1     -39.779  21.662  -9.615  0.00  0.00     0.124 HD
ENDBRANCH  19  25
ENDBRANCH  12  14
ENDBRANCH   7  10
ENDBRANCH   3   4
TORSDOF 5
ENDMDL
