MODEL 1
REMARK VINA RESULT:   -15.552      0.000      0.000
REMARK INTER + INTRA:         -20.966
REMARK INTER:                 -19.132
REMARK INTRA:                  -1.834
REMARK CONF_INDEPENDENT:        3.580
REMARK UNBOUND:                -1.834
REMARK  12 active torsions:
REMARK  status: ('A' for Active; 'I' for Inactive)
REMARK    1  A    between atoms: N1_2  and  C2_3 
REMARK    2  A    between atoms: N1_2  and  C9_11 
REMARK    3  A    between atoms: C2_3  and  C3_4 
REMARK    4  A    between atoms: C12_14  and  O1_15 
REMARK    5  A    between atoms: O1_15  and  C13_16 
REMARK    6  A    between atoms: C13_16  and  C14_17 
REMARK    7  A    between atoms: C14_17  and  C15_18 
REMARK    8  A    between atoms: C15_18  and  C16_19 
REMARK    9  A    between atoms: C16_19  and  C17_20 
REMARK   10  A    between atoms: C17_20  and  C18_21 
REMARK   11  A    between atoms: C18_21  and  C19_22 
REMARK       I    between atoms: C19_22  and  N2_24 
REMARK   12  A    between atoms: N2_24  and  O3_25 
ROOT
ATOM      1  C9  NON d   1     -41.602  18.482  -4.069  0.00  0.00     0.030 A 
ATOM      2  C10 NON d   1     -42.431  19.073  -5.037  0.00  0.00     0.032 A 
ATOM      3  C11 NON d   1     -43.782  18.728  -5.199  0.00  0.00     0.039 A 
ATOM      4  C12 NON d   1     -44.357  17.736  -4.413  0.00  0.00     0.068 A 
ATOM      5  C20 NON d   1     -43.551  17.093  -3.479  0.00  0.00     0.039 A 
ATOM      6  C21 NON d   1     -42.199  17.463  -3.310  0.00  0.00     0.032 A 
ENDROOT
BRANCH   4   7
ATOM      7  O1  NON d   1     -45.667  17.331  -4.475  0.00  0.00    -0.351 OA
BRANCH   7   8
ATOM      8  C13 NON d   1     -46.158  16.648  -3.314  0.00  0.00     0.175 C 
BRANCH   8   9
ATOM      9  C14 NON d   1     -47.361  17.383  -2.734  0.00  0.00     0.027 C 
BRANCH   9  10
ATOM     10  C15 NON d   1     -48.225  16.533  -1.786  0.00  0.00     0.002 C 
BRANCH  10  11
ATOM     11  C16 NON d   1     -49.547  16.002  -2.368  0.00  0.00     0.001 C 
BRANCH  11  12
ATOM     12  C17 NON d   1     -49.552  15.853  -3.894  0.00  0.00     0.009 C 
BRANCH  12  13
ATOM     13  C18 NON d   1     -48.402  14.990  -4.417  0.00  0.00     0.105 C 
BRANCH  13  14
ATOM     14  C19 NON d   1     -47.568  15.620  -5.516  0.00  0.00     0.240 C 
ATOM     15  O2  NON d   1     -46.768  15.005  -6.207  0.00  0.00    -0.271 OA
ATOM     16  N2  NON d   1     -47.865  16.966  -5.653  0.00  0.00    -0.237 N 
ATOM     17  H24 NON d   1     -48.225  17.491  -4.862  0.00  0.00     0.197 HD
BRANCH  16  18
ATOM     18  O3  NON d   1     -47.009  17.702  -6.507  0.00  0.00    -0.287 OA
ATOM     19  H25 NON d   1     -46.252  17.095  -6.612  0.00  0.00     0.244 HD
ENDBRANCH  16  18
ENDBRANCH  13  14
ENDBRANCH  12  13
ENDBRANCH  11  12
ENDBRANCH  10  11
ENDBRANCH   9  10
ENDBRANCH   8   9
ENDBRANCH   7   8
ENDBRANCH   4   7
BRANCH   1  20
ATOM     20  N1  NON d   1     -40.289  18.934  -3.834  0.00  0.00    -0.381 N 
ATOM     21  C1  NON d   1     -40.081  20.083  -2.830  0.00  0.00     0.150 C 
BRANCH  20  22
ATOM     22  C2  NON d   1     -39.235  18.628  -4.832  0.00  0.00     0.161 C 
BRANCH  22  23
ATOM     23  C3  NON d   1     -39.230  19.302  -6.210  0.00  0.00    -0.040 A 
ATOM     24  C4  NON d   1     -40.015  20.467  -6.373  0.00  0.00     0.010 A 
ATOM     25  C5  NON d   1     -40.041  21.175  -7.580  0.00  0.00     0.024 A 
ATOM     26  C6  NON d   1     -39.294  20.725  -8.661  0.00  0.00     0.034 A 
ATOM     27 Cl1  NON d   1     -39.349  21.566 -10.159  0.00  0.00    -0.084 Cl
ATOM     28  C7  NON d   1     -38.482  19.605  -8.522  0.00  0.00     0.024 A 
ATOM     29  C8  NON d   1     -38.414  18.936  -7.291  0.00  0.00     0.010 A 
ENDBRANCH  22  23
ENDBRANCH  20  22
ENDBRANCH   1  20
TORSDOF 12
ENDMDL
MODEL 2
REMARK VINA RESULT:   -15.522      2.891      3.980
REMARK INTER + INTRA:         -21.478
REMARK INTER:                 -19.101
REMARK INTRA:                  -2.377
REMARK CONF_INDEPENDENT:        3.580
REMARK UNBOUND:                -2.377
REMARK  12 active torsions:
REMARK  status: ('A' for Active; 'I' for Inactive)
REMARK    1  A    between atoms: N1_2  and  C2_3 
REMARK    2  A    between atoms: N1_2  and  C9_11 
REMARK    3  A    between atoms: C2_3  and  C3_4 
REMARK    4  A    between atoms: C12_14  and  O1_15 
REMARK    5  A    between atoms: O1_15  and  C13_16 
REMARK    6  A    between atoms: C13_16  and  C14_17 
REMARK    7  A    between atoms: C14_17  and  C15_18 
REMARK    8  A    between atoms: C15_18  and  C16_19 
REMARK    9  A    between atoms: C16_19  and  C17_20 
REMARK   10  A    between atoms: C17_20  and  C18_21 
REMARK   11  A    between atoms: C18_21  and  C19_22 
REMARK       I    between atoms: C19_22  and  N2_24 
REMARK   12  A    between atoms: N2_24  and  O3_25 
ROOT
ATOM      1  C9  NON d   1     -40.339  18.311  -3.736  0.00  0.00     0.030 A 
ATOM      2  C10 NON d   1     -40.781  18.211  -5.066  0.00  0.00     0.032 A 
ATOM      3  C11 NON d   1     -42.067  17.765  -5.413  0.00  0.00     0.039 A 
ATOM      4  C12 NON d   1     -42.962  17.359  -4.431  0.00  0.00     0.068 A 
ATOM      5  C20 NON d   1     -42.540  17.395  -3.105  0.00  0.00     0.039 A 
ATOM      6  C21 NON d   1     -41.253  17.865  -2.767  0.00  0.00     0.032 A 
ENDROOT
BRANCH   4   7
ATOM      7  O1  NON d   1     -44.244  16.922  -4.654  0.00  0.00    -0.351 OA
BRANCH   7   8
ATOM      8  C13 NON d   1     -45.267  17.609  -3.921  0.00  0.00     0.175 C 
BRANCH   8   9
ATOM      9  C14 NON d   1     -46.182  16.610  -3.222  0.00  0.00     0.027 C 
BRANCH   9  10
ATOM     10  C15 NON d   1     -47.399  17.246  -2.527  0.00  0.00     0.002 C 
BRANCH  10  11
ATOM     11  C16 NON d   1     -48.770  16.637  -2.870  0.00  0.00     0.001 C 
BRANCH  11  12
ATOM     12  C17 NON d   1     -48.701  15.245  -3.509  0.00  0.00     0.009 C 
BRANCH  12  13
ATOM     13  C18 NON d   1     -48.796  15.279  -5.036  0.00  0.00     0.105 C 
BRANCH  13  14
ATOM     14  C19 NON d   1     -47.546  15.753  -5.752  0.00  0.00     0.240 C 
ATOM     15  O2  NON d   1     -46.684  15.006  -6.194  0.00  0.00    -0.271 OA
ATOM     16  N2  NON d   1     -47.536  17.134  -5.868  0.00  0.00    -0.237 N 
ATOM     17  H24 NON d   1     -48.040  17.704  -5.197  0.00  0.00     0.197 HD
BRANCH  16  18
ATOM     18  O3  NON d   1     -46.328  17.703  -6.338  0.00  0.00    -0.287 OA
ATOM     19  H25 NON d   1     -45.698  16.965  -6.232  0.00  0.00     0.244 HD
ENDBRANCH  16  18
ENDBRANCH  13  14
ENDBRANCH  12  13
ENDBRANCH  11  12
ENDBRANCH  10  11
ENDBRANCH   9  10
ENDBRANCH   8   9
ENDBRANCH   7   8
ENDBRANCH   4   7
BRANCH   1  20
ATOM     20  N1  NON d   1     -39.097  18.883  -3.403  0.00  0.00    -0.381 N 
ATOM     21  C1  NON d   1     -38.159  18.097  -2.468  0.00  0.00     0.150 C 
BRANCH  20  22
ATOM     22  C2  NON d   1     -38.909  20.343  -3.577  0.00  0.00     0.161 C 
BRANCH  22  23
ATOM     23  C3  NON d   1     -39.572  21.345  -2.622  0.00  0.00    -0.040 A 
ATOM     24  C4  NON d   1     -39.113  21.380  -1.286  0.00  0.00     0.010 A 
ATOM     25  C5  NON d   1     -39.626  22.288  -0.353  0.00  0.00     0.024 A 
ATOM     26  C6  NON d   1     -40.626  23.176  -0.732  0.00  0.00     0.034 A 
ATOM     27 Cl1  NON d   1     -41.289  24.270   0.416  0.00  0.00    -0.084 Cl
ATOM     28  C7  NON d   1     -41.072  23.194  -2.048  0.00  0.00     0.024 A 
ATOM     29  C8  NON d   1     -40.510  22.322  -2.991  0.00  0.00     0.010 A 
ENDBRANCH  22  23
ENDBRANCH  20  22
ENDBRANCH   1  20
TORSDOF 12
ENDMDL
MODEL 3
REMARK VINA RESULT:   -14.453      3.871      6.553
REMARK INTER + INTRA:         -19.682
REMARK INTER:                 -18.032
REMARK INTRA:                  -1.650
REMARK CONF_INDEPENDENT:        3.580
REMARK UNBOUND:                -1.650
REMARK  12 active torsions:
REMARK  status: ('A' for Active; 'I' for Inactive)
REMARK    1  A    between atoms: N1_2  and  C2_3 
REMARK    2  A    between atoms: N1_2  and  C9_11 
REMARK    3  A    between atoms: C2_3  and  C3_4 
REMARK    4  A    between atoms: C12_14  and  O1_15 
REMARK    5  A    between atoms: O1_15  and  C13_16 
REMARK    6  A    between atoms: C13_16  and  C14_17 
REMARK    7  A    between atoms: C14_17  and  C15_18 
REMARK    8  A    between atoms: C15_18  and  C16_19 
REMARK    9  A    between atoms: C16_19  and  C17_20 
REMARK   10  A    between atoms: C17_20  and  C18_21 
REMARK   11  A    between atoms: C18_21  and  C19_22 
REMARK       I    between atoms: C19_22  and  N2_24 
REMARK   12  A    between atoms: N2_24  and  O3_25 
ROOT
ATOM      1  C9  NON d   1     -38.126  21.305  -9.878  0.00  0.00     0.030 A 
ATOM      2  C10 NON d   1     -37.687  20.036  -9.463  0.00  0.00     0.032 A 
ATOM      3  C11 NON d   1     -38.411  19.232  -8.568  0.00  0.00     0.039 A 
ATOM      4  C12 NON d   1     -39.601  19.688  -8.014  0.00  0.00     0.068 A 
ATOM      5  C20 NON d   1     -40.039  20.962  -8.363  0.00  0.00     0.039 A 
ATOM      6  C21 NON d   1     -39.315  21.752  -9.279  0.00  0.00     0.032 A 
ENDROOT
BRANCH   4   7
ATOM      7  O1  NON d   1     -40.396  18.982  -7.145  0.00  0.00    -0.351 OA
BRANCH   7   8
ATOM      8  C13 NON d   1     -41.046  19.761  -6.132  0.00  0.00     0.175 C 
BRANCH   8   9
ATOM      9  C14 NON d   1     -42.123  18.935  -5.437  0.00  0.00     0.027 C 
BRANCH   9  10
ATOM     10  C15 NON d   1     -41.712  18.394  -4.057  0.00  0.00     0.002 C 
BRANCH  10  11
ATOM     11  C16 NON d   1     -42.797  17.631  -3.276  0.00  0.00     0.001 C 
BRANCH  11  12
ATOM     12  C17 NON d   1     -43.769  16.838  -4.158  0.00  0.00     0.009 C 
BRANCH  12  13
ATOM     13  C18 NON d   1     -45.192  17.400  -4.139  0.00  0.00     0.105 C 
BRANCH  13  14
ATOM     14  C19 NON d   1     -46.054  17.019  -5.328  0.00  0.00     0.240 C 
ATOM     15  O2  NON d   1     -46.315  17.774  -6.254  0.00  0.00    -0.271 OA
ATOM     16  N2  NON d   1     -46.466  15.699  -5.238  0.00  0.00    -0.237 N 
ATOM     17  H24 NON d   1     -46.547  15.252  -4.330  0.00  0.00     0.197 HD
BRANCH  16  18
ATOM     18  O3  NON d   1     -47.437  15.292  -6.184  0.00  0.00    -0.287 OA
ATOM     19  H25 NON d   1     -47.274  15.907  -6.924  0.00  0.00     0.244 HD
ENDBRANCH  16  18
ENDBRANCH  13  14
ENDBRANCH  12  13
ENDBRANCH  11  12
ENDBRANCH  10  11
ENDBRANCH   9  10
ENDBRANCH   8   9
ENDBRANCH   7   8
ENDBRANCH   4   7
BRANCH   1  20
ATOM     20  N1  NON d   1     -37.454  22.038 -10.874  0.00  0.00    -0.381 N 
ATOM     21  C1  NON d   1     -36.483  23.149 -10.433  0.00  0.00     0.150 C 
BRANCH  20  22
ATOM     22  C2  NON d   1     -37.996  22.040 -12.254  0.00  0.00     0.161 C 
BRANCH  22  23
ATOM     23  C3  NON d   1     -39.059  23.059 -12.685  0.00  0.00    -0.040 A 
ATOM     24  C4  NON d   1     -39.202  23.312 -14.068  0.00  0.00     0.010 A 
ATOM     25  C5  NON d   1     -40.172  24.193 -14.561  0.00  0.00     0.024 A 
ATOM     26  C6  NON d   1     -41.014  24.857 -13.677  0.00  0.00     0.034 A 
ATOM     27 Cl1  NON d   1     -42.182  25.970 -14.269  0.00  0.00    -0.084 Cl
ATOM     28  C7  NON d   1     -40.924  24.601 -12.313  0.00  0.00     0.024 A 
ATOM     29  C8  NON d   1     -39.991  23.672 -11.833  0.00  0.00     0.010 A 
ENDBRANCH  22  23
ENDBRANCH  20  22
ENDBRANCH   1  20
TORSDOF 12
ENDMDL
MODEL 4
REMARK VINA RESULT:   -14.397      5.917      8.362
REMARK INTER + INTRA:         -19.609
REMARK INTER:                 -17.977
REMARK INTRA:                  -1.632
REMARK CONF_INDEPENDENT:        3.580
REMARK UNBOUND:                -1.632
REMARK  12 active torsions:
REMARK  status: ('A' for Active; 'I' for Inactive)
REMARK    1  A    between atoms: N1_2  and  C2_3 
REMARK    2  A    between atoms: N1_2  and  C9_11 
REMARK    3  A    between atoms: C2_3  and  C3_4 
REMARK    4  A    between atoms: C12_14  and  O1_15 
REMARK    5  A    between atoms: O1_15  and  C13_16 
REMARK    6  A    between atoms: C13_16  and  C14_17 
REMARK    7  A    between atoms: C14_17  and  C15_18 
REMARK    8  A    between atoms: C15_18  and  C16_19 
REMARK    9  A    between atoms: C16_19  and  C17_20 
REMARK   10  A    between atoms: C17_20  and  C18_21 
REMARK   11  A    between atoms: C18_21  and  C19_22 
REMARK       I    between atoms: C19_22  and  N2_24 
REMARK   12  A    between atoms: N2_24  and  O3_25 
ROOT
ATOM      1  C9  NON d   1     -40.393  23.702  -1.348  0.00  0.00     0.030 A 
ATOM      2  C10 NON d   1     -40.289  22.505  -0.619  0.00  0.00     0.032 A 
ATOM      3  C11 NON d   1     -40.081  21.256  -1.226  0.00  0.00     0.039 A 
ATOM      4  C12 NON d   1     -40.007  21.147  -2.610  0.00  0.00     0.068 A 
ATOM      5  C20 NON d   1     -40.159  22.305  -3.366  0.00  0.00     0.039 A 
ATOM      6  C21 NON d   1     -40.346  23.558  -2.744  0.00  0.00     0.032 A 
ENDROOT
BRANCH   4   7
ATOM      7  O1  NON d   1     -39.792  19.984  -3.306  0.00  0.00    -0.351 OA
BRANCH   7   8
ATOM      8  C13 NON d   1     -39.767  18.787  -2.517  0.00  0.00     0.175 C 
BRANCH   8   9
ATOM      9  C14 NON d   1     -40.950  17.893  -2.870  0.00  0.00     0.027 C 
BRANCH   9  10
ATOM     10  C15 NON d   1     -41.928  18.511  -3.884  0.00  0.00     0.002 C 
BRANCH  10  11
ATOM     11  C16 NON d   1     -42.416  17.580  -5.009  0.00  0.00     0.001 C 
BRANCH  11  12
ATOM     12  C17 NON d   1     -43.545  16.629  -4.596  0.00  0.00     0.009 C 
BRANCH  12  13
ATOM     13  C18 NON d   1     -44.884  17.340  -4.387  0.00  0.00     0.105 C 
BRANCH  13  14
ATOM     14  C19 NON d   1     -45.942  17.049  -5.434  0.00  0.00     0.240 C 
ATOM     15  O2  NON d   1     -46.365  17.878  -6.229  0.00  0.00    -0.271 OA
ATOM     16  N2  NON d   1     -46.328  15.720  -5.392  0.00  0.00    -0.237 N 
ATOM     17  H24 NON d   1     -46.245  15.193  -4.528  0.00  0.00     0.197 HD
BRANCH  16  18
ATOM     18  O3  NON d   1     -47.450  15.379  -6.185  0.00  0.00    -0.287 OA
ATOM     19  H25 NON d   1     -47.385  16.018  -6.919  0.00  0.00     0.244 HD
ENDBRANCH  16  18
ENDBRANCH  13  14
ENDBRANCH  12  13
ENDBRANCH  11  12
ENDBRANCH  10  11
ENDBRANCH   9  10
ENDBRANCH   8   9
ENDBRANCH   7   8
ENDBRANCH   4   7
BRANCH   1  20
ATOM     20  N1  NON d   1     -40.469  24.957  -0.716  0.00  0.00    -0.381 N 
ATOM     21  C1  NON d   1     -40.833  26.184  -1.571  0.00  0.00     0.150 C 
BRANCH  20  22
ATOM     22  C2  NON d   1     -39.795  25.144   0.592  0.00  0.00     0.161 C 
BRANCH  22  23
ATOM     23  C3  NON d   1     -40.590  25.548   1.841  0.00  0.00    -0.040 A 
ATOM     24  C4  NON d   1     -41.399  26.703   1.758  0.00  0.00     0.010 A 
ATOM     25  C5  NON d   1     -42.193  27.127   2.831  0.00  0.00     0.024 A 
ATOM     26  C6  NON d   1     -42.182  26.411   4.022  0.00  0.00     0.034 A 
ATOM     27 Cl1  NON d   1     -43.124  26.944   5.357  0.00  0.00    -0.084 Cl
ATOM     28  C7  NON d   1     -41.426  25.249   4.123  0.00  0.00     0.024 A 
ATOM     29  C8  NON d   1     -40.682  24.798   3.024  0.00  0.00     0.010 A 
ENDBRANCH  22  23
ENDBRANCH  20  22
ENDBRANCH   1  20
TORSDOF 12
ENDMDL
MODEL 5
REMARK VINA RESULT:   -14.316      6.301      8.773
REMARK INTER + INTRA:         -19.323
REMARK INTER:                 -17.895
REMARK INTRA:                  -1.428
REMARK CONF_INDEPENDENT:        3.580
REMARK UNBOUND:                -1.428
REMARK  12 active torsions:
REMARK  status: ('A' for Active; 'I' for Inactive)
REMARK    1  A    between atoms: N1_2  and  C2_3 
REMARK    2  A    between atoms: N1_2  and  C9_11 
REMARK    3  A    between atoms: C2_3  and  C3_4 
REMARK    4  A    between atoms: C12_14  and  O1_15 
REMARK    5  A    between atoms: O1_15  and  C13_16 
REMARK    6  A    between atoms: C13_16  and  C14_17 
REMARK    7  A    between atoms: C14_17  and  C15_18 
REMARK    8  A    between atoms: C15_18  and  C16_19 
REMARK    9  A    between atoms: C16_19  and  C17_20 
REMARK   10  A    between atoms: C17_20  and  C18_21 
REMARK   11  A    between atoms: C18_21  and  C19_22 
REMARK       I    between atoms: C19_22  and  N2_24 
REMARK   12  A    between atoms: N2_24  and  O3_25 
ROOT
ATOM      1  C9  NON d   1     -40.413  24.603  -0.999  0.00  0.00     0.030 A 
ATOM      2  C10 NON d   1     -40.339  23.406  -0.265  0.00  0.00     0.032 A 
ATOM      3  C11 NON d   1     -40.322  22.139  -0.870  0.00  0.00     0.039 A 
ATOM      4  C12 NON d   1     -40.420  22.014  -2.251  0.00  0.00     0.068 A 
ATOM      5  C20 NON d   1     -40.547  23.177  -3.005  0.00  0.00     0.039 A 
ATOM      6  C21 NON d   1     -40.541  24.446  -2.388  0.00  0.00     0.032 A 
ENDROOT
BRANCH   4   7
ATOM      7  O1  NON d   1     -40.398  20.831  -2.946  0.00  0.00    -0.351 OA
BRANCH   7   8
ATOM      8  C13 NON d   1     -39.775  19.729  -2.272  0.00  0.00     0.175 C 
BRANCH   8   9
ATOM      9  C14 NON d   1     -40.427  18.415  -2.687  0.00  0.00     0.027 C 
BRANCH   9  10
ATOM     10  C15 NON d   1     -41.772  18.579  -3.415  0.00  0.00     0.002 C 
BRANCH  10  11
ATOM     11  C16 NON d   1     -42.625  17.306  -3.558  0.00  0.00     0.001 C 
BRANCH  11  12
ATOM     12  C17 NON d   1     -43.668  17.368  -4.681  0.00  0.00     0.009 C 
BRANCH  12  13
ATOM     13  C18 NON d   1     -45.067  16.947  -4.226  0.00  0.00     0.105 C 
BRANCH  13  14
ATOM     14  C19 NON d   1     -46.089  16.794  -5.336  0.00  0.00     0.240 C 
ATOM     15  O2  NON d   1     -46.314  17.648  -6.183  0.00  0.00    -0.271 OA
ATOM     16  N2  NON d   1     -46.696  15.550  -5.281  0.00  0.00    -0.237 N 
ATOM     17  H24 NON d   1     -46.759  15.053  -4.399  0.00  0.00     0.197 HD
BRANCH  16  18
ATOM     18  O3  NON d   1     -47.807  15.369  -6.141  0.00  0.00    -0.287 OA
ATOM     19  H25 NON d   1     -47.506  15.806  -6.960  0.00  0.00     0.244 HD
ENDBRANCH  16  18
ENDBRANCH  13  14
ENDBRANCH  12  13
ENDBRANCH  11  12
ENDBRANCH  10  11
ENDBRANCH   9  10
ENDBRANCH   8   9
ENDBRANCH   7   8
ENDBRANCH   4   7
BRANCH   1  20
ATOM     20  N1  NON d   1     -40.295  25.863  -0.384  0.00  0.00    -0.381 N 
ATOM     21  C1  NON d   1     -40.196  27.108  -1.285  0.00  0.00     0.150 C 
BRANCH  20  22
ATOM     22  C2  NON d   1     -39.838  25.936   1.025  0.00  0.00     0.161 C 
BRANCH  22  23
ATOM     23  C3  NON d   1     -40.841  26.085   2.176  0.00  0.00    -0.040 A 
ATOM     24  C4  NON d   1     -40.833  25.096   3.185  0.00  0.00     0.010 A 
ATOM     25  C5  NON d   1     -41.682  25.168   4.296  0.00  0.00     0.024 A 
ATOM     26  C6  NON d   1     -42.575  26.227   4.415  0.00  0.00     0.034 A 
ATOM     27 Cl1  NON d   1     -43.647  26.305   5.756  0.00  0.00    -0.084 Cl
ATOM     28  C7  NON d   1     -42.581  27.236   3.459  0.00  0.00     0.024 A 
ATOM     29  C8  NON d   1     -41.685  27.188   2.381  0.00  0.00     0.010 A 
ENDBRANCH  22  23
ENDBRANCH  20  22
ENDBRANCH   1  20
TORSDOF 12
ENDMDL
MODEL 6
REMARK VINA RESULT:   -14.174      3.299      5.634
REMARK INTER + INTRA:         -19.351
REMARK INTER:                 -17.754
REMARK INTRA:                  -1.598
REMARK CONF_INDEPENDENT:        3.580
REMARK UNBOUND:                -1.598
REMARK  12 active torsions:
REMARK  status: ('A' for Active; 'I' for Inactive)
REMARK    1  A    between atoms: N1_2  and  C2_3 
REMARK    2  A    between atoms: N1_2  and  C9_11 
REMARK    3  A    between atoms: C2_3  and  C3_4 
REMARK    4  A    between atoms: C12_14  and  O1_15 
REMARK    5  A    between atoms: O1_15  and  C13_16 
REMARK    6  A    between atoms: C13_16  and  C14_17 
REMARK    7  A    between atoms: C14_17  and  C15_18 
REMARK    8  A    between atoms: C15_18  and  C16_19 
REMARK    9  A    between atoms: C16_19  and  C17_20 
REMARK   10  A    between atoms: C17_20  and  C18_21 
REMARK   11  A    between atoms: C18_21  and  C19_22 
REMARK       I    between atoms: C19_22  and  N2_24 
REMARK   12  A    between atoms: N2_24  and  O3_25 
ROOT
ATOM      1  C9  NON d   1     -39.041  20.623  -8.860  0.00  0.00     0.030 A 
ATOM      2  C10 NON d   1     -40.442  20.738  -8.854  0.00  0.00     0.032 A 
ATOM      3  C11 NON d   1     -41.242  20.270  -7.799  0.00  0.00     0.039 A 
ATOM      4  C12 NON d   1     -40.669  19.625  -6.710  0.00  0.00     0.068 A 
ATOM      5  C20 NON d   1     -39.289  19.447  -6.707  0.00  0.00     0.039 A 
ATOM      6  C21 NON d   1     -38.492  19.940  -7.762  0.00  0.00     0.032 A 
ENDROOT
BRANCH   4   7
ATOM      7  O1  NON d   1     -41.352  19.144  -5.621  0.00  0.00    -0.351 OA
BRANCH   7   8
ATOM      8  C13 NON d   1     -40.728  19.372  -4.350  0.00  0.00     0.175 C 
BRANCH   8   9
ATOM      9  C14 NON d   1     -41.581  18.793  -3.227  0.00  0.00     0.027 C 
BRANCH   9  10
ATOM     10  C15 NON d   1     -41.622  17.256  -3.193  0.00  0.00     0.002 C 
BRANCH  10  11
ATOM     11  C16 NON d   1     -42.967  16.604  -3.561  0.00  0.00     0.001 C 
BRANCH  11  12
ATOM     12  C17 NON d   1     -43.974  17.560  -4.212  0.00  0.00     0.009 C 
BRANCH  12  13
ATOM     13  C18 NON d   1     -45.430  17.153  -3.973  0.00  0.00     0.105 C 
BRANCH  13  14
ATOM     14  C19 NON d   1     -46.238  16.877  -5.225  0.00  0.00     0.240 C 
ATOM     15  O2  NON d   1     -46.316  17.645  -6.174  0.00  0.00    -0.271 OA
ATOM     16  N2  NON d   1     -46.839  15.630  -5.162  0.00  0.00    -0.237 N 
ATOM     17  H24 NON d   1     -47.054  15.214  -4.262  0.00  0.00     0.197 HD
BRANCH  16  18
ATOM     18  O3  NON d   1     -47.779  15.347  -6.182  0.00  0.00    -0.287 OA
ATOM     19  H25 NON d   1     -47.357  15.746  -6.967  0.00  0.00     0.244 HD
ENDBRANCH  16  18
ENDBRANCH  13  14
ENDBRANCH  12  13
ENDBRANCH  11  12
ENDBRANCH  10  11
ENDBRANCH   9  10
ENDBRANCH   8   9
ENDBRANCH   7   8
ENDBRANCH   4   7
BRANCH   1  20
ATOM     20  N1  NON d   1     -38.248  21.213  -9.861  0.00  0.00    -0.381 N 
ATOM     21  C1  NON d   1     -37.003  20.450 -10.351  0.00  0.00     0.150 C 
BRANCH  20  22
ATOM     22  C2  NON d   1     -38.356  22.674 -10.095  0.00  0.00     0.161 C 
BRANCH  22  23
ATOM     23  C3  NON d   1     -39.148  23.227 -11.287  0.00  0.00    -0.040 A 
ATOM     24  C4  NON d   1     -39.595  24.566 -11.212  0.00  0.00     0.010 A 
ATOM     25  C5  NON d   1     -40.288  25.172 -12.266  0.00  0.00     0.024 A 
ATOM     26  C6  NON d   1     -40.567  24.446 -13.417  0.00  0.00     0.034 A 
ATOM     27 Cl1  NON d   1     -41.450  25.170 -14.702  0.00  0.00    -0.084 Cl
ATOM     28  C7  NON d   1     -40.108  23.140 -13.538  0.00  0.00     0.024 A 
ATOM     29  C8  NON d   1     -39.362  22.559 -12.503  0.00  0.00     0.010 A 
ENDBRANCH  22  23
ENDBRANCH  20  22
ENDBRANCH   1  20
TORSDOF 12
ENDMDL
MODEL 7
REMARK VINA RESULT:   -14.133      3.928      6.324
REMARK INTER + INTRA:         -19.351
REMARK INTER:                 -17.712
REMARK INTRA:                  -1.639
REMARK CONF_INDEPENDENT:        3.580
REMARK UNBOUND:                -1.639
REMARK  12 active torsions:
REMARK  status: ('A' for Active; 'I' for Inactive)
REMARK    1  A    between atoms: N1_2  and  C2_3 
REMARK    2  A    between atoms: N1_2  and  C9_11 
REMARK    3  A    between atoms: C2_3  and  C3_4 
REMARK    4  A    between atoms: C12_14  and  O1_15 
REMARK    5  A    between atoms: O1_15  and  C13_16 
REMARK    6  A    between atoms: C13_16  and  C14_17 
REMARK    7  A    between atoms: C14_17  and  C15_18 
REMARK    8  A    between atoms: C15_18  and  C16_19 
REMARK    9  A    between atoms: C16_19  and  C17_20 
REMARK   10  A    between atoms: C17_20  and  C18_21 
REMARK   11  A    between atoms: C18_21  and  C19_22 
REMARK       I    between atoms: C19_22  and  N2_24 
REMARK   12  A    between atoms: N2_24  and  O3_25 
ROOT
ATOM      1  C9  NON d   1     -39.515  22.850  -8.346  0.00  0.00     0.030 A 
ATOM      2  C10 NON d   1     -39.419  22.368  -7.029  0.00  0.00     0.032 A 
ATOM      3  C11 NON d   1     -39.637  21.023  -6.690  0.00  0.00     0.039 A 
ATOM      4  C12 NON d   1     -40.004  20.100  -7.662  0.00  0.00     0.068 A 
ATOM      5  C20 NON d   1     -40.160  20.553  -8.969  0.00  0.00     0.039 A 
ATOM      6  C21 NON d   1     -39.917  21.902  -9.302  0.00  0.00     0.032 A 
ENDROOT
BRANCH   4   7
ATOM      7  O1  NON d   1     -40.225  18.762  -7.446  0.00  0.00    -0.351 OA
BRANCH   7   8
ATOM      8  C13 NON d   1     -40.409  18.380  -6.077  0.00  0.00     0.175 C 
BRANCH   8   9
ATOM      9  C14 NON d   1     -41.723  18.937  -5.541  0.00  0.00     0.027 C 
BRANCH   9  10
ATOM     10  C15 NON d   1     -41.902  18.784  -4.021  0.00  0.00     0.002 C 
BRANCH  10  11
ATOM     11  C16 NON d   1     -42.751  17.588  -3.555  0.00  0.00     0.001 C 
BRANCH  11  12
ATOM     12  C17 NON d   1     -43.680  17.015  -4.633  0.00  0.00     0.009 C 
BRANCH  12  13
ATOM     13  C18 NON d   1     -45.150  16.991  -4.209  0.00  0.00     0.105 C 
BRANCH  13  14
ATOM     14  C19 NON d   1     -46.146  16.818  -5.339  0.00  0.00     0.240 C 
ATOM     15  O2  NON d   1     -46.377  17.671  -6.185  0.00  0.00    -0.271 OA
ATOM     16  N2  NON d   1     -46.723  15.559  -5.303  0.00  0.00    -0.237 N 
ATOM     17  H24 NON d   1     -46.790  15.055  -4.425  0.00  0.00     0.197 HD
BRANCH  16  18
ATOM     18  O3  NON d   1     -47.811  15.355  -6.185  0.00  0.00    -0.287 OA
ATOM     19  H25 NON d   1     -47.597  15.961  -6.919  0.00  0.00     0.244 HD
ENDBRANCH  16  18
ENDBRANCH  13  14
ENDBRANCH  12  13
ENDBRANCH  11  12
ENDBRANCH  10  11
ENDBRANCH   9  10
ENDBRANCH   8   9
ENDBRANCH   7   8
ENDBRANCH   4   7
BRANCH   1  20
ATOM     20  N1  NON d   1     -39.165  24.170  -8.685  0.00  0.00    -0.381 N 
ATOM     21  C1  NON d   1     -39.805  25.322  -7.889  0.00  0.00     0.150 C 
BRANCH  20  22
ATOM     22  C2  NON d   1     -38.573  24.437 -10.019  0.00  0.00     0.161 C 
BRANCH  22  23
ATOM     23  C3  NON d   1     -39.446  24.890 -11.196  0.00  0.00    -0.040 A 
ATOM     24  C4  NON d   1     -40.212  23.906 -11.861  0.00  0.00     0.010 A 
ATOM     25  C5  NON d   1     -41.071  24.230 -12.919  0.00  0.00     0.024 A 
ATOM     26  C6  NON d   1     -41.171  25.548 -13.348  0.00  0.00     0.034 A 
ATOM     27 Cl1  NON d   1     -42.194  25.949 -14.669  0.00  0.00    -0.084 Cl
ATOM     28  C7  NON d   1     -40.461  26.545 -12.689  0.00  0.00     0.024 A 
ATOM     29  C8  NON d   1     -39.649  26.221 -11.592  0.00  0.00     0.010 A 
ENDBRANCH  22  23
ENDBRANCH  20  22
ENDBRANCH   1  20
TORSDOF 12
ENDMDL
MODEL 8
REMARK VINA RESULT:   -13.942      5.774      8.293
REMARK INTER + INTRA:         -19.237
REMARK INTER:                 -17.521
REMARK INTRA:                  -1.716
REMARK CONF_INDEPENDENT:        3.580
REMARK UNBOUND:                -1.716
REMARK  12 active torsions:
REMARK  status: ('A' for Active; 'I' for Inactive)
REMARK    1  A    between atoms: N1_2  and  C2_3 
REMARK    2  A    between atoms: N1_2  and  C9_11 
REMARK    3  A    between atoms: C2_3  and  C3_4 
REMARK    4  A    between atoms: C12_14  and  O1_15 
REMARK    5  A    between atoms: O1_15  and  C13_16 
REMARK    6  A    between atoms: C13_16  and  C14_17 
REMARK    7  A    between atoms: C14_17  and  C15_18 
REMARK    8  A    between atoms: C15_18  and  C16_19 
REMARK    9  A    between atoms: C16_19  and  C17_20 
REMARK   10  A    between atoms: C17_20  and  C18_21 
REMARK   11  A    between atoms: C18_21  and  C19_22 
REMARK       I    between atoms: C19_22  and  N2_24 
REMARK   12  A    between atoms: N2_24  and  O3_25 
ROOT
ATOM      1  C9  NON d   1     -39.203  22.865  -0.224  0.00  0.00     0.030 A 
ATOM      2  C10 NON d   1     -39.235  21.460  -0.229  0.00  0.00     0.032 A 
ATOM      3  C11 NON d   1     -39.759  20.713  -1.296  0.00  0.00     0.039 A 
ATOM      4  C12 NON d   1     -40.315  21.349  -2.399  0.00  0.00     0.068 A 
ATOM      5  C20 NON d   1     -40.347  22.740  -2.404  0.00  0.00     0.039 A 
ATOM      6  C21 NON d   1     -39.798  23.482  -1.336  0.00  0.00     0.032 A 
ENDROOT
BRANCH   4   7
ATOM      7  O1  NON d   1     -40.839  20.720  -3.501  0.00  0.00    -0.351 OA
BRANCH   7   8
ATOM      8  C13 NON d   1     -40.093  19.595  -3.983  0.00  0.00     0.175 C 
BRANCH   8   9
ATOM      9  C14 NON d   1     -40.631  19.140  -5.335  0.00  0.00     0.027 C 
BRANCH   9  10
ATOM     10  C15 NON d   1     -42.164  19.022  -5.397  0.00  0.00     0.002 C 
BRANCH  10  11
ATOM     11  C16 NON d   1     -42.834  18.271  -4.232  0.00  0.00     0.001 C 
BRANCH  11  12
ATOM     12  C17 NON d   1     -43.603  17.013  -4.651  0.00  0.00     0.009 C 
BRANCH  12  13
ATOM     13  C18 NON d   1     -45.071  17.034  -4.220  0.00  0.00     0.105 C 
BRANCH  13  14
ATOM     14  C19 NON d   1     -46.076  16.854  -5.342  0.00  0.00     0.240 C 
ATOM     15  O2  NON d   1     -46.320  17.705  -6.186  0.00  0.00    -0.271 OA
ATOM     16  N2  NON d   1     -46.645  15.592  -5.299  0.00  0.00    -0.237 N 
ATOM     17  H24 NON d   1     -46.701  15.088  -4.420  0.00  0.00     0.197 HD
BRANCH  16  18
ATOM     18  O3  NON d   1     -47.740  15.380  -6.171  0.00  0.00    -0.287 OA
ATOM     19  H25 NON d   1     -47.777  16.222  -6.663  0.00  0.00     0.244 HD
ENDBRANCH  16  18
ENDBRANCH  13  14
ENDBRANCH  12  13
ENDBRANCH  11  12
ENDBRANCH  10  11
ENDBRANCH   9  10
ENDBRANCH   8   9
ENDBRANCH   7   8
ENDBRANCH   4   7
BRANCH   1  20
ATOM     20  N1  NON d   1     -38.556  23.593   0.793  0.00  0.00    -0.381 N 
ATOM     21  C1  NON d   1     -37.882  22.810   1.935  0.00  0.00     0.150 C 
BRANCH  20  22
ATOM     22  C2  NON d   1     -38.900  25.023   0.984  0.00  0.00     0.161 C 
BRANCH  22  23
ATOM     23  C3  NON d   1     -39.988  25.449   1.977  0.00  0.00    -0.040 A 
ATOM     24  C4  NON d   1     -40.771  26.578   1.647  0.00  0.00     0.010 A 
ATOM     25  C5  NON d   1     -41.815  27.018   2.470  0.00  0.00     0.024 A 
ATOM     26  C6  NON d   1     -42.091  26.346   3.654  0.00  0.00     0.034 A 
ATOM     27 Cl1  NON d   1     -43.346  26.900   4.689  0.00  0.00    -0.084 Cl
ATOM     28  C7  NON d   1     -41.365  25.208   3.988  0.00  0.00     0.024 A 
ATOM     29  C8  NON d   1     -40.361  24.739   3.129  0.00  0.00     0.010 A 
ENDBRANCH  22  23
ENDBRANCH  20  22
ENDBRANCH   1  20
TORSDOF 12
ENDMDL
MODEL 9
REMARK VINA RESULT:   -13.769      2.513      4.920
REMARK INTER + INTRA:         -19.337
REMARK INTER:                 -17.349
REMARK INTRA:                  -1.988
REMARK CONF_INDEPENDENT:        3.580
REMARK UNBOUND:                -1.988
REMARK  12 active torsions:
REMARK  status: ('A' for Active; 'I' for Inactive)
REMARK    1  A    between atoms: N1_2  and  C2_3 
REMARK    2  A    between atoms: N1_2  and  C9_11 
REMARK    3  A    between atoms: C2_3  and  C3_4 
REMARK    4  A    between atoms: C12_14  and  O1_15 
REMARK    5  A    between atoms: O1_15  and  C13_16 
REMARK    6  A    between atoms: C13_16  and  C14_17 
REMARK    7  A    between atoms: C14_17  and  C15_18 
REMARK    8  A    between atoms: C15_18  and  C16_19 
REMARK    9  A    between atoms: C16_19  and  C17_20 
REMARK   10  A    between atoms: C17_20  and  C18_21 
REMARK   11  A    between atoms: C18_21  and  C19_22 
REMARK       I    between atoms: C19_22  and  N2_24 
REMARK   12  A    between atoms: N2_24  and  O3_25 
ROOT
ATOM      1  C9  NON d   1     -38.904  19.799  -7.214  0.00  0.00     0.030 A 
ATOM      2  C10 NON d   1     -40.297  19.736  -7.040  0.00  0.00     0.032 A 
ATOM      3  C11 NON d   1     -40.913  19.806  -5.780  0.00  0.00     0.039 A 
ATOM      4  C12 NON d   1     -40.148  19.903  -4.624  0.00  0.00     0.068 A 
ATOM      5  C20 NON d   1     -38.763  19.915  -4.755  0.00  0.00     0.039 A 
ATOM      6  C21 NON d   1     -38.155  19.866  -6.027  0.00  0.00     0.032 A 
ENDROOT
BRANCH   4   7
ATOM      7  O1  NON d   1     -40.644  19.993  -3.347  0.00  0.00    -0.351 OA
BRANCH   7   8
ATOM      8  C13 NON d   1     -40.046  19.111  -2.388  0.00  0.00     0.175 C 
BRANCH   8   9
ATOM      9  C14 NON d   1     -40.597  17.699  -2.549  0.00  0.00     0.027 C 
BRANCH   9  10
ATOM     10  C15 NON d   1     -42.103  17.640  -2.858  0.00  0.00     0.002 C 
BRANCH  10  11
ATOM     11  C16 NON d   1     -42.485  17.389  -4.327  0.00  0.00     0.001 C 
BRANCH  11  12
ATOM     12  C17 NON d   1     -43.824  18.007  -4.747  0.00  0.00     0.009 C 
BRANCH  12  13
ATOM     13  C18 NON d   1     -45.034  17.229  -4.225  0.00  0.00     0.105 C 
BRANCH  13  14
ATOM     14  C19 NON d   1     -46.102  16.926  -5.259  0.00  0.00     0.240 C 
ATOM     15  O2  NON d   1     -46.390  17.672  -6.185  0.00  0.00    -0.271 OA
ATOM     16  N2  NON d   1     -46.672  15.684  -5.033  0.00  0.00    -0.237 N 
ATOM     17  H24 NON d   1     -46.680  15.291  -4.097  0.00  0.00     0.197 HD
BRANCH  16  18
ATOM     18  O3  NON d   1     -47.815  15.380  -5.810  0.00  0.00    -0.287 OA
ATOM     19  H25 NON d   1     -47.702  15.968  -6.581  0.00  0.00     0.244 HD
ENDBRANCH  16  18
ENDBRANCH  13  14
ENDBRANCH  12  13
ENDBRANCH  11  12
ENDBRANCH  10  11
ENDBRANCH   9  10
ENDBRANCH   8   9
ENDBRANCH   7   8
ENDBRANCH   4   7
BRANCH   1  20
ATOM     20  N1  NON d   1     -38.313  19.860  -8.490  0.00  0.00    -0.381 N 
ATOM     21  C1  NON d   1     -36.877  19.329  -8.656  0.00  0.00     0.150 C 
BRANCH  20  22
ATOM     22  C2  NON d   1     -38.874  20.792  -9.497  0.00  0.00     0.161 C 
BRANCH  22  23
ATOM     23  C3  NON d   1     -39.281  22.221  -9.113  0.00  0.00    -0.040 A 
ATOM     24  C4  NON d   1     -39.727  23.076 -10.147  0.00  0.00     0.010 A 
ATOM     25  C5  NON d   1     -40.159  24.382  -9.888  0.00  0.00     0.024 A 
ATOM     26  C6  NON d   1     -40.140  24.871  -8.588  0.00  0.00     0.034 A 
ATOM     27 Cl1  NON d   1     -40.633  26.486  -8.266  0.00  0.00    -0.084 Cl
ATOM     28  C7  NON d   1     -39.744  24.043  -7.544  0.00  0.00     0.024 A 
ATOM     29  C8  NON d   1     -39.370  22.716  -7.803  0.00  0.00     0.010 A 
ENDBRANCH  22  23
ENDBRANCH  20  22
ENDBRANCH   1  20
TORSDOF 12
ENDMDL
