MODEL 1
REMARK VINA RESULT:   -15.017      0.000      0.000
REMARK INTER + INTRA:         -17.076
REMARK INTER:                 -16.508
REMARK INTRA:                  -0.568
REMARK CONF_INDEPENDENT:        1.492
REMARK UNBOUND:                -0.568
REMARK  5 active torsions:
REMARK  status: ('A' for Active; 'I' for Inactive)
REMARK    1  A    between atoms: C4_4  and  C2_2 
REMARK    2  A    between atoms: C14_24  and  C15_25 
REMARK    3  A    between atoms: C16_26  and  C17_27 
REMARK    4  A    between atoms: C17_27  and  C18_28 
REMARK    5  A    between atoms: C18_28  and  S2_29 
ROOT
ATOM      1  C4  NON d   1     -40.039  21.900  -1.314  0.00  0.00     0.187 C 
ATOM      2  N1  NON d   1     -39.027  22.945  -1.584  0.00  0.00    -0.345 N 
ATOM      3  C5  NON d   1     -39.343  23.951  -2.496  0.00  0.00     0.239 C 
ATOM      4  O1  NON d   1     -40.500  24.317  -2.692  0.00  0.00    -0.272 OA
ATOM      5  C6  NON d   1     -38.177  24.574  -3.224  0.00  0.00     0.272 C 
ATOM      6  N2  NON d   1     -38.358  24.466  -4.655  0.00  0.00    -0.182 N 
ATOM      7  N3  NON d   1     -38.317  25.544  -5.466  0.00  0.00     0.025 NA
ATOM      8  N4  NON d   1     -38.466  25.054  -6.690  0.00  0.00    -0.134 NA
ATOM      9  C7  NON d   1     -38.528  23.690  -6.556  0.00  0.00     0.216 C 
ATOM     10  N5  NON d   1     -38.384  23.275  -5.287  0.00  0.00    -0.134 NA
ATOM     11  C8  NON d   1     -38.830  22.829  -7.706  0.00  0.00     0.115 C 
ATOM     12  C9  NON d   1     -39.002  23.224  -9.018  0.00  0.00     0.087 C 
ATOM     13  S1  NON d   1     -39.565  21.897  -9.958  0.00  0.00    -0.083 SA
ATOM     14  C10 NON d   1     -39.567  20.917  -8.547  0.00  0.00     0.093 C 
ATOM     15  N6  NON d   1     -39.043  21.484  -7.475  0.00  0.00    -0.240 NA
ATOM     16  C11 NON d   1     -40.161  19.537  -8.551  0.00  0.00     0.189 C 
ATOM     17  N7  NON d   1     -39.839  18.890  -7.289  0.00  0.00    -0.355 N 
ATOM     18  C12 NON d   1     -40.478  19.306  -6.121  0.00  0.00     0.220 C 
ATOM     19  O2  NON d   1     -41.541  19.911  -6.109  0.00  0.00    -0.274 OA
ATOM     20  C13 NON d   1     -39.673  18.938  -4.889  0.00  0.00     0.139 C 
ATOM     21  C14 NON d   1     -40.392  18.865  -3.534  0.00  0.00     0.163 C 
ATOM     22  O3  NON d   1     -40.679  20.131  -2.899  0.00  0.00    -0.310 OA
ATOM     23  C19 NON d   1     -39.628  20.691  -2.227  0.00  0.00     0.282 C 
ATOM     24  O4  NON d   1     -38.468  20.293  -2.316  0.00  0.00    -0.263 OA
ATOM     25  H9  NON d   1     -38.073  22.595  -1.608  0.00  0.00     0.163 HD
ATOM     26  H15 NON d   1     -38.868  18.625  -7.186  0.00  0.00     0.162 HD
ENDROOT
BRANCH  21  27
ATOM     27  C15 NON d   1     -41.594  17.959  -3.396  0.00  0.00     0.002 C 
ATOM     28  C16 NON d   1     -42.714  17.948  -4.141  0.00  0.00    -0.027 C 
BRANCH  28  29
ATOM     29  C17 NON d   1     -43.734  16.837  -4.198  0.00  0.00     0.037 C 
BRANCH  29  30
ATOM     30  C18 NON d   1     -45.181  17.321  -4.104  0.00  0.00     0.074 C 
BRANCH  30  31
ATOM     31  S2  NON d   1     -46.207  16.639  -5.435  0.00  0.00    -0.182 SA
ATOM     32  H25 NON d   1     -47.106  17.634  -5.446  0.00  0.00     0.101 HD
ENDBRANCH  30  31
ENDBRANCH  29  30
ENDBRANCH  28  29
ENDBRANCH  21  27
BRANCH   1  33
ATOM     33  C2  NON d   1     -40.303  21.607   0.174  0.00  0.00     0.010 C 
ATOM     34  C1  NON d   1     -41.066  22.929   0.622  0.00  0.00     0.012 C 
ATOM     35  C3  NON d   1     -38.801  21.415   0.667  0.00  0.00     0.012 C 
ENDBRANCH   1  33
TORSDOF 5
ENDMDL
MODEL 2
REMARK VINA RESULT:   -13.568      1.805      2.019
REMARK INTER + INTRA:         -15.594
REMARK INTER:                 -15.059
REMARK INTRA:                  -0.535
REMARK CONF_INDEPENDENT:        1.492
REMARK UNBOUND:                -0.535
REMARK  5 active torsions:
REMARK  status: ('A' for Active; 'I' for Inactive)
REMARK    1  A    between atoms: C4_4  and  C2_2 
REMARK    2  A    between atoms: C14_24  and  C15_25 
REMARK    3  A    between atoms: C16_26  and  C17_27 
REMARK    4  A    between atoms: C17_27  and  C18_28 
REMARK    5  A    between atoms: C18_28  and  S2_29 
ROOT
ATOM      1  C4  NON d   1     -40.295  23.386  -3.036  0.00  0.00     0.187 C 
ATOM      2  N1  NON d   1     -39.005  24.103  -3.144  0.00  0.00    -0.345 N 
ATOM      3  C5  NON d   1     -38.703  24.743  -4.345  0.00  0.00     0.239 C 
ATOM      4  O1  NON d   1     -39.576  25.176  -5.094  0.00  0.00    -0.272 OA
ATOM      5  C6  NON d   1     -37.236  24.882  -4.671  0.00  0.00     0.272 C 
ATOM      6  N2  NON d   1     -36.944  24.288  -5.957  0.00  0.00    -0.182 N 
ATOM      7  N3  NON d   1     -36.335  24.980  -6.943  0.00  0.00     0.025 NA
ATOM      8  N4  NON d   1     -36.190  24.105  -7.930  0.00  0.00    -0.134 NA
ATOM      9  C7  NON d   1     -36.667  22.908  -7.461  0.00  0.00     0.216 C 
ATOM     10  N5  NON d   1     -37.082  22.967  -6.185  0.00  0.00    -0.134 NA
ATOM     11  C8  NON d   1     -36.787  21.741  -8.344  0.00  0.00     0.115 C 
ATOM     12  C9  NON d   1     -36.388  21.652  -9.663  0.00  0.00     0.087 C 
ATOM     13  S1  NON d   1     -36.943  20.172 -10.341  0.00  0.00    -0.083 SA
ATOM     14  C10 NON d   1     -37.692  19.783  -8.845  0.00  0.00     0.093 C 
ATOM     15  N6  NON d   1     -37.427  20.618  -7.857  0.00  0.00    -0.240 NA
ATOM     16  C11 NON d   1     -38.605  18.598  -8.710  0.00  0.00     0.189 C 
ATOM     17  N7  NON d   1     -38.922  18.415  -7.302  0.00  0.00    -0.355 N 
ATOM     18  C12 NON d   1     -39.778  19.315  -6.667  0.00  0.00     0.220 C 
ATOM     19  O2  NON d   1     -40.571  20.030  -7.263  0.00  0.00    -0.274 OA
ATOM     20  C13 NON d   1     -39.571  19.307  -5.165  0.00  0.00     0.139 C 
ATOM     21  C14 NON d   1     -40.697  19.838  -4.264  0.00  0.00     0.163 C 
ATOM     22  O3  NON d   1     -40.822  21.275  -4.183  0.00  0.00    -0.310 OA
ATOM     23  C19 NON d   1     -39.950  21.882  -3.324  0.00  0.00     0.282 C 
ATOM     24  O4  NON d   1     -38.985  21.316  -2.812  0.00  0.00    -0.263 OA
ATOM     25  H9  NON d   1     -38.235  23.634  -2.675  0.00  0.00     0.163 HD
ATOM     26  H15 NON d   1     -38.156  18.067  -6.740  0.00  0.00     0.162 HD
ENDROOT
BRANCH  21  27
ATOM     27  C15 NON d   1     -42.076  19.228  -4.388  0.00  0.00     0.002 C 
ATOM     28  C16 NON d   1     -42.430  17.941  -4.228  0.00  0.00    -0.027 C 
BRANCH  28  29
ATOM     29  C17 NON d   1     -43.835  17.423  -4.029  0.00  0.00     0.037 C 
BRANCH  29  30
ATOM     30  C18 NON d   1     -44.822  17.886  -5.101  0.00  0.00     0.074 C 
BRANCH  30  31
ATOM     31  S2  NON d   1     -46.088  16.632  -5.436  0.00  0.00    -0.182 SA
ATOM     32  H25 NON d   1     -47.142  17.441  -5.249  0.00  0.00     0.101 HD
ENDBRANCH  30  31
ENDBRANCH  29  30
ENDBRANCH  28  29
ENDBRANCH  21  27
BRANCH   1  33
ATOM     33  C2  NON d   1     -41.118  23.696  -1.772  0.00  0.00     0.010 C 
ATOM     34  C1  NON d   1     -41.048  25.286  -1.736  0.00  0.00     0.012 C 
ATOM     35  C3  NON d   1     -40.254  22.892  -0.702  0.00  0.00     0.012 C 
ENDBRANCH   1  33
TORSDOF 5
ENDMDL
