MODEL 1
REMARK VINA RESULT:   -35.415      0.000      0.000
REMARK INTER + INTRA:         -40.413
REMARK INTER:                 -38.099
REMARK INTRA:                  -2.314
REMARK CONF_INDEPENDENT:        2.685
REMARK UNBOUND:                -2.314
REMARK  9 active torsions:
REMARK  status: ('A' for Active; 'I' for Inactive)
REMARK    1  A    between atoms: C2_2  and  C3_3 
REMARK    2  A    between atoms: C3_3  and  C4_4 
REMARK    3  A    between atoms: C4_4  and  N1_5 
REMARK    4  A    between atoms: C7_9  and  N3_10 
REMARK    5  A    between atoms: N3_10  and  C8_11 
REMARK    6  A    between atoms: C8_11  and  C9_12 
REMARK    7  A    between atoms: C12_15  and  C13_16 
REMARK       I    between atoms: C13_16  and  N4_18 
REMARK    8  A    between atoms: N4_18  and  C14_19 
REMARK    9  A    between atoms: C19_24  and  N5_25 
ROOT
ATOM      1  C9  NON d   1     -40.916  18.699  -3.738  0.00  0.00    -0.045 A 
ATOM      2  C10 NON d   1     -41.713  19.464  -4.613  0.00  0.00     0.009 A 
ATOM      3  C11 NON d   1     -43.025  19.083  -4.948  0.00  0.00     0.017 A 
ATOM      4  C12 NON d   1     -43.579  17.918  -4.410  0.00  0.00     0.032 A 
ATOM      5  C20 NON d   1     -42.784  17.146  -3.548  0.00  0.00     0.017 A 
ATOM      6  C21 NON d   1     -41.474  17.526  -3.217  0.00  0.00     0.009 A 
ENDROOT
BRANCH   1   7
ATOM      7  C8  NON d   1     -39.537  19.234  -3.366  0.00  0.00     0.132 C 
BRANCH   7   8
ATOM      8  N3  NON d   1     -39.466  19.843  -2.046  0.00  0.00    -0.271 NA
ATOM      9  H11 NON d   1     -39.858  19.308  -1.279  0.00  0.00     0.129 HD
BRANCH   8  10
ATOM     10  C7  NON d   1     -39.919  21.158  -1.902  0.00  0.00     0.139 A 
ATOM     11  C6  NON d   1     -40.244  21.819  -0.693  0.00  0.00     0.144 A 
ATOM     12  N2  NON d   1     -40.191  21.429   0.630  0.00  0.00    -0.236 NA
ATOM     13  C23 NON d   1     -40.688  23.132  -0.786  0.00  0.00     0.166 A 
ATOM     14  C5  NON d   1     -40.601  22.474   1.316  0.00  0.00     0.212 A 
ATOM     15  N1  NON d   1     -40.919  23.529   0.508  0.00  0.00    -0.324 N 
ATOM     16  N7  NON d   1     -40.853  23.857  -1.903  0.00  0.00    -0.198 NA
ATOM     17  C22 NON d   1     -40.508  23.133  -2.984  0.00  0.00     0.226 A 
ATOM     18  N6  NON d   1     -40.046  21.867  -3.051  0.00  0.00    -0.204 NA
ATOM     19 Cl1  NON d   1     -40.668  23.937  -4.486  0.00  0.00    -0.041 Cl
BRANCH  15  20
ATOM     20  C4  NON d   1     -41.384  24.851   0.895  0.00  0.00     0.131 C 
BRANCH  20  21
ATOM     21  C3  NON d   1     -40.353  25.728   1.617  0.00  0.00     0.020 C 
BRANCH  21  22
ATOM     22  C2  NON d   1     -40.579  25.814   3.128  0.00  0.00    -0.003 C 
ATOM     23  C1  NON d   1     -41.940  26.375   3.507  0.00  0.00     0.005 C 
ENDBRANCH  21  22
ENDBRANCH  20  21
ENDBRANCH  15  20
ENDBRANCH   8  10
ENDBRANCH   7   8
ENDBRANCH   1   7
BRANCH   4  24
ATOM     24  C13 NON d   1     -44.993  17.460  -4.644  0.00  0.00     0.256 C 
ATOM     25  O1  NON d   1     -45.374  17.383  -5.811  0.00  0.00    -0.267 OA
ATOM     26  N4  NON d   1     -45.752  17.126  -3.535  0.00  0.00    -0.321 N 
ATOM     27  H16 NON d   1     -45.282  17.133  -2.644  0.00  0.00     0.169 HD
BRANCH  26  28
ATOM     28  C14 NON d   1     -47.103  16.666  -3.482  0.00  0.00     0.056 A 
ATOM     29  C15 NON d   1     -47.727  16.809  -2.225  0.00  0.00     0.031 A 
ATOM     30  C16 NON d   1     -49.045  16.397  -2.009  0.00  0.00     0.002 A 
ATOM     31  C17 NON d   1     -49.781  15.863  -3.056  0.00  0.00     0.002 A 
ATOM     32  C18 NON d   1     -49.193  15.742  -4.312  0.00  0.00     0.025 A 
ATOM     33  C19 NON d   1     -47.850  16.101  -4.541  0.00  0.00     0.033 A 
BRANCH  33  34
ATOM     34  N5  NON d   1     -47.440  16.130  -5.889  0.00  0.00    -0.301 NA
ATOM     35  H21 NON d   1     -47.498  17.084  -6.264  0.00  0.00     0.124 HD
ATOM     36  H22 NON d   1     -46.509  15.758  -6.033  0.00  0.00     0.124 HD
ENDBRANCH  33  34
ENDBRANCH  26  28
ENDBRANCH   4  24
TORSDOF 9
ENDMDL
MODEL 2
REMARK VINA RESULT:   -35.308      1.830      2.726
REMARK INTER + INTRA:         -39.835
REMARK INTER:                 -37.993
REMARK INTRA:                  -1.842
REMARK CONF_INDEPENDENT:        2.685
REMARK UNBOUND:                -1.842
REMARK  9 active torsions:
REMARK  status: ('A' for Active; 'I' for Inactive)
REMARK    1  A    between atoms: C2_2  and  C3_3 
REMARK    2  A    between atoms: C3_3  and  C4_4 
REMARK    3  A    between atoms: C4_4  and  N1_5 
REMARK    4  A    between atoms: C7_9  and  N3_10 
REMARK    5  A    between atoms: N3_10  and  C8_11 
REMARK    6  A    between atoms: C8_11  and  C9_12 
REMARK    7  A    between atoms: C12_15  and  C13_16 
REMARK       I    between atoms: C13_16  and  N4_18 
REMARK    8  A    between atoms: N4_18  and  C14_19 
REMARK    9  A    between atoms: C19_24  and  N5_25 
ROOT
ATOM      1  C9  NON d   1     -40.877  18.637  -3.774  0.00  0.00    -0.045 A 
ATOM      2  C10 NON d   1     -41.574  19.236  -4.842  0.00  0.00     0.009 A 
ATOM      3  C11 NON d   1     -42.890  18.864  -5.171  0.00  0.00     0.017 A 
ATOM      4  C12 NON d   1     -43.548  17.876  -4.433  0.00  0.00     0.032 A 
ATOM      5  C20 NON d   1     -42.852  17.267  -3.376  0.00  0.00     0.017 A 
ATOM      6  C21 NON d   1     -41.538  17.638  -3.051  0.00  0.00     0.009 A 
ENDROOT
BRANCH   1   7
ATOM      7  C8  NON d   1     -39.485  19.164  -3.437  0.00  0.00     0.132 C 
BRANCH   7   8
ATOM      8  N3  NON d   1     -39.364  19.727  -2.100  0.00  0.00    -0.271 NA
ATOM      9  H11 NON d   1     -39.677  19.142  -1.333  0.00  0.00     0.129 HD
BRANCH   8  10
ATOM     10  C7  NON d   1     -39.879  21.008  -1.876  0.00  0.00     0.139 A 
ATOM     11  C6  NON d   1     -40.178  21.988  -2.853  0.00  0.00     0.144 A 
ATOM     12  N2  NON d   1     -40.103  21.988  -4.232  0.00  0.00    -0.236 NA
ATOM     13  C23 NON d   1     -40.673  23.204  -2.401  0.00  0.00     0.166 A 
ATOM     14  C5  NON d   1     -40.531  23.176  -4.601  0.00  0.00     0.212 A 
ATOM     15  N1  NON d   1     -40.885  23.952  -3.533  0.00  0.00    -0.324 N 
ATOM     16  N7  NON d   1     -40.899  23.568  -1.130  0.00  0.00    -0.198 NA
ATOM     17  C22 NON d   1     -40.588  22.560  -0.294  0.00  0.00     0.226 A 
ATOM     18  N6  NON d   1     -40.120  21.328  -0.581  0.00  0.00    -0.204 NA
ATOM     19 Cl1  NON d   1     -40.829  22.885   1.369  0.00  0.00    -0.041 Cl
BRANCH  15  20
ATOM     20  C4  NON d   1     -41.418  25.305  -3.541  0.00  0.00     0.131 C 
BRANCH  20  21
ATOM     21  C3  NON d   1     -40.375  26.425  -3.639  0.00  0.00     0.020 C 
BRANCH  21  22
ATOM     22  C2  NON d   1     -40.315  27.312  -2.393  0.00  0.00    -0.003 C 
ATOM     23  C1  NON d   1     -41.141  26.783  -1.232  0.00  0.00     0.005 C 
ENDBRANCH  21  22
ENDBRANCH  20  21
ENDBRANCH  15  20
ENDBRANCH   8  10
ENDBRANCH   7   8
ENDBRANCH   1   7
BRANCH   4  24
ATOM     24  C13 NON d   1     -44.976  17.457  -4.654  0.00  0.00     0.256 C 
ATOM     25  O1  NON d   1     -45.396  17.475  -5.810  0.00  0.00    -0.267 OA
ATOM     26  N4  NON d   1     -45.704  17.048  -3.549  0.00  0.00    -0.321 N 
ATOM     27  H16 NON d   1     -45.206  16.980  -2.677  0.00  0.00     0.169 HD
BRANCH  26  28
ATOM     28  C14 NON d   1     -47.060  16.603  -3.487  0.00  0.00     0.056 A 
ATOM     29  C15 NON d   1     -47.663  16.722  -2.217  0.00  0.00     0.031 A 
ATOM     30  C16 NON d   1     -48.983  16.322  -1.991  0.00  0.00     0.002 A 
ATOM     31  C17 NON d   1     -49.741  15.822  -3.039  0.00  0.00     0.002 A 
ATOM     32  C18 NON d   1     -49.174  15.725  -4.308  0.00  0.00     0.025 A 
ATOM     33  C19 NON d   1     -47.829  16.073  -4.548  0.00  0.00     0.033 A 
BRANCH  33  34
ATOM     34  N5  NON d   1     -47.440  16.130  -5.901  0.00  0.00    -0.301 NA
ATOM     35  H21 NON d   1     -46.529  15.673  -6.035  0.00  0.00     0.124 HD
ATOM     36  H22 NON d   1     -48.124  15.730  -6.532  0.00  0.00     0.124 HD
ENDBRANCH  33  34
ENDBRANCH  26  28
ENDBRANCH   4  24
TORSDOF 9
ENDMDL
MODEL 3
REMARK VINA RESULT:   -35.141      1.582      2.330
REMARK INTER + INTRA:         -39.453
REMARK INTER:                 -37.826
REMARK INTRA:                  -1.627
REMARK CONF_INDEPENDENT:        2.685
REMARK UNBOUND:                -1.627
REMARK  9 active torsions:
REMARK  status: ('A' for Active; 'I' for Inactive)
REMARK    1  A    between atoms: C2_2  and  C3_3 
REMARK    2  A    between atoms: C3_3  and  C4_4 
REMARK    3  A    between atoms: C4_4  and  N1_5 
REMARK    4  A    between atoms: C7_9  and  N3_10 
REMARK    5  A    between atoms: N3_10  and  C8_11 
REMARK    6  A    between atoms: C8_11  and  C9_12 
REMARK    7  A    between atoms: C12_15  and  C13_16 
REMARK       I    between atoms: C13_16  and  N4_18 
REMARK    8  A    between atoms: N4_18  and  C14_19 
REMARK    9  A    between atoms: C19_24  and  N5_25 
ROOT
ATOM      1  C9  NON d   1     -41.029  18.838  -3.938  0.00  0.00    -0.045 A 
ATOM      2  C10 NON d   1     -41.552  17.787  -3.159  0.00  0.00     0.009 A 
ATOM      3  C11 NON d   1     -42.864  17.311  -3.339  0.00  0.00     0.017 A 
ATOM      4  C12 NON d   1     -43.691  17.878  -4.312  0.00  0.00     0.032 A 
ATOM      5  C20 NON d   1     -43.178  18.934  -5.082  0.00  0.00     0.017 A 
ATOM      6  C21 NON d   1     -41.871  19.409  -4.899  0.00  0.00     0.009 A 
ENDROOT
BRANCH   1   7
ATOM      7  C8  NON d   1     -39.570  19.231  -3.730  0.00  0.00     0.132 C 
BRANCH   7   8
ATOM      8  N3  NON d   1     -39.178  19.362  -2.335  0.00  0.00    -0.271 NA
ATOM      9  H11 NON d   1     -39.625  18.731  -1.678  0.00  0.00     0.129 HD
BRANCH   8  10
ATOM     10  C7  NON d   1     -39.201  20.636  -1.761  0.00  0.00     0.139 A 
ATOM     11  C6  NON d   1     -39.949  21.755  -2.201  0.00  0.00     0.144 A 
ATOM     12  N2  NON d   1     -40.852  21.930  -3.230  0.00  0.00    -0.236 NA
ATOM     13  C23 NON d   1     -39.810  22.935  -1.482  0.00  0.00     0.166 A 
ATOM     14  C5  NON d   1     -41.240  23.184  -3.141  0.00  0.00     0.212 A 
ATOM     15  N1  NON d   1     -40.637  23.838  -2.104  0.00  0.00    -0.324 N 
ATOM     16  N7  NON d   1     -39.035  23.145  -0.407  0.00  0.00    -0.198 NA
ATOM     17  C22 NON d   1     -38.380  22.017  -0.076  0.00  0.00     0.226 A 
ATOM     18  N6  NON d   1     -38.426  20.801  -0.660  0.00  0.00    -0.204 NA
ATOM     19 Cl1  NON d   1     -37.350  22.139   1.285  0.00  0.00    -0.041 Cl
BRANCH  15  20
ATOM     20  C4  NON d   1     -40.824  25.215  -1.677  0.00  0.00     0.131 C 
BRANCH  20  21
ATOM     21  C3  NON d   1     -40.555  25.488  -0.192  0.00  0.00     0.020 C 
BRANCH  21  22
ATOM     22  C2  NON d   1     -41.436  24.662   0.748  0.00  0.00    -0.003 C 
ATOM     23  C1  NON d   1     -40.994  24.719   2.201  0.00  0.00     0.005 C 
ENDBRANCH  21  22
ENDBRANCH  20  21
ENDBRANCH  15  20
ENDBRANCH   8  10
ENDBRANCH   7   8
ENDBRANCH   1   7
BRANCH   4  24
ATOM     24  C13 NON d   1     -45.080  17.396  -4.635  0.00  0.00     0.256 C 
ATOM     25  O1  NON d   1     -45.440  17.461  -5.810  0.00  0.00    -0.267 OA
ATOM     26  N4  NON d   1     -45.839  16.882  -3.598  0.00  0.00    -0.321 N 
ATOM     27  H16 NON d   1     -45.384  16.789  -2.704  0.00  0.00     0.169 HD
BRANCH  26  28
ATOM     28  C14 NON d   1     -47.169  16.361  -3.635  0.00  0.00     0.056 A 
ATOM     29  C15 NON d   1     -47.820  16.311  -2.385  0.00  0.00     0.031 A 
ATOM     30  C16 NON d   1     -49.121  15.819  -2.254  0.00  0.00     0.002 A 
ATOM     31  C17 NON d   1     -49.814  15.395  -3.378  0.00  0.00     0.002 A 
ATOM     32  C18 NON d   1     -49.200  15.464  -4.626  0.00  0.00     0.025 A 
ATOM     33  C19 NON d   1     -47.871  15.907  -4.776  0.00  0.00     0.033 A 
BRANCH  33  34
ATOM     34  N5  NON d   1     -47.440  16.130  -6.099  0.00  0.00    -0.301 NA
ATOM     35  H21 NON d   1     -48.240  16.142  -6.742  0.00  0.00     0.124 HD
ATOM     36  H22 NON d   1     -46.897  16.979  -6.206  0.00  0.00     0.124 HD
ENDBRANCH  33  34
ENDBRANCH  26  28
ENDBRANCH   4  24
TORSDOF 9
ENDMDL
MODEL 4
REMARK VINA RESULT:   -34.959      0.628      1.154
REMARK INTER + INTRA:         -39.959
REMARK INTER:                 -37.643
REMARK INTRA:                  -2.315
REMARK CONF_INDEPENDENT:        2.685
REMARK UNBOUND:                -2.315
REMARK  9 active torsions:
REMARK  status: ('A' for Active; 'I' for Inactive)
REMARK    1  A    between atoms: C2_2  and  C3_3 
REMARK    2  A    between atoms: C3_3  and  C4_4 
REMARK    3  A    between atoms: C4_4  and  N1_5 
REMARK    4  A    between atoms: C7_9  and  N3_10 
REMARK    5  A    between atoms: N3_10  and  C8_11 
REMARK    6  A    between atoms: C8_11  and  C9_12 
REMARK    7  A    between atoms: C12_15  and  C13_16 
REMARK       I    between atoms: C13_16  and  N4_18 
REMARK    8  A    between atoms: N4_18  and  C14_19 
REMARK    9  A    between atoms: C19_24  and  N5_25 
ROOT
ATOM      1  C9  NON d   1     -40.999  18.675  -3.864  0.00  0.00    -0.045 A 
ATOM      2  C10 NON d   1     -41.587  17.779  -2.948  0.00  0.00     0.009 A 
ATOM      3  C11 NON d   1     -42.874  17.249  -3.151  0.00  0.00     0.017 A 
ATOM      4  C12 NON d   1     -43.612  17.604  -4.283  0.00  0.00     0.032 A 
ATOM      5  C20 NON d   1     -43.035  18.507  -5.191  0.00  0.00     0.017 A 
ATOM      6  C21 NON d   1     -41.752  19.036  -4.986  0.00  0.00     0.009 A 
ENDROOT
BRANCH   1   7
ATOM      7  C8  NON d   1     -39.566  19.131  -3.605  0.00  0.00     0.132 C 
BRANCH   7   8
ATOM      8  N3  NON d   1     -39.351  19.712  -2.288  0.00  0.00    -0.271 NA
ATOM      9  H11 NON d   1     -39.628  19.147  -1.493  0.00  0.00     0.129 HD
BRANCH   8  10
ATOM     10  C7  NON d   1     -39.823  21.008  -2.055  0.00  0.00     0.139 A 
ATOM     11  C6  NON d   1     -40.115  21.594  -0.800  0.00  0.00     0.144 A 
ATOM     12  N2  NON d   1     -40.005  21.133   0.497  0.00  0.00    -0.236 NA
ATOM     13  C23 NON d   1     -40.587  22.900  -0.804  0.00  0.00     0.166 A 
ATOM     14  C5  NON d   1     -40.409  22.130   1.254  0.00  0.00     0.212 A 
ATOM     15  N1  NON d   1     -40.776  23.221   0.518  0.00  0.00    -0.324 N 
ATOM     16  N7  NON d   1     -40.808  23.682  -1.872  0.00  0.00    -0.198 NA
ATOM     17  C22 NON d   1     -40.489  23.026  -3.003  0.00  0.00     0.226 A 
ATOM     18  N6  NON d   1     -40.006  21.776  -3.158  0.00  0.00    -0.204 NA
ATOM     19 Cl1  NON d   1     -40.720  23.908  -4.452  0.00  0.00    -0.041 Cl
BRANCH  15  20
ATOM     20  C4  NON d   1     -41.252  24.510   0.994  0.00  0.00     0.131 C 
BRANCH  20  21
ATOM     21  C3  NON d   1     -41.069  24.767   2.495  0.00  0.00     0.020 C 
BRANCH  21  22
ATOM     22  C2  NON d   1     -39.623  25.080   2.887  0.00  0.00    -0.003 C 
ATOM     23  C1  NON d   1     -38.827  25.753   1.782  0.00  0.00     0.005 C 
ENDBRANCH  21  22
ENDBRANCH  20  21
ENDBRANCH  15  20
ENDBRANCH   8  10
ENDBRANCH   7   8
ENDBRANCH   1   7
BRANCH   4  24
ATOM     24  C13 NON d   1     -44.963  17.041  -4.631  0.00  0.00     0.256 C 
ATOM     25  O1  NON d   1     -45.164  16.743  -5.808  0.00  0.00    -0.267 OA
ATOM     26  N4  NON d   1     -45.871  16.865  -3.600  0.00  0.00    -0.321 N 
ATOM     27  H16 NON d   1     -45.540  17.050  -2.667  0.00  0.00     0.169 HD
BRANCH  26  28
ATOM     28  C14 NON d   1     -47.202  16.351  -3.659  0.00  0.00     0.056 A 
ATOM     29  C15 NON d   1     -47.871  16.300  -2.418  0.00  0.00     0.031 A 
ATOM     30  C16 NON d   1     -49.177  15.814  -2.308  0.00  0.00     0.002 A 
ATOM     31  C17 NON d   1     -49.856  15.398  -3.443  0.00  0.00     0.002 A 
ATOM     32  C18 NON d   1     -49.224  15.469  -4.682  0.00  0.00     0.025 A 
ATOM     33  C19 NON d   1     -47.890  15.906  -4.811  0.00  0.00     0.033 A 
BRANCH  33  34
ATOM     34  N5  NON d   1     -47.440  16.131  -6.127  0.00  0.00    -0.301 NA
ATOM     35  H21 NON d   1     -47.134  17.105  -6.243  0.00  0.00     0.124 HD
ATOM     36  H22 NON d   1     -46.699  15.501  -6.410  0.00  0.00     0.124 HD
ENDBRANCH  33  34
ENDBRANCH  26  28
ENDBRANCH   4  24
TORSDOF 9
ENDMDL
MODEL 5
REMARK VINA RESULT:   -34.325      3.940      5.816
REMARK INTER + INTRA:         -38.739
REMARK INTER:                 -37.010
REMARK INTRA:                  -1.730
REMARK CONF_INDEPENDENT:        2.685
REMARK UNBOUND:                -1.730
REMARK  9 active torsions:
REMARK  status: ('A' for Active; 'I' for Inactive)
REMARK    1  A    between atoms: C2_2  and  C3_3 
REMARK    2  A    between atoms: C3_3  and  C4_4 
REMARK    3  A    between atoms: C4_4  and  N1_5 
REMARK    4  A    between atoms: C7_9  and  N3_10 
REMARK    5  A    between atoms: N3_10  and  C8_11 
REMARK    6  A    between atoms: C8_11  and  C9_12 
REMARK    7  A    between atoms: C12_15  and  C13_16 
REMARK       I    between atoms: C13_16  and  N4_18 
REMARK    8  A    between atoms: N4_18  and  C14_19 
REMARK    9  A    between atoms: C19_24  and  N5_25 
ROOT
ATOM      1  C9  NON d   1     -41.025  18.788  -3.654  0.00  0.00    -0.045 A 
ATOM      2  C10 NON d   1     -41.807  19.555  -4.540  0.00  0.00     0.009 A 
ATOM      3  C11 NON d   1     -43.109  19.168  -4.907  0.00  0.00     0.017 A 
ATOM      4  C12 NON d   1     -43.666  17.995  -4.391  0.00  0.00     0.032 A 
ATOM      5  C20 NON d   1     -42.886  17.221  -3.517  0.00  0.00     0.017 A 
ATOM      6  C21 NON d   1     -41.586  17.608  -3.155  0.00  0.00     0.009 A 
ENDROOT
BRANCH   1   7
ATOM      7  C8  NON d   1     -39.658  19.330  -3.247  0.00  0.00     0.132 C 
BRANCH   7   8
ATOM      8  N3  NON d   1     -39.393  20.687  -3.701  0.00  0.00    -0.271 NA
ATOM      9  H11 NON d   1     -40.026  21.406  -3.369  0.00  0.00     0.129 HD
BRANCH   8  10
ATOM     10  C7  NON d   1     -39.209  20.900  -5.070  0.00  0.00     0.139 A 
ATOM     11  C6  NON d   1     -39.025  22.145  -5.721  0.00  0.00     0.144 A 
ATOM     12  N2  NON d   1     -38.938  23.440  -5.254  0.00  0.00    -0.236 NA
ATOM     13  C23 NON d   1     -38.873  22.122  -7.101  0.00  0.00     0.166 A 
ATOM     14  C5  NON d   1     -38.747  24.181  -6.324  0.00  0.00     0.212 A 
ATOM     15  N1  NON d   1     -38.704  23.435  -7.468  0.00  0.00    -0.324 N 
ATOM     16  N7  NON d   1     -38.884  21.047  -7.904  0.00  0.00    -0.198 NA
ATOM     17  C22 NON d   1     -39.056  19.926  -7.178  0.00  0.00     0.226 A 
ATOM     18  N6  NON d   1     -39.199  19.787  -5.844  0.00  0.00    -0.204 NA
ATOM     19 Cl1  NON d   1     -39.089  18.470  -8.077  0.00  0.00    -0.041 Cl
BRANCH  15  20
ATOM     20  C4  NON d   1     -38.491  23.890  -8.832  0.00  0.00     0.131 C 
BRANCH  20  21
ATOM     21  C3  NON d   1     -39.761  24.075  -9.672  0.00  0.00     0.020 C 
BRANCH  21  22
ATOM     22  C2  NON d   1     -39.596  23.639 -11.130  0.00  0.00    -0.003 C 
ATOM     23  C1  NON d   1     -39.211  22.177 -11.286  0.00  0.00     0.005 C 
ENDBRANCH  21  22
ENDBRANCH  20  21
ENDBRANCH  15  20
ENDBRANCH   8  10
ENDBRANCH   7   8
ENDBRANCH   1   7
BRANCH   4  24
ATOM     24  C13 NON d   1     -45.072  17.530  -4.660  0.00  0.00     0.256 C 
ATOM     25  O1  NON d   1     -45.480  17.608  -5.818  0.00  0.00    -0.267 OA
ATOM     26  N4  NON d   1     -45.794  17.016  -3.595  0.00  0.00    -0.321 N 
ATOM     27  H16 NON d   1     -45.303  16.911  -2.722  0.00  0.00     0.169 HD
BRANCH  26  28
ATOM     28  C14 NON d   1     -47.129  16.510  -3.582  0.00  0.00     0.056 A 
ATOM     29  C15 NON d   1     -47.762  16.544  -2.321  0.00  0.00     0.031 A 
ATOM     30  C16 NON d   1     -49.066  16.077  -2.142  0.00  0.00     0.002 A 
ATOM     31  C17 NON d   1     -49.780  15.592  -3.227  0.00  0.00     0.002 A 
ATOM     32  C18 NON d   1     -49.185  15.577  -4.486  0.00  0.00     0.025 A 
ATOM     33  C19 NON d   1     -47.853  15.994  -4.682  0.00  0.00     0.033 A 
BRANCH  33  34
ATOM     34  N5  NON d   1     -47.440  16.130  -6.022  0.00  0.00    -0.301 NA
ATOM     35  H21 NON d   1     -48.194  15.855  -6.663  0.00  0.00     0.124 HD
ATOM     36  H22 NON d   1     -47.116  17.063  -6.249  0.00  0.00     0.124 HD
ENDBRANCH  33  34
ENDBRANCH  26  28
ENDBRANCH   4  24
TORSDOF 9
ENDMDL
MODEL 6
REMARK VINA RESULT:   -34.196      1.900      2.412
REMARK INTER + INTRA:         -38.477
REMARK INTER:                 -36.880
REMARK INTRA:                  -1.597
REMARK CONF_INDEPENDENT:        2.685
REMARK UNBOUND:                -1.597
REMARK  9 active torsions:
REMARK  status: ('A' for Active; 'I' for Inactive)
REMARK    1  A    between atoms: C2_2  and  C3_3 
REMARK    2  A    between atoms: C3_3  and  C4_4 
REMARK    3  A    between atoms: C4_4  and  N1_5 
REMARK    4  A    between atoms: C7_9  and  N3_10 
REMARK    5  A    between atoms: N3_10  and  C8_11 
REMARK    6  A    between atoms: C8_11  and  C9_12 
REMARK    7  A    between atoms: C12_15  and  C13_16 
REMARK       I    between atoms: C13_16  and  N4_18 
REMARK    8  A    between atoms: N4_18  and  C14_19 
REMARK    9  A    between atoms: C19_24  and  N5_25 
ROOT
ATOM      1  C9  NON d   1     -40.896  18.750  -3.797  0.00  0.00    -0.045 A 
ATOM      2  C10 NON d   1     -41.478  18.979  -5.060  0.00  0.00     0.009 A 
ATOM      3  C11 NON d   1     -42.767  18.513  -5.380  0.00  0.00     0.017 A 
ATOM      4  C12 NON d   1     -43.513  17.803  -4.435  0.00  0.00     0.032 A 
ATOM      5  C20 NON d   1     -42.932  17.562  -3.180  0.00  0.00     0.017 A 
ATOM      6  C21 NON d   1     -41.645  18.025  -2.864  0.00  0.00     0.009 A 
ENDROOT
BRANCH   1   7
ATOM      7  C8  NON d   1     -39.530  19.365  -3.512  0.00  0.00     0.132 C 
BRANCH   7   8
ATOM      8  N3  NON d   1     -39.536  20.817  -3.407  0.00  0.00    -0.271 NA
ATOM      9  H11 NON d   1     -38.889  21.317  -4.007  0.00  0.00     0.129 HD
BRANCH   8  10
ATOM     10  C7  NON d   1     -39.441  21.386  -2.134  0.00  0.00     0.139 A 
ATOM     11  C6  NON d   1     -38.402  21.194  -1.191  0.00  0.00     0.144 A 
ATOM     12  N2  NON d   1     -37.225  20.473  -1.230  0.00  0.00    -0.236 NA
ATOM     13  C23 NON d   1     -38.518  21.854   0.025  0.00  0.00     0.166 A 
ATOM     14  C5  NON d   1     -36.652  20.685  -0.065  0.00  0.00     0.212 A 
ATOM     15  N1  NON d   1     -37.393  21.509   0.733  0.00  0.00    -0.324 N 
ATOM     16  N7  NON d   1     -39.515  22.659   0.421  0.00  0.00    -0.198 NA
ATOM     17  C22 NON d   1     -40.437  22.774  -0.554  0.00  0.00     0.226 A 
ATOM     18  N6  NON d   1     -40.454  22.216  -1.782  0.00  0.00    -0.204 NA
ATOM     19 Cl1  NON d   1     -41.773  23.779  -0.184  0.00  0.00    -0.041 Cl
BRANCH  15  20
ATOM     20  C4  NON d   1     -37.082  21.985   2.071  0.00  0.00     0.131 C 
BRANCH  20  21
ATOM     21  C3  NON d   1     -36.230  23.259   2.135  0.00  0.00     0.020 C 
BRANCH  21  22
ATOM     22  C2  NON d   1     -37.057  24.537   2.298  0.00  0.00    -0.003 C 
ATOM     23  C1  NON d   1     -38.432  24.297   2.900  0.00  0.00     0.005 C 
ENDBRANCH  21  22
ENDBRANCH  20  21
ENDBRANCH  15  20
ENDBRANCH   8  10
ENDBRANCH   7   8
ENDBRANCH   1   7
BRANCH   4  24
ATOM     24  C13 NON d   1     -44.924  17.326  -4.649  0.00  0.00     0.256 C 
ATOM     25  O1  NON d   1     -45.277  17.112  -5.807  0.00  0.00    -0.267 OA
ATOM     26  N4  NON d   1     -45.712  17.129  -3.527  0.00  0.00    -0.321 N 
ATOM     27  H16 NON d   1     -45.264  17.241  -2.632  0.00  0.00     0.169 HD
BRANCH  26  28
ATOM     28  C14 NON d   1     -47.067  16.684  -3.454  0.00  0.00     0.056 A 
ATOM     29  C15 NON d   1     -47.674  16.842  -2.190  0.00  0.00     0.031 A 
ATOM     30  C16 NON d   1     -48.993  16.446  -1.954  0.00  0.00     0.002 A 
ATOM     31  C17 NON d   1     -49.748  15.911  -2.988  0.00  0.00     0.002 A 
ATOM     32  C18 NON d   1     -49.177  15.775  -4.251  0.00  0.00     0.025 A 
ATOM     33  C19 NON d   1     -47.833  16.118  -4.499  0.00  0.00     0.033 A 
BRANCH  33  34
ATOM     34  N5  NON d   1     -47.440  16.133  -5.852  0.00  0.00    -0.301 NA
ATOM     35  H21 NON d   1     -48.077  15.562  -6.420  0.00  0.00     0.124 HD
ATOM     36  H22 NON d   1     -47.374  17.067  -6.240  0.00  0.00     0.124 HD
ENDBRANCH  33  34
ENDBRANCH  26  28
ENDBRANCH   4  24
TORSDOF 9
ENDMDL
MODEL 7
REMARK VINA RESULT:   -34.104      2.999      5.372
REMARK INTER + INTRA:         -38.270
REMARK INTER:                 -36.789
REMARK INTRA:                  -1.481
REMARK CONF_INDEPENDENT:        2.685
REMARK UNBOUND:                -1.481
REMARK  9 active torsions:
REMARK  status: ('A' for Active; 'I' for Inactive)
REMARK    1  A    between atoms: C2_2  and  C3_3 
REMARK    2  A    between atoms: C3_3  and  C4_4 
REMARK    3  A    between atoms: C4_4  and  N1_5 
REMARK    4  A    between atoms: C7_9  and  N3_10 
REMARK    5  A    between atoms: N3_10  and  C8_11 
REMARK    6  A    between atoms: C8_11  and  C9_12 
REMARK    7  A    between atoms: C12_15  and  C13_16 
REMARK       I    between atoms: C13_16  and  N4_18 
REMARK    8  A    between atoms: N4_18  and  C14_19 
REMARK    9  A    between atoms: C19_24  and  N5_25 
ROOT
ATOM      1  C9  NON d   1     -41.031  18.866  -3.686  0.00  0.00    -0.045 A 
ATOM      2  C10 NON d   1     -41.647  19.163  -4.918  0.00  0.00     0.009 A 
ATOM      3  C11 NON d   1     -42.890  18.611  -5.279  0.00  0.00     0.017 A 
ATOM      4  C12 NON d   1     -43.553  17.742  -4.409  0.00  0.00     0.032 A 
ATOM      5  C20 NON d   1     -42.937  17.433  -3.186  0.00  0.00     0.017 A 
ATOM      6  C21 NON d   1     -41.696  17.983  -2.829  0.00  0.00     0.009 A 
ENDROOT
BRANCH   1   7
ATOM      7  C8  NON d   1     -39.725  19.578  -3.344  0.00  0.00     0.132 C 
BRANCH   7   8
ATOM      8  N3  NON d   1     -39.897  20.920  -2.810  0.00  0.00    -0.271 NA
ATOM      9  H11 NON d   1     -40.639  21.045  -2.130  0.00  0.00     0.129 HD
BRANCH   8  10
ATOM     10  C7  NON d   1     -39.984  21.983  -3.714  0.00  0.00     0.139 A 
ATOM     11  C6  NON d   1     -39.611  21.972  -5.080  0.00  0.00     0.144 A 
ATOM     12  N2  NON d   1     -39.116  20.983  -5.906  0.00  0.00    -0.236 NA
ATOM     13  C23 NON d   1     -39.775  23.153  -5.792  0.00  0.00     0.166 A 
ATOM     14  C5  NON d   1     -38.975  21.554  -7.083  0.00  0.00     0.212 A 
ATOM     15  N1  NON d   1     -39.355  22.867  -7.068  0.00  0.00    -0.324 N 
ATOM     16  N7  NON d   1     -40.246  24.322  -5.332  0.00  0.00    -0.198 NA
ATOM     17  C22 NON d   1     -40.574  24.212  -4.031  0.00  0.00     0.226 A 
ATOM     18  N6  NON d   1     -40.491  23.139  -3.218  0.00  0.00    -0.204 NA
ATOM     19 Cl1  NON d   1     -41.194  25.635  -3.310  0.00  0.00    -0.041 Cl
BRANCH  15  20
ATOM     20  C4  NON d   1     -39.363  23.814  -8.171  0.00  0.00     0.131 C 
BRANCH  20  21
ATOM     21  C3  NON d   1     -38.777  23.295  -9.491  0.00  0.00     0.020 C 
BRANCH  21  22
ATOM     22  C2  NON d   1     -39.540  23.778 -10.727  0.00  0.00    -0.003 C 
ATOM     23  C1  NON d   1     -39.606  22.746 -11.840  0.00  0.00     0.005 C 
ENDBRANCH  21  22
ENDBRANCH  20  21
ENDBRANCH  15  20
ENDBRANCH   8  10
ENDBRANCH   7   8
ENDBRANCH   1   7
BRANCH   4  24
ATOM     24  C13 NON d   1     -44.916  17.156  -4.665  0.00  0.00     0.256 C 
ATOM     25  O1  NON d   1     -45.156  16.767  -5.807  0.00  0.00    -0.267 OA
ATOM     26  N4  NON d   1     -45.788  17.065  -3.594  0.00  0.00    -0.321 N 
ATOM     27  H16 NON d   1     -45.426  17.324  -2.690  0.00  0.00     0.169 HD
BRANCH  26  28
ATOM     28  C14 NON d   1     -47.121  16.553  -3.567  0.00  0.00     0.056 A 
ATOM     29  C15 NON d   1     -47.748  16.604  -2.304  0.00  0.00     0.031 A 
ATOM     30  C16 NON d   1     -49.050  16.133  -2.112  0.00  0.00     0.002 A 
ATOM     31  C17 NON d   1     -49.766  15.628  -3.187  0.00  0.00     0.002 A 
ATOM     32  C18 NON d   1     -49.176  15.597  -4.448  0.00  0.00     0.025 A 
ATOM     33  C19 NON d   1     -47.847  16.018  -4.656  0.00  0.00     0.033 A 
BRANCH  33  34
ATOM     34  N5  NON d   1     -47.440  16.135  -6.000  0.00  0.00    -0.301 NA
ATOM     35  H21 NON d   1     -48.211  15.893  -6.634  0.00  0.00     0.124 HD
ATOM     36  H22 NON d   1     -47.077  17.052  -6.230  0.00  0.00     0.124 HD
ENDBRANCH  33  34
ENDBRANCH  26  28
ENDBRANCH   4  24
TORSDOF 9
ENDMDL
MODEL 8
REMARK VINA RESULT:   -33.855      3.768      6.118
REMARK INTER + INTRA:         -38.613
REMARK INTER:                 -36.540
REMARK INTRA:                  -2.073
REMARK CONF_INDEPENDENT:        2.685
REMARK UNBOUND:                -2.073
REMARK  9 active torsions:
REMARK  status: ('A' for Active; 'I' for Inactive)
REMARK    1  A    between atoms: C2_2  and  C3_3 
REMARK    2  A    between atoms: C3_3  and  C4_4 
REMARK    3  A    between atoms: C4_4  and  N1_5 
REMARK    4  A    between atoms: C7_9  and  N3_10 
REMARK    5  A    between atoms: N3_10  and  C8_11 
REMARK    6  A    between atoms: C8_11  and  C9_12 
REMARK    7  A    between atoms: C12_15  and  C13_16 
REMARK       I    between atoms: C13_16  and  N4_18 
REMARK    8  A    between atoms: N4_18  and  C14_19 
REMARK    9  A    between atoms: C19_24  and  N5_25 
ROOT
ATOM      1  C9  NON d   1     -40.835  18.350  -3.699  0.00  0.00    -0.045 A 
ATOM      2  C10 NON d   1     -41.533  18.885  -4.801  0.00  0.00     0.009 A 
ATOM      3  C11 NON d   1     -42.815  18.430  -5.159  0.00  0.00     0.017 A 
ATOM      4  C12 NON d   1     -43.436  17.420  -4.419  0.00  0.00     0.032 A 
ATOM      5  C20 NON d   1     -42.738  16.876  -3.329  0.00  0.00     0.017 A 
ATOM      6  C21 NON d   1     -41.459  17.330  -2.974  0.00  0.00     0.009 A 
ENDROOT
BRANCH   1   7
ATOM      7  C8  NON d   1     -39.487  18.965  -3.335  0.00  0.00     0.132 C 
BRANCH   7   8
ATOM      8  N3  NON d   1     -38.659  19.316  -4.480  0.00  0.00    -0.271 NA
ATOM      9  H11 NON d   1     -37.665  19.410  -4.307  0.00  0.00     0.129 HD
BRANCH   8  10
ATOM     10  C7  NON d   1     -39.046  20.409  -5.262  0.00  0.00     0.139 A 
ATOM     11  C6  NON d   1     -39.137  20.455  -6.674  0.00  0.00     0.144 A 
ATOM     12  N2  NON d   1     -38.929  19.508  -7.656  0.00  0.00    -0.236 NA
ATOM     13  C23 NON d   1     -39.534  21.657  -7.245  0.00  0.00     0.166 A 
ATOM     14  C5  NON d   1     -39.184  20.124  -8.790  0.00  0.00     0.212 A 
ATOM     15  N1  NON d   1     -39.550  21.427  -8.599  0.00  0.00    -0.324 N 
ATOM     16  N7  NON d   1     -39.841  22.798  -6.609  0.00  0.00    -0.198 NA
ATOM     17  C22 NON d   1     -39.727  22.634  -5.278  0.00  0.00     0.226 A 
ATOM     18  N6  NON d   1     -39.374  21.535  -4.580  0.00  0.00    -0.204 NA
ATOM     19 Cl1  NON d   1     -40.091  24.016  -4.336  0.00  0.00    -0.041 Cl
BRANCH  15  20
ATOM     20  C4  NON d   1     -39.925  22.413  -9.599  0.00  0.00     0.131 C 
BRANCH  20  21
ATOM     21  C3  NON d   1     -38.790  22.890 -10.514  0.00  0.00     0.020 C 
BRANCH  21  22
ATOM     22  C2  NON d   1     -39.275  23.720 -11.704  0.00  0.00    -0.003 C 
ATOM     23  C1  NON d   1     -39.902  22.887 -12.810  0.00  0.00     0.005 C 
ENDBRANCH  21  22
ENDBRANCH  20  21
ENDBRANCH  15  20
ENDBRANCH   8  10
ENDBRANCH   7   8
ENDBRANCH   1   7
BRANCH   4  24
ATOM     24  C13 NON d   1     -44.831  16.914  -4.672  0.00  0.00     0.256 C 
ATOM     25  O1  NON d   1     -45.084  16.504  -5.803  0.00  0.00    -0.267 OA
ATOM     26  N4  NON d   1     -45.716  16.912  -3.607  0.00  0.00    -0.321 N 
ATOM     27  H16 NON d   1     -45.347  17.176  -2.708  0.00  0.00     0.169 HD
BRANCH  26  28
ATOM     28  C14 NON d   1     -47.079  16.486  -3.579  0.00  0.00     0.056 A 
ATOM     29  C15 NON d   1     -47.694  16.555  -2.312  0.00  0.00     0.031 A 
ATOM     30  C16 NON d   1     -49.022  16.165  -2.118  0.00  0.00     0.002 A 
ATOM     31  C17 NON d   1     -49.776  15.726  -3.196  0.00  0.00     0.002 A 
ATOM     32  C18 NON d   1     -49.197  15.679  -4.461  0.00  0.00     0.025 A 
ATOM     33  C19 NON d   1     -47.845  16.017  -4.672  0.00  0.00     0.033 A 
BRANCH  33  34
ATOM     34  N5  NON d   1     -47.440  16.130  -6.016  0.00  0.00    -0.301 NA
ATOM     35  H21 NON d   1     -47.050  17.063  -6.199  0.00  0.00     0.124 HD
ATOM     36  H22 NON d   1     -46.777  15.417  -6.297  0.00  0.00     0.124 HD
ENDBRANCH  33  34
ENDBRANCH  26  28
ENDBRANCH   4  24
TORSDOF 9
ENDMDL
MODEL 9
REMARK VINA RESULT:   -33.608      2.406      3.352
REMARK INTER + INTRA:         -37.837
REMARK INTER:                 -36.293
REMARK INTRA:                  -1.544
REMARK CONF_INDEPENDENT:        2.685
REMARK UNBOUND:                -1.544
REMARK  9 active torsions:
REMARK  status: ('A' for Active; 'I' for Inactive)
REMARK    1  A    between atoms: C2_2  and  C3_3 
REMARK    2  A    between atoms: C3_3  and  C4_4 
REMARK    3  A    between atoms: C4_4  and  N1_5 
REMARK    4  A    between atoms: C7_9  and  N3_10 
REMARK    5  A    between atoms: N3_10  and  C8_11 
REMARK    6  A    between atoms: C8_11  and  C9_12 
REMARK    7  A    between atoms: C12_15  and  C13_16 
REMARK       I    between atoms: C13_16  and  N4_18 
REMARK    8  A    between atoms: N4_18  and  C14_19 
REMARK    9  A    between atoms: C19_24  and  N5_25 
ROOT
ATOM      1  C9  NON d   1     -40.731  18.190  -3.736  0.00  0.00    -0.045 A 
ATOM      2  C10 NON d   1     -41.143  17.994  -5.069  0.00  0.00     0.009 A 
ATOM      3  C11 NON d   1     -42.461  17.621  -5.391  0.00  0.00     0.017 A 
ATOM      4  C12 NON d   1     -43.407  17.435  -4.380  0.00  0.00     0.032 A 
ATOM      5  C20 NON d   1     -42.997  17.617  -3.049  0.00  0.00     0.017 A 
ATOM      6  C21 NON d   1     -41.682  17.986  -2.730  0.00  0.00     0.009 A 
ENDROOT
BRANCH   1   7
ATOM      7  C8  NON d   1     -39.306  18.677  -3.487  0.00  0.00     0.132 C 
BRANCH   7   8
ATOM      8  N3  NON d   1     -38.575  19.032  -4.695  0.00  0.00    -0.271 NA
ATOM      9  H11 NON d   1     -37.568  18.926  -4.661  0.00  0.00     0.129 HD
BRANCH   8  10
ATOM     10  C7  NON d   1     -38.839  20.272  -5.284  0.00  0.00     0.139 A 
ATOM     11  C6  NON d   1     -39.353  21.426  -4.644  0.00  0.00     0.144 A 
ATOM     12  N2  NON d   1     -39.699  21.695  -3.335  0.00  0.00    -0.236 NA
ATOM     13  C23 NON d   1     -39.549  22.553  -5.431  0.00  0.00     0.166 A 
ATOM     14  C5  NON d   1     -40.101  22.947  -3.334  0.00  0.00     0.212 A 
ATOM     15  N1  NON d   1     -40.035  23.512  -4.576  0.00  0.00    -0.324 N 
ATOM     16  N7  NON d   1     -39.311  22.680  -6.746  0.00  0.00    -0.198 NA
ATOM     17  C22 NON d   1     -38.819  21.529  -7.243  0.00  0.00     0.226 A 
ATOM     18  N6  NON d   1     -38.559  20.368  -6.608  0.00  0.00    -0.204 NA
ATOM     19 Cl1  NON d   1     -38.466  21.546  -8.917  0.00  0.00    -0.041 Cl
BRANCH  15  20
ATOM     20  C4  NON d   1     -40.372  24.872  -4.966  0.00  0.00     0.131 C 
BRANCH  20  21
ATOM     21  C3  NON d   1     -41.184  25.670  -3.939  0.00  0.00     0.020 C 
BRANCH  21  22
ATOM     22  C2  NON d   1     -40.382  26.056  -2.695  0.00  0.00    -0.003 C 
ATOM     23  C1  NON d   1     -40.862  25.371  -1.426  0.00  0.00     0.005 C 
ENDBRANCH  21  22
ENDBRANCH  20  21
ENDBRANCH  15  20
ENDBRANCH   8  10
ENDBRANCH   7   8
ENDBRANCH   1   7
BRANCH   4  24
ATOM     24  C13 NON d   1     -44.857  17.108  -4.619  0.00  0.00     0.256 C 
ATOM     25  O1  NON d   1     -45.239  17.065  -5.788  0.00  0.00    -0.267 OA
ATOM     26  N4  NON d   1     -45.648  16.847  -3.513  0.00  0.00    -0.321 N 
ATOM     27  H16 NON d   1     -45.183  16.812  -2.620  0.00  0.00     0.169 HD
BRANCH  26  28
ATOM     28  C14 NON d   1     -47.035  16.513  -3.465  0.00  0.00     0.056 A 
ATOM     29  C15 NON d   1     -47.633  16.650  -2.195  0.00  0.00     0.031 A 
ATOM     30  C16 NON d   1     -48.982  16.353  -1.983  0.00  0.00     0.002 A 
ATOM     31  C17 NON d   1     -49.773  15.942  -3.045  0.00  0.00     0.002 A 
ATOM     32  C18 NON d   1     -49.210  15.829  -4.313  0.00  0.00     0.025 A 
ATOM     33  C19 NON d   1     -47.840  16.072  -4.542  0.00  0.00     0.033 A 
BRANCH  33  34
ATOM     34  N5  NON d   1     -47.441  16.130  -5.891  0.00  0.00    -0.301 NA
ATOM     35  H21 NON d   1     -48.190  15.790  -6.505  0.00  0.00     0.124 HD
ATOM     36  H22 NON d   1     -47.147  17.055  -6.183  0.00  0.00     0.124 HD
ENDBRANCH  33  34
ENDBRANCH  26  28
ENDBRANCH   4  24
TORSDOF 9
ENDMDL
