MODEL 1
REMARK VINA RESULT:   -22.607      0.000      0.000
REMARK INTER + INTRA:         -26.427
REMARK INTER:                 -24.695
REMARK INTRA:                  -1.732
REMARK CONF_INDEPENDENT:        2.088
REMARK UNBOUND:                -1.732
REMARK  7 active torsions:
REMARK  status: ('A' for Active; 'I' for Inactive)
REMARK    1  A    between atoms: C1_2  and  C2_3 
REMARK       I    between atoms: C1_2  and  N2_27 
REMARK    2  A    between atoms: C3_4  and  C4_5 
REMARK    3  A    between atoms: C7_8  and  N1_9 
REMARK    4  A    between atoms: N1_9  and  S1_10 
REMARK    5  A    between atoms: S1_10  and  C8_13 
REMARK    6  A    between atoms: C11_16  and  C12_17 
REMARK    7  A    between atoms: N2_27  and  O4_28 
ROOT
ATOM      1  N1  NON d   1     -47.264  16.505  -5.435  0.00  0.00    -0.181 NA
ATOM      2  H5  NON d   1     -47.961  17.245  -5.319  0.00  0.00     0.146 HD
ENDROOT
BRANCH   1   3
ATOM      3  C7  NON d   1     -46.028  16.801  -4.784  0.00  0.00     0.022 A 
ATOM      4  C6  NON d   1     -46.016  17.282  -3.477  0.00  0.00     0.025 A 
ATOM      5  C5  NON d   1     -44.794  17.529  -2.841  0.00  0.00     0.013 A 
ATOM      6  C4  NON d   1     -43.574  17.286  -3.494  0.00  0.00    -0.036 A 
ATOM      7  C21 NON d   1     -43.614  16.763  -4.794  0.00  0.00     0.013 A 
ATOM      8  C20 NON d   1     -44.832  16.522  -5.435  0.00  0.00     0.025 A 
BRANCH   6   9
ATOM      9  C3  NON d   1     -42.321  17.608  -2.782  0.00  0.00     0.017 C 
ATOM     10  C2  NON d   1     -41.338  18.387  -3.262  0.00  0.00     0.077 C 
BRANCH  10  11
ATOM     11  C1  NON d   1     -40.105  18.795  -2.546  0.00  0.00     0.264 C 
ATOM     12  O1  NON d   1     -40.131  19.759  -1.785  0.00  0.00    -0.266 OA
ATOM     13  N2  NON d   1     -38.969  18.074  -2.771  0.00  0.00    -0.234 N 
ATOM     14  H17 NON d   1     -38.853  17.323  -3.437  0.00  0.00     0.197 HD
BRANCH  13  15
ATOM     15  O4  NON d   1     -37.812  18.491  -2.076  0.00  0.00    -0.287 OA
ATOM     16  H18 NON d   1     -38.191  18.980  -1.311  0.00  0.00     0.244 HD
ENDBRANCH  13  15
ENDBRANCH  10  11
ENDBRANCH   6   9
ENDBRANCH   1   3
BRANCH   1  17
ATOM     17  S1  NON d   1     -48.012  15.055  -4.958  0.00  0.00     0.245 S 
ATOM     18  O2  NON d   1     -47.072  14.420  -4.057  0.00  0.00    -0.206 OA
ATOM     19  O3  NON d   1     -48.562  14.353  -6.096  0.00  0.00    -0.206 OA
BRANCH  17  20
ATOM     20  C8  NON d   1     -49.376  15.669  -4.000  0.00  0.00     0.074 A 
ATOM     21  C9  NON d   1     -50.325  14.797  -3.477  0.00  0.00     0.025 A 
ATOM     22  C10 NON d   1     -51.442  15.311  -2.803  0.00  0.00     0.014 A 
ATOM     23  C11 NON d   1     -51.662  16.698  -2.653  0.00  0.00    -0.026 A 
ATOM     24  C18 NON d   1     -50.662  17.543  -3.181  0.00  0.00     0.014 A 
ATOM     25  C19 NON d   1     -49.534  17.044  -3.846  0.00  0.00     0.025 A 
BRANCH  23  26
ATOM     26  C12 NON d   1     -52.905  17.246  -2.022  0.00  0.00    -0.026 A 
ATOM     27  C13 NON d   1     -54.157  17.195  -2.669  0.00  0.00     0.012 A 
ATOM     28  C14 NON d   1     -55.314  17.753  -2.105  0.00  0.00     0.001 A 
ATOM     29  C15 NON d   1     -55.252  18.395  -0.875  0.00  0.00     0.000 A 
ATOM     30  C16 NON d   1     -54.040  18.460  -0.204  0.00  0.00     0.001 A 
ATOM     31  C17 NON d   1     -52.891  17.885  -0.765  0.00  0.00     0.012 A 
ENDBRANCH  23  26
ENDBRANCH  17  20
ENDBRANCH   1  17
TORSDOF 7
ENDMDL
MODEL 2
REMARK VINA RESULT:   -22.130      1.549      1.654
REMARK INTER + INTRA:         -23.841
REMARK INTER:                 -24.218
REMARK INTRA:                   0.377
REMARK CONF_INDEPENDENT:        2.088
REMARK UNBOUND:                 0.377
REMARK  7 active torsions:
REMARK  status: ('A' for Active; 'I' for Inactive)
REMARK    1  A    between atoms: C1_2  and  C2_3 
REMARK       I    between atoms: C1_2  and  N2_27 
REMARK    2  A    between atoms: C3_4  and  C4_5 
REMARK    3  A    between atoms: C7_8  and  N1_9 
REMARK    4  A    between atoms: N1_9  and  S1_10 
REMARK    5  A    between atoms: S1_10  and  C8_13 
REMARK    6  A    between atoms: C11_16  and  C12_17 
REMARK    7  A    between atoms: N2_27  and  O4_28 
ROOT
ATOM      1  N1  NON d   1     -47.299  16.880  -5.810  0.00  0.00    -0.181 NA
ATOM      2  H5  NON d   1     -47.983  17.570  -5.491  0.00  0.00     0.146 HD
ENDROOT
BRANCH   1   3
ATOM      3  C7  NON d   1     -45.952  17.270  -5.540  0.00  0.00     0.022 A 
ATOM      4  C6  NON d   1     -45.545  18.587  -5.738  0.00  0.00     0.025 A 
ATOM      5  C5  NON d   1     -44.232  18.960  -5.431  0.00  0.00     0.013 A 
ATOM      6  C4  NON d   1     -43.316  18.031  -4.912  0.00  0.00    -0.036 A 
ATOM      7  C21 NON d   1     -43.762  16.721  -4.684  0.00  0.00     0.013 A 
ATOM      8  C20 NON d   1     -45.071  16.343  -4.995  0.00  0.00     0.025 A 
BRANCH   6   9
ATOM      9  C3  NON d   1     -41.933  18.479  -4.650  0.00  0.00     0.017 C 
ATOM     10  C2  NON d   1     -40.909  18.370  -5.512  0.00  0.00     0.077 C 
BRANCH  10  11
ATOM     11  C1  NON d   1     -39.531  18.879  -5.314  0.00  0.00     0.264 C 
ATOM     12  O1  NON d   1     -39.234  19.452  -4.268  0.00  0.00    -0.266 OA
ATOM     13  N2  NON d   1     -38.633  18.695  -6.324  0.00  0.00    -0.234 N 
ATOM     14  H17 NON d   1     -38.822  18.306  -7.236  0.00  0.00     0.197 HD
BRANCH  13  15
ATOM     15  O4  NON d   1     -37.329  19.194  -6.105  0.00  0.00    -0.287 OA
ATOM     16  H18 NON d   1     -37.301  19.285  -5.126  0.00  0.00     0.244 HD
ENDBRANCH  13  15
ENDBRANCH  10  11
ENDBRANCH   6   9
ENDBRANCH   1   3
BRANCH   1  17
ATOM     17  S1  NON d   1     -47.772  15.387  -5.150  0.00  0.00     0.245 S 
ATOM     18  O2  NON d   1     -46.689  14.998  -4.270  0.00  0.00    -0.206 OA
ATOM     19  O3  NON d   1     -48.270  14.498  -6.176  0.00  0.00    -0.206 OA
BRANCH  17  20
ATOM     20  C8  NON d   1     -49.156  15.874  -4.150  0.00  0.00     0.074 A 
ATOM     21  C9  NON d   1     -50.043  14.924  -3.653  0.00  0.00     0.025 A 
ATOM     22  C10 NON d   1     -51.179  15.340  -2.943  0.00  0.00     0.014 A 
ATOM     23  C11 NON d   1     -51.481  16.704  -2.732  0.00  0.00    -0.026 A 
ATOM     24  C18 NON d   1     -50.541  17.630  -3.235  0.00  0.00     0.014 A 
ATOM     25  C19 NON d   1     -49.396  17.229  -3.935  0.00  0.00     0.025 A 
BRANCH  23  26
ATOM     26  C12 NON d   1     -52.744  17.147  -2.062  0.00  0.00    -0.026 A 
ATOM     27  C13 NON d   1     -53.987  17.140  -2.730  0.00  0.00     0.012 A 
ATOM     28  C14 NON d   1     -55.164  17.603  -2.125  0.00  0.00     0.001 A 
ATOM     29  C15 NON d   1     -55.135  18.103  -0.830  0.00  0.00     0.000 A 
ATOM     30  C16 NON d   1     -53.933  18.120  -0.137  0.00  0.00     0.001 A 
ATOM     31  C17 NON d   1     -52.763  17.640  -0.741  0.00  0.00     0.012 A 
ENDBRANCH  23  26
ENDBRANCH  17  20
ENDBRANCH   1  17
TORSDOF 7
ENDMDL
