MODEL 1
REMARK VINA RESULT:   -35.311      0.000      0.000
REMARK INTER + INTRA:         -38.398
REMARK INTER:                 -36.802
REMARK INTRA:                  -1.596
REMARK CONF_INDEPENDENT:        1.492
REMARK UNBOUND:                -1.596
REMARK  5 active torsions:
REMARK  status: ('A' for Active; 'I' for Inactive)
REMARK    1  A    between atoms: C4_4  and  C2_2 
REMARK    2  A    between atoms: N1_6  and  C6_7 
REMARK    3  A    between atoms: C9_10  and  C10_11 
REMARK       I    between atoms: C10_11  and  N2_13 
REMARK    4  A    between atoms: N2_13  and  C11_14 
REMARK    5  A    between atoms: C16_19  and  N3_20 
ROOT
ATOM      1  C6  NON d   1     -41.274  19.064  -3.454  0.00  0.00     0.125 A 
ATOM      2  C7  NON d   1     -41.907  19.508  -4.625  0.00  0.00     0.051 A 
ATOM      3  C8  NON d   1     -43.131  18.954  -5.067  0.00  0.00     0.022 A 
ATOM      4  C9  NON d   1     -43.725  17.925  -4.343  0.00  0.00     0.050 A 
ATOM      5  C17 NON d   1     -43.032  17.526  -3.207  0.00  0.00     0.136 A 
ATOM      6  N4  NON d   1     -41.853  18.066  -2.758  0.00  0.00    -0.242 NA
ENDROOT
BRANCH   4   7
ATOM      7  C10 NON d   1     -45.028  17.244  -4.659  0.00  0.00     0.257 C 
ATOM      8  O1  NON d   1     -45.181  16.870  -5.811  0.00  0.00    -0.267 OA
ATOM      9  N2  NON d   1     -45.939  17.051  -3.627  0.00  0.00    -0.321 N 
ATOM     10  H13 NON d   1     -45.642  17.278  -2.694  0.00  0.00     0.169 HD
BRANCH   9  11
ATOM     11  C11 NON d   1     -47.239  16.444  -3.684  0.00  0.00     0.056 A 
ATOM     12  C12 NON d   1     -47.919  16.380  -2.450  0.00  0.00     0.031 A 
ATOM     13  C13 NON d   1     -49.192  15.808  -2.335  0.00  0.00     0.002 A 
ATOM     14  C14 NON d   1     -49.830  15.311  -3.460  0.00  0.00     0.002 A 
ATOM     15  C15 NON d   1     -49.185  15.391  -4.696  0.00  0.00     0.025 A 
ATOM     16  C16 NON d   1     -47.888  15.917  -4.828  0.00  0.00     0.033 A 
BRANCH  16  17
ATOM     17  N3  NON d   1     -47.440  16.130  -6.145  0.00  0.00    -0.301 NA
ATOM     18  H18 NON d   1     -47.298  17.130  -6.327  0.00  0.00     0.124 HD
ATOM     19  H19 NON d   1     -46.598  15.621  -6.370  0.00  0.00     0.124 HD
ENDBRANCH  16  17
ENDBRANCH   9  11
ENDBRANCH   4   7
BRANCH   1  20
ATOM     20  N1  NON d   1     -40.039  19.578  -2.986  0.00  0.00    -0.362 N 
ATOM     21  C5  NON d   1     -40.054  20.282  -1.697  0.00  0.00     0.157 C 
ATOM     22  C4  NON d   1     -38.662  20.954  -1.349  0.00  0.00     0.207 C 
ATOM     23  N5  NON d   1     -37.587  19.921  -1.379  0.00  0.00    -0.068 N 
ATOM     24  C19 NON d   1     -37.545  19.256  -2.758  0.00  0.00     0.252 C 
ATOM     25  H25 NON d   1     -36.668  20.347  -1.207  0.00  0.00     0.277 HD
ATOM     26  H26 NON d   1     -37.738  19.208  -0.655  0.00  0.00     0.277 HD
ATOM     27  C18 NON d   1     -38.908  18.636  -3.168  0.00  0.00     0.152 C 
BRANCH  22  28
ATOM     28  C2  NON d   1     -38.657  22.007  -0.225  0.00  0.00     0.010 C 
ATOM     29  C1  NON d   1     -37.601  21.935   0.893  0.00  0.00     0.011 C 
ATOM     30  C3  NON d   1     -40.181  22.414  -0.032  0.00  0.00     0.011 C 
ENDBRANCH  22  28
ENDBRANCH   1  20
TORSDOF 5
ENDMDL
MODEL 2
REMARK VINA RESULT:   -33.714      0.906      1.188
REMARK INTER + INTRA:         -36.789
REMARK INTER:                 -35.205
REMARK INTRA:                  -1.584
REMARK CONF_INDEPENDENT:        1.492
REMARK UNBOUND:                -1.584
REMARK  5 active torsions:
REMARK  status: ('A' for Active; 'I' for Inactive)
REMARK    1  A    between atoms: C4_4  and  C2_2 
REMARK    2  A    between atoms: N1_6  and  C6_7 
REMARK    3  A    between atoms: C9_10  and  C10_11 
REMARK       I    between atoms: C10_11  and  N2_13 
REMARK    4  A    between atoms: N2_13  and  C11_14 
REMARK    5  A    between atoms: C16_19  and  N3_20 
ROOT
ATOM      1  C6  NON d   1     -41.163  18.899  -3.775  0.00  0.00     0.125 A 
ATOM      2  C7  NON d   1     -41.667  17.890  -2.940  0.00  0.00     0.051 A 
ATOM      3  C8  NON d   1     -42.936  17.306  -3.159  0.00  0.00     0.022 A 
ATOM      4  C9  NON d   1     -43.728  17.749  -4.214  0.00  0.00     0.050 A 
ATOM      5  C17 NON d   1     -43.171  18.763  -4.985  0.00  0.00     0.136 A 
ATOM      6  N4  NON d   1     -41.934  19.326  -4.793  0.00  0.00    -0.242 NA
ENDROOT
BRANCH   4   7
ATOM      7  C10 NON d   1     -45.084  17.225  -4.598  0.00  0.00     0.257 C 
ATOM      8  O1  NON d   1     -45.339  17.198  -5.792  0.00  0.00    -0.267 OA
ATOM      9  N2  NON d   1     -45.927  16.774  -3.589  0.00  0.00    -0.321 N 
ATOM     10  H13 NON d   1     -45.552  16.718  -2.658  0.00  0.00     0.169 HD
BRANCH   9  11
ATOM     11  C11 NON d   1     -47.257  16.246  -3.705  0.00  0.00     0.056 A 
ATOM     12  C12 NON d   1     -47.958  16.128  -2.486  0.00  0.00     0.031 A 
ATOM     13  C13 NON d   1     -49.262  15.621  -2.428  0.00  0.00     0.002 A 
ATOM     14  C14 NON d   1     -49.909  15.246  -3.593  0.00  0.00     0.002 A 
ATOM     15  C15 NON d   1     -49.244  15.383  -4.813  0.00  0.00     0.025 A 
ATOM     16  C16 NON d   1     -47.918  15.844  -4.892  0.00  0.00     0.033 A 
BRANCH  16  17
ATOM     17  N3  NON d   1     -47.440  16.130  -6.185  0.00  0.00    -0.301 NA
ATOM     18  H18 NON d   1     -47.260  17.135  -6.295  0.00  0.00     0.124 HD
ATOM     19  H19 NON d   1     -46.612  15.608  -6.431  0.00  0.00     0.124 HD
ENDBRANCH  16  17
ENDBRANCH   9  11
ENDBRANCH   4   7
BRANCH   1  20
ATOM     20  N1  NON d   1     -39.905  19.523  -3.580  0.00  0.00    -0.362 N 
ATOM     21  C5  NON d   1     -39.758  20.374  -2.391  0.00  0.00     0.157 C 
ATOM     22  C4  NON d   1     -38.377  21.148  -2.357  0.00  0.00     0.207 C 
ATOM     23  N5  NON d   1     -37.255  20.171  -2.456  0.00  0.00    -0.068 N 
ATOM     24  C19 NON d   1     -37.392  19.351  -3.742  0.00  0.00     0.252 C 
ATOM     25  H25 NON d   1     -36.350  20.658  -2.488  0.00  0.00     0.277 HD
ATOM     26  H26 NON d   1     -37.239  19.542  -1.644  0.00  0.00     0.277 HD
ATOM     27  C18 NON d   1     -38.758  18.622  -3.847  0.00  0.00     0.152 C 
BRANCH  22  28
ATOM     28  C2  NON d   1     -38.260  22.325  -1.371  0.00  0.00     0.010 C 
ATOM     29  C1  NON d   1     -37.884  22.064   0.098  0.00  0.00     0.011 C 
ATOM     30  C3  NON d   1     -39.321  23.395  -1.877  0.00  0.00     0.011 C 
ENDBRANCH  22  28
ENDBRANCH   1  20
TORSDOF 5
ENDMDL
MODEL 3
REMARK VINA RESULT:   -33.533      1.565      1.916
REMARK INTER + INTRA:         -36.551
REMARK INTER:                 -35.025
REMARK INTRA:                  -1.526
REMARK CONF_INDEPENDENT:        1.492
REMARK UNBOUND:                -1.526
REMARK  5 active torsions:
REMARK  status: ('A' for Active; 'I' for Inactive)
REMARK    1  A    between atoms: C4_4  and  C2_2 
REMARK    2  A    between atoms: N1_6  and  C6_7 
REMARK    3  A    between atoms: C9_10  and  C10_11 
REMARK       I    between atoms: C10_11  and  N2_13 
REMARK    4  A    between atoms: N2_13  and  C11_14 
REMARK    5  A    between atoms: C16_19  and  N3_20 
ROOT
ATOM      1  C6  NON d   1     -41.255  19.209  -3.870  0.00  0.00     0.125 A 
ATOM      2  C7  NON d   1     -41.663  18.128  -3.073  0.00  0.00     0.051 A 
ATOM      3  C8  NON d   1     -42.905  17.482  -3.271  0.00  0.00     0.022 A 
ATOM      4  C9  NON d   1     -43.768  17.935  -4.265  0.00  0.00     0.050 A 
ATOM      5  C17 NON d   1     -43.306  19.020  -4.999  0.00  0.00     0.136 A 
ATOM      6  N4  NON d   1     -42.095  19.644  -4.829  0.00  0.00    -0.242 NA
ENDROOT
BRANCH   4   7
ATOM      7  C10 NON d   1     -45.109  17.353  -4.620  0.00  0.00     0.257 C 
ATOM      8  O1  NON d   1     -45.359  17.252  -5.810  0.00  0.00    -0.267 OA
ATOM      9  N2  NON d   1     -45.941  16.936  -3.588  0.00  0.00    -0.321 N 
ATOM     10  H13 NON d   1     -45.567  16.943  -2.655  0.00  0.00     0.169 HD
BRANCH   9  11
ATOM     11  C11 NON d   1     -47.256  16.366  -3.675  0.00  0.00     0.056 A 
ATOM     12  C12 NON d   1     -47.951  16.285  -2.451  0.00  0.00     0.031 A 
ATOM     13  C13 NON d   1     -49.240  15.744  -2.365  0.00  0.00     0.002 A 
ATOM     14  C14 NON d   1     -49.879  15.298  -3.510  0.00  0.00     0.002 A 
ATOM     15  C15 NON d   1     -49.219  15.397  -4.737  0.00  0.00     0.025 A 
ATOM     16  C16 NON d   1     -47.907  15.891  -4.840  0.00  0.00     0.033 A 
BRANCH  16  17
ATOM     17  N3  NON d   1     -47.440  16.130  -6.147  0.00  0.00    -0.301 NA
ATOM     18  H18 NON d   1     -47.522  17.124  -6.389  0.00  0.00     0.124 HD
ATOM     19  H19 NON d   1     -46.491  15.822  -6.296  0.00  0.00     0.124 HD
ENDBRANCH  16  17
ENDBRANCH   9  11
ENDBRANCH   4   7
BRANCH   1  20
ATOM     20  N1  NON d   1     -40.028  19.895  -3.693  0.00  0.00    -0.362 N 
ATOM     21  C5  NON d   1     -40.102  21.309  -3.304  0.00  0.00     0.157 C 
ATOM     22  C4  NON d   1     -38.686  22.019  -3.294  0.00  0.00     0.207 C 
ATOM     23  N5  NON d   1     -37.758  21.269  -2.400  0.00  0.00    -0.068 N 
ATOM     24  C19 NON d   1     -37.641  19.817  -2.874  0.00  0.00     0.252 C 
ATOM     25  H25 NON d   1     -36.818  21.684  -2.420  0.00  0.00     0.277 HD
ATOM     26  H26 NON d   1     -38.085  21.289  -1.426  0.00  0.00     0.277 HD
ATOM     27  C18 NON d   1     -39.014  19.100  -2.959  0.00  0.00     0.152 C 
BRANCH  22  28
ATOM     28  C2  NON d   1     -38.677  23.559  -3.260  0.00  0.00     0.010 C 
ATOM     29  C1  NON d   1     -39.343  24.307  -2.091  0.00  0.00     0.011 C 
ATOM     30  C3  NON d   1     -38.714  24.007  -4.785  0.00  0.00     0.011 C 
ENDBRANCH  22  28
ENDBRANCH   1  20
TORSDOF 5
ENDMDL
MODEL 4
REMARK VINA RESULT:   -33.303      2.371      3.143
REMARK INTER + INTRA:         -36.331
REMARK INTER:                 -34.794
REMARK INTRA:                  -1.537
REMARK CONF_INDEPENDENT:        1.492
REMARK UNBOUND:                -1.537
REMARK  5 active torsions:
REMARK  status: ('A' for Active; 'I' for Inactive)
REMARK    1  A    between atoms: C4_4  and  C2_2 
REMARK    2  A    between atoms: N1_6  and  C6_7 
REMARK    3  A    between atoms: C9_10  and  C10_11 
REMARK       I    between atoms: C10_11  and  N2_13 
REMARK    4  A    between atoms: N2_13  and  C11_14 
REMARK    5  A    between atoms: C16_19  and  N3_20 
ROOT
ATOM      1  C6  NON d   1     -41.130  19.051  -4.505  0.00  0.00     0.125 A 
ATOM      2  C7  NON d   1     -41.340  17.762  -3.992  0.00  0.00     0.051 A 
ATOM      3  C8  NON d   1     -42.612  17.145  -4.024  0.00  0.00     0.022 A 
ATOM      4  C9  NON d   1     -43.700  17.832  -4.555  0.00  0.00     0.050 A 
ATOM      5  C17 NON d   1     -43.419  19.108  -5.026  0.00  0.00     0.136 A 
ATOM      6  N4  NON d   1     -42.186  19.712  -5.016  0.00  0.00    -0.242 NA
ENDROOT
BRANCH   4   7
ATOM      7  C10 NON d   1     -45.107  17.317  -4.685  0.00  0.00     0.257 C 
ATOM      8  O1  NON d   1     -45.476  17.020  -5.810  0.00  0.00    -0.267 OA
ATOM      9  N2  NON d   1     -45.866  17.176  -3.530  0.00  0.00    -0.321 N 
ATOM     10  H13 NON d   1     -45.406  17.322  -2.648  0.00  0.00     0.169 HD
BRANCH   9  11
ATOM     11  C11 NON d   1     -47.223  16.722  -3.401  0.00  0.00     0.056 A 
ATOM     12  C12 NON d   1     -47.719  16.699  -2.081  0.00  0.00     0.031 A 
ATOM     13  C13 NON d   1     -49.020  16.271  -1.787  0.00  0.00     0.002 A 
ATOM     14  C14 NON d   1     -49.867  15.882  -2.811  0.00  0.00     0.002 A 
ATOM     15  C15 NON d   1     -49.404  15.926  -4.127  0.00  0.00     0.025 A 
ATOM     16  C16 NON d   1     -48.088  16.305  -4.443  0.00  0.00     0.033 A 
BRANCH  16  17
ATOM     17  N3  NON d   1     -47.814  16.505  -5.810  0.00  0.00    -0.301 NA
ATOM     18  H18 NON d   1     -47.324  17.395  -5.959  0.00  0.00     0.124 HD
ATOM     19  H19 NON d   1     -47.287  15.753  -6.227  0.00  0.00     0.124 HD
ENDBRANCH  16  17
ENDBRANCH   9  11
ENDBRANCH   4   7
BRANCH   1  20
ATOM     20  N1  NON d   1     -39.876  19.712  -4.476  0.00  0.00    -0.362 N 
ATOM     21  C5  NON d   1     -39.663  20.782  -5.459  0.00  0.00     0.157 C 
ATOM     22  C4  NON d   1     -38.180  21.340  -5.448  0.00  0.00     0.207 C 
ATOM     23  N5  NON d   1     -37.831  21.801  -4.073  0.00  0.00    -0.068 N 
ATOM     24  C19 NON d   1     -37.990  20.645  -3.082  0.00  0.00     0.252 C 
ATOM     25  H25 NON d   1     -36.854  22.119  -4.033  0.00  0.00     0.277 HD
ATOM     26  H26 NON d   1     -38.424  22.589  -3.785  0.00  0.00     0.277 HD
ATOM     27  C18 NON d   1     -39.413  20.027  -3.103  0.00  0.00     0.152 C 
BRANCH  22  28
ATOM     28  C2  NON d   1     -37.744  22.189  -6.656  0.00  0.00     0.010 C 
ATOM     29  C1  NON d   1     -37.954  23.714  -6.641  0.00  0.00     0.011 C 
ATOM     30  C3  NON d   1     -37.936  21.243  -7.918  0.00  0.00     0.011 C 
ENDBRANCH  22  28
ENDBRANCH   1  20
TORSDOF 5
ENDMDL
