MODEL 1
REMARK VINA RESULT:   -24.489      0.000      0.000
REMARK INTER + INTRA:         -30.025
REMARK INTER:                 -28.068
REMARK INTRA:                  -1.956
REMARK CONF_INDEPENDENT:        3.580
REMARK UNBOUND:                -1.956
REMARK  12 active torsions:
REMARK  status: ('A' for Active; 'I' for Inactive)
REMARK    1  A    between atoms: C2_2  and  O1_3 
REMARK    2  A    between atoms: O1_3  and  P1_4 
REMARK    3  A    between atoms: P1_4  and  C3_6 
REMARK    4  A    between atoms: P1_4  and  O4_30 
REMARK    5  A    between atoms: C3_6  and  N1_7 
REMARK    6  A    between atoms: N1_7  and  C4_8 
REMARK    7  A    between atoms: C4_8  and  C5_9 
REMARK    8  A    between atoms: C8_12  and  C9_13 
REMARK       I    between atoms: C9_13  and  N2_15 
REMARK    9  A    between atoms: N2_15  and  C10_16 
REMARK   10  A    between atoms: C12_18  and  C13_19 
REMARK   11  A    between atoms: C19_26  and  N3_27 
REMARK   12  A    between atoms: O4_30  and  C22_31 
ROOT
ATOM      1  C5  NON d   1     -41.043  18.953  -3.548  0.00  0.00    -0.030 A 
ATOM      2  C6  NON d   1     -41.658  19.331  -4.765  0.00  0.00     0.010 A 
ATOM      3  C7  NON d   1     -42.935  18.851  -5.146  0.00  0.00     0.017 A 
ATOM      4  C8  NON d   1     -43.621  17.970  -4.312  0.00  0.00     0.032 A 
ATOM      5  C20 NON d   1     -42.992  17.553  -3.127  0.00  0.00     0.017 A 
ATOM      6  C21 NON d   1     -41.728  18.029  -2.753  0.00  0.00     0.010 A 
ENDROOT
BRANCH   4   7
ATOM      7  C9  NON d   1     -45.028  17.492  -4.509  0.00  0.00     0.256 C 
ATOM      8  O3  NON d   1     -45.365  17.290  -5.676  0.00  0.00    -0.267 OA
ATOM      9  N2  NON d   1     -45.857  17.291  -3.413  0.00  0.00    -0.321 N 
ATOM     10  H13 NON d   1     -45.428  17.265  -2.500  0.00  0.00     0.169 HD
BRANCH   9  11
ATOM     11  C10 NON d   1     -47.260  16.979  -3.465  0.00  0.00     0.057 A 
ATOM     12  C11 NON d   1     -48.046  17.376  -2.353  0.00  0.00     0.044 A 
ATOM     13  C12 NON d   1     -49.436  17.112  -2.267  0.00  0.00    -0.017 A 
ATOM     14  C17 NON d   1     -50.031  16.462  -3.354  0.00  0.00     0.014 A 
ATOM     15  C18 NON d   1     -49.288  16.106  -4.477  0.00  0.00     0.026 A 
ATOM     16  C19 NON d   1     -47.906  16.324  -4.541  0.00  0.00     0.033 A 
BRANCH  13  17
ATOM     17  C13 NON d   1     -50.243  17.514  -1.081  0.00  0.00     0.015 A 
ATOM     18  C14 NON d   1     -49.828  17.929   0.177  0.00  0.00     0.020 A 
ATOM     19  C15 NON d   1     -50.907  18.243   1.060  0.00  0.00     0.008 A 
ATOM     20  C16 NON d   1     -52.131  18.059   0.467  0.00  0.00     0.050 A 
ATOM     21  S1  NON d   1     -51.975  17.512  -1.137  0.00  0.00    -0.101 SA
ENDBRANCH  13  17
BRANCH  16  22
ATOM     22  N3  NON d   1     -47.314  16.126  -5.809  0.00  0.00    -0.301 NA
ATOM     23  H20 NON d   1     -47.044  17.031  -6.208  0.00  0.00     0.124 HD
ATOM     24  H21 NON d   1     -46.493  15.533  -5.770  0.00  0.00     0.124 HD
ENDBRANCH  16  22
ENDBRANCH   9  11
ENDBRANCH   4   7
BRANCH   1  25
ATOM     25  C4  NON d   1     -39.666  19.529  -3.176  0.00  0.00     0.308 C 
BRANCH  25  26
ATOM     26  N1  NON d   1     -39.402  19.642  -1.728  0.00  0.00     0.098 N 
ATOM     27  H8  NON d   1     -38.775  18.888  -1.467  0.00  0.00     0.317 HD
BRANCH  26  28
ATOM     28  C3  NON d   1     -38.707  20.889  -1.317  0.00  0.00     0.401 C 
BRANCH  28  29
ATOM     29  P1  NON d   1     -39.997  22.354  -0.692  0.00  0.00     0.356 P 
ATOM     30  O2  NON d   1     -40.364  21.545   0.565  0.00  0.00    -0.257 OA
BRANCH  29  31
ATOM     31  O1  NON d   1     -38.873  23.294   0.092  0.00  0.00    -0.313 OA
BRANCH  31  32
ATOM     32  C2  NON d   1     -38.594  22.980   1.445  0.00  0.00     0.174 C 
ATOM     33  C1  NON d   1     -38.810  24.210   2.303  0.00  0.00     0.034 C 
ENDBRANCH  31  32
ENDBRANCH  29  31
BRANCH  29  34
ATOM     34  O4  NON d   1     -39.629  23.164  -1.950  0.00  0.00    -0.313 OA
BRANCH  34  35
ATOM     35  C22 NON d   1     -40.625  24.007  -2.502  0.00  0.00     0.174 C 
ATOM     36  C23 NON d   1     -41.265  23.333  -3.698  0.00  0.00     0.034 C 
ENDBRANCH  34  35
ENDBRANCH  29  34
ENDBRANCH  28  29
ENDBRANCH  26  28
ENDBRANCH  25  26
ENDBRANCH   1  25
TORSDOF 12
ENDMDL
MODEL 2
REMARK VINA RESULT:   -24.273      0.610      2.145
REMARK INTER + INTRA:         -29.911
REMARK INTER:                 -27.853
REMARK INTRA:                  -2.058
REMARK CONF_INDEPENDENT:        3.580
REMARK UNBOUND:                -2.058
REMARK  12 active torsions:
REMARK  status: ('A' for Active; 'I' for Inactive)
REMARK    1  A    between atoms: C2_2  and  O1_3 
REMARK    2  A    between atoms: O1_3  and  P1_4 
REMARK    3  A    between atoms: P1_4  and  C3_6 
REMARK    4  A    between atoms: P1_4  and  O4_30 
REMARK    5  A    between atoms: C3_6  and  N1_7 
REMARK    6  A    between atoms: N1_7  and  C4_8 
REMARK    7  A    between atoms: C4_8  and  C5_9 
REMARK    8  A    between atoms: C8_12  and  C9_13 
REMARK       I    between atoms: C9_13  and  N2_15 
REMARK    9  A    between atoms: N2_15  and  C10_16 
REMARK   10  A    between atoms: C12_18  and  C13_19 
REMARK   11  A    between atoms: C19_26  and  N3_27 
REMARK   12  A    between atoms: O4_30  and  C22_31 
ROOT
ATOM      1  C5  NON d   1     -40.933  18.679  -3.582  0.00  0.00    -0.030 A 
ATOM      2  C6  NON d   1     -41.426  18.769  -4.905  0.00  0.00     0.010 A 
ATOM      3  C7  NON d   1     -42.711  18.299  -5.265  0.00  0.00     0.017 A 
ATOM      4  C8  NON d   1     -43.532  17.717  -4.299  0.00  0.00     0.032 A 
ATOM      5  C20 NON d   1     -43.026  17.580  -2.995  0.00  0.00     0.017 A 
ATOM      6  C21 NON d   1     -41.753  18.045  -2.643  0.00  0.00     0.010 A 
ENDROOT
BRANCH   4   7
ATOM      7  C9  NON d   1     -44.960  17.306  -4.494  0.00  0.00     0.256 C 
ATOM      8  O3  NON d   1     -45.297  17.082  -5.658  0.00  0.00    -0.267 OA
ATOM      9  N2  NON d   1     -45.807  17.185  -3.401  0.00  0.00    -0.321 N 
ATOM     10  H13 NON d   1     -45.388  17.168  -2.483  0.00  0.00     0.169 HD
BRANCH   9  11
ATOM     11  C10 NON d   1     -47.224  16.945  -3.456  0.00  0.00     0.057 A 
ATOM     12  C11 NON d   1     -47.990  17.364  -2.338  0.00  0.00     0.044 A 
ATOM     13  C12 NON d   1     -49.391  17.169  -2.255  0.00  0.00    -0.017 A 
ATOM     14  C17 NON d   1     -50.017  16.566  -3.351  0.00  0.00     0.014 A 
ATOM     15  C18 NON d   1     -49.293  16.189  -4.479  0.00  0.00     0.026 A 
ATOM     16  C19 NON d   1     -47.902  16.338  -4.541  0.00  0.00     0.033 A 
BRANCH  13  17
ATOM     17  C13 NON d   1     -50.177  17.594  -1.063  0.00  0.00     0.015 A 
ATOM     18  C14 NON d   1     -49.740  18.006   0.188  0.00  0.00     0.020 A 
ATOM     19  C15 NON d   1     -50.803  18.347   1.081  0.00  0.00     0.008 A 
ATOM     20  C16 NON d   1     -52.037  18.187   0.502  0.00  0.00     0.050 A 
ATOM     21  S1  NON d   1     -51.909  17.629  -1.101  0.00  0.00    -0.101 SA
ENDBRANCH  13  17
BRANCH  16  22
ATOM     22  N3  NON d   1     -47.320  16.129  -5.812  0.00  0.00    -0.301 NA
ATOM     23  H20 NON d   1     -47.250  17.023  -6.309  0.00  0.00     0.124 HD
ATOM     24  H21 NON d   1     -46.396  15.716  -5.757  0.00  0.00     0.124 HD
ENDBRANCH  16  22
ENDBRANCH   9  11
ENDBRANCH   4   7
BRANCH   1  25
ATOM     25  C4  NON d   1     -39.537  19.232  -3.246  0.00  0.00     0.308 C 
BRANCH  25  26
ATOM     26  N1  NON d   1     -39.359  19.687  -1.853  0.00  0.00     0.098 N 
ATOM     27  H8  NON d   1     -38.984  18.910  -1.319  0.00  0.00     0.317 HD
BRANCH  26  28
ATOM     28  C3  NON d   1     -38.381  20.791  -1.679  0.00  0.00     0.401 C 
BRANCH  28  29
ATOM     29  P1  NON d   1     -39.254  22.544  -1.073  0.00  0.00     0.356 P 
ATOM     30  O2  NON d   1     -38.611  23.311  -2.243  0.00  0.00    -0.257 OA
BRANCH  29  31
ATOM     31  O1  NON d   1     -40.706  22.329  -1.851  0.00  0.00    -0.313 OA
BRANCH  31  32
ATOM     32  C2  NON d   1     -41.334  23.481  -2.384  0.00  0.00     0.174 C 
ATOM     33  C1  NON d   1     -41.912  23.155  -3.747  0.00  0.00     0.034 C 
ENDBRANCH  31  32
ENDBRANCH  29  31
BRANCH  29  34
ATOM     34  O4  NON d   1     -39.897  21.776   0.098  0.00  0.00    -0.313 OA
BRANCH  34  35
ATOM     35  C22 NON d   1     -40.448  22.538   1.158  0.00  0.00     0.174 C 
ATOM     36  C23 NON d   1     -39.468  23.611   1.585  0.00  0.00     0.034 C 
ENDBRANCH  34  35
ENDBRANCH  29  34
ENDBRANCH  28  29
ENDBRANCH  26  28
ENDBRANCH  25  26
ENDBRANCH   1  25
TORSDOF 12
ENDMDL
MODEL 3
REMARK VINA RESULT:   -24.250      1.545      2.579
REMARK INTER + INTRA:         -29.608
REMARK INTER:                 -27.830
REMARK INTRA:                  -1.779
REMARK CONF_INDEPENDENT:        3.580
REMARK UNBOUND:                -1.779
REMARK  12 active torsions:
REMARK  status: ('A' for Active; 'I' for Inactive)
REMARK    1  A    between atoms: C2_2  and  O1_3 
REMARK    2  A    between atoms: O1_3  and  P1_4 
REMARK    3  A    between atoms: P1_4  and  C3_6 
REMARK    4  A    between atoms: P1_4  and  O4_30 
REMARK    5  A    between atoms: C3_6  and  N1_7 
REMARK    6  A    between atoms: N1_7  and  C4_8 
REMARK    7  A    between atoms: C4_8  and  C5_9 
REMARK    8  A    between atoms: C8_12  and  C9_13 
REMARK       I    between atoms: C9_13  and  N2_15 
REMARK    9  A    between atoms: N2_15  and  C10_16 
REMARK   10  A    between atoms: C12_18  and  C13_19 
REMARK   11  A    between atoms: C19_26  and  N3_27 
REMARK   12  A    between atoms: O4_30  and  C22_31 
ROOT
ATOM      1  C5  NON d   1     -40.966  18.695  -3.600  0.00  0.00    -0.030 A 
ATOM      2  C6  NON d   1     -41.770  19.526  -4.414  0.00  0.00     0.010 A 
ATOM      3  C7  NON d   1     -43.089  19.171  -4.785  0.00  0.00     0.017 A 
ATOM      4  C8  NON d   1     -43.630  17.962  -4.349  0.00  0.00     0.032 A 
ATOM      5  C20 NON d   1     -42.817  17.111  -3.581  0.00  0.00     0.017 A 
ATOM      6  C21 NON d   1     -41.511  17.465  -3.217  0.00  0.00     0.010 A 
ENDROOT
BRANCH   4   7
ATOM      7  C9  NON d   1     -45.049  17.517  -4.537  0.00  0.00     0.256 C 
ATOM      8  O3  NON d   1     -45.414  17.379  -5.706  0.00  0.00    -0.267 OA
ATOM      9  N2  NON d   1     -45.856  17.275  -3.434  0.00  0.00    -0.321 N 
ATOM     10  H13 NON d   1     -45.409  17.197  -2.533  0.00  0.00     0.169 HD
BRANCH   9  11
ATOM     11  C10 NON d   1     -47.266  16.989  -3.469  0.00  0.00     0.057 A 
ATOM     12  C11 NON d   1     -48.032  17.403  -2.350  0.00  0.00     0.044 A 
ATOM     13  C12 NON d   1     -49.426  17.164  -2.248  0.00  0.00    -0.017 A 
ATOM     14  C17 NON d   1     -50.044  16.523  -3.327  0.00  0.00     0.014 A 
ATOM     15  C18 NON d   1     -49.320  16.150  -4.456  0.00  0.00     0.026 A 
ATOM     16  C19 NON d   1     -47.936  16.342  -4.537  0.00  0.00     0.033 A 
BRANCH  13  17
ATOM     17  C13 NON d   1     -50.212  17.585  -1.055  0.00  0.00     0.015 A 
ATOM     18  C14 NON d   1     -49.775  17.995   0.197  0.00  0.00     0.020 A 
ATOM     19  C15 NON d   1     -50.839  18.332   1.091  0.00  0.00     0.008 A 
ATOM     20  C16 NON d   1     -52.072  18.169   0.512  0.00  0.00     0.050 A 
ATOM     21  S1  NON d   1     -51.944  17.615  -1.092  0.00  0.00    -0.101 SA
ENDBRANCH  13  17
BRANCH  16  22
ATOM     22  N3  NON d   1     -47.361  16.130  -5.810  0.00  0.00    -0.301 NA
ATOM     23  H20 NON d   1     -46.540  15.523  -5.720  0.00  0.00     0.124 HD
ATOM     24  H21 NON d   1     -48.006  15.705  -6.466  0.00  0.00     0.124 HD
ENDBRANCH  16  22
ENDBRANCH   9  11
ENDBRANCH   4   7
BRANCH   1  25
ATOM     25  C4  NON d   1     -39.549  19.147  -3.208  0.00  0.00     0.308 C 
BRANCH  25  26
ATOM     26  N1  NON d   1     -39.470  20.006  -2.010  0.00  0.00     0.098 N 
ATOM     27  H8  NON d   1     -39.292  19.407  -1.210  0.00  0.00     0.317 HD
BRANCH  26  28
ATOM     28  C3  NON d   1     -38.356  20.988  -2.019  0.00  0.00     0.401 C 
BRANCH  28  29
ATOM     29  P1  NON d   1     -38.699  22.573  -3.273  0.00  0.00     0.356 P 
ATOM     30  O2  NON d   1     -37.274  22.471  -3.850  0.00  0.00    -0.257 OA
BRANCH  29  31
ATOM     31  O1  NON d   1     -39.393  21.708  -4.511  0.00  0.00    -0.313 OA
BRANCH  31  32
ATOM     32  C2  NON d   1     -38.595  21.451  -5.652  0.00  0.00     0.174 C 
ATOM     33  C1  NON d   1     -39.195  20.305  -6.440  0.00  0.00     0.034 C 
ENDBRANCH  31  32
ENDBRANCH  29  31
BRANCH  29  34
ATOM     34  O4  NON d   1     -40.123  22.675  -2.696  0.00  0.00    -0.313 OA
BRANCH  34  35
ATOM     35  C22 NON d   1     -40.571  23.952  -2.277  0.00  0.00     0.174 C 
ATOM     36  C23 NON d   1     -40.868  24.816  -3.485  0.00  0.00     0.034 C 
ENDBRANCH  34  35
ENDBRANCH  29  34
ENDBRANCH  28  29
ENDBRANCH  26  28
ENDBRANCH  25  26
ENDBRANCH   1  25
TORSDOF 12
ENDMDL
MODEL 4
REMARK VINA RESULT:   -23.047      3.581      4.415
REMARK INTER + INTRA:         -28.780
REMARK INTER:                 -26.626
REMARK INTRA:                  -2.154
REMARK CONF_INDEPENDENT:        3.580
REMARK UNBOUND:                -2.154
REMARK  12 active torsions:
REMARK  status: ('A' for Active; 'I' for Inactive)
REMARK    1  A    between atoms: C2_2  and  O1_3 
REMARK    2  A    between atoms: O1_3  and  P1_4 
REMARK    3  A    between atoms: P1_4  and  C3_6 
REMARK    4  A    between atoms: P1_4  and  O4_30 
REMARK    5  A    between atoms: C3_6  and  N1_7 
REMARK    6  A    between atoms: N1_7  and  C4_8 
REMARK    7  A    between atoms: C4_8  and  C5_9 
REMARK    8  A    between atoms: C8_12  and  C9_13 
REMARK       I    between atoms: C9_13  and  N2_15 
REMARK    9  A    between atoms: N2_15  and  C10_16 
REMARK   10  A    between atoms: C12_18  and  C13_19 
REMARK   11  A    between atoms: C19_26  and  N3_27 
REMARK   12  A    between atoms: O4_30  and  C22_31 
ROOT
ATOM      1  C5  NON d   1     -40.699  18.404  -4.204  0.00  0.00    -0.030 A 
ATOM      2  C6  NON d   1     -41.432  18.107  -3.033  0.00  0.00     0.010 A 
ATOM      3  C7  NON d   1     -42.817  17.813  -3.063  0.00  0.00     0.017 A 
ATOM      4  C8  NON d   1     -43.500  17.819  -4.279  0.00  0.00     0.032 A 
ATOM      5  C20 NON d   1     -42.785  18.163  -5.439  0.00  0.00     0.017 A 
ATOM      6  C21 NON d   1     -41.415  18.455  -5.404  0.00  0.00     0.010 A 
ENDROOT
BRANCH   4   7
ATOM      7  C9  NON d   1     -44.921  17.392  -4.488  0.00  0.00     0.256 C 
ATOM      8  O3  NON d   1     -45.252  17.194  -5.658  0.00  0.00    -0.267 OA
ATOM      9  N2  NON d   1     -45.768  17.228  -3.400  0.00  0.00    -0.321 N 
ATOM     10  H13 NON d   1     -45.351  17.192  -2.482  0.00  0.00     0.169 HD
BRANCH   9  11
ATOM     11  C10 NON d   1     -47.181  16.967  -3.465  0.00  0.00     0.057 A 
ATOM     12  C11 NON d   1     -47.962  17.380  -2.355  0.00  0.00     0.044 A 
ATOM     13  C12 NON d   1     -49.361  17.165  -2.283  0.00  0.00    -0.017 A 
ATOM     14  C17 NON d   1     -49.969  16.548  -3.381  0.00  0.00     0.014 A 
ATOM     15  C18 NON d   1     -49.231  16.176  -4.501  0.00  0.00     0.026 A 
ATOM     16  C19 NON d   1     -47.842  16.346  -4.553  0.00  0.00     0.033 A 
BRANCH  13  17
ATOM     17  C13 NON d   1     -50.162  17.585  -1.099  0.00  0.00     0.015 A 
ATOM     18  C14 NON d   1     -49.742  17.970   0.166  0.00  0.00     0.020 A 
ATOM     19  C15 NON d   1     -50.816  18.315   1.045  0.00  0.00     0.008 A 
ATOM     20  C16 NON d   1     -52.041  18.183   0.440  0.00  0.00     0.050 A 
ATOM     21  S1  NON d   1     -51.892  17.647  -1.168  0.00  0.00    -0.101 SA
ENDBRANCH  13  17
BRANCH  16  22
ATOM     22  N3  NON d   1     -47.247  16.139  -5.818  0.00  0.00    -0.301 NA
ATOM     23  H20 NON d   1     -47.110  17.041  -6.285  0.00  0.00     0.124 HD
ATOM     24  H21 NON d   1     -46.352  15.667  -5.759  0.00  0.00     0.124 HD
ENDBRANCH  16  22
ENDBRANCH   9  11
ENDBRANCH   4   7
BRANCH   1  25
ATOM     25  C4  NON d   1     -39.190  18.690  -4.111  0.00  0.00     0.308 C 
BRANCH  25  26
ATOM     26  N1  NON d   1     -38.677  19.689  -5.068  0.00  0.00     0.098 N 
ATOM     27  H8  NON d   1     -38.020  20.284  -4.574  0.00  0.00     0.317 HD
BRANCH  26  28
ATOM     28  C3  NON d   1     -37.914  19.124  -6.210  0.00  0.00     0.401 C 
BRANCH  28  29
ATOM     29  P1  NON d   1     -38.885  19.332  -8.003  0.00  0.00     0.356 P 
ATOM     30  O2  NON d   1     -39.689  18.042  -7.758  0.00  0.00    -0.257 OA
BRANCH  29  31
ATOM     31  O1  NON d   1     -40.095  20.334  -7.464  0.00  0.00    -0.313 OA
BRANCH  31  32
ATOM     32  C2  NON d   1     -39.814  21.721  -7.407  0.00  0.00     0.174 C 
ATOM     33  C1  NON d   1     -40.065  22.229  -6.002  0.00  0.00     0.034 C 
ENDBRANCH  31  32
ENDBRANCH  29  31
BRANCH  29  34
ATOM     34  O4  NON d   1     -38.080  20.623  -8.248  0.00  0.00    -0.313 OA
BRANCH  34  35
ATOM     35  C22 NON d   1     -36.959  20.543  -9.111  0.00  0.00     0.174 C 
ATOM     36  C23 NON d   1     -36.615  19.093  -9.376  0.00  0.00     0.034 C 
ENDBRANCH  34  35
ENDBRANCH  29  34
ENDBRANCH  28  29
ENDBRANCH  26  28
ENDBRANCH  25  26
ENDBRANCH   1  25
TORSDOF 12
ENDMDL
MODEL 5
REMARK VINA RESULT:   -22.983      1.937      2.449
REMARK INTER + INTRA:         -28.372
REMARK INTER:                 -26.563
REMARK INTRA:                  -1.809
REMARK CONF_INDEPENDENT:        3.580
REMARK UNBOUND:                -1.809
REMARK  12 active torsions:
REMARK  status: ('A' for Active; 'I' for Inactive)
REMARK    1  A    between atoms: C2_2  and  O1_3 
REMARK    2  A    between atoms: O1_3  and  P1_4 
REMARK    3  A    between atoms: P1_4  and  C3_6 
REMARK    4  A    between atoms: P1_4  and  O4_30 
REMARK    5  A    between atoms: C3_6  and  N1_7 
REMARK    6  A    between atoms: N1_7  and  C4_8 
REMARK    7  A    between atoms: C4_8  and  C5_9 
REMARK    8  A    between atoms: C8_12  and  C9_13 
REMARK       I    between atoms: C9_13  and  N2_15 
REMARK    9  A    between atoms: N2_15  and  C10_16 
REMARK   10  A    between atoms: C12_18  and  C13_19 
REMARK   11  A    between atoms: C19_26  and  N3_27 
REMARK   12  A    between atoms: O4_30  and  C22_31 
ROOT
ATOM      1  C5  NON d   1     -40.609  18.220  -3.835  0.00  0.00    -0.030 A 
ATOM      2  C6  NON d   1     -41.481  18.245  -2.722  0.00  0.00     0.010 A 
ATOM      3  C7  NON d   1     -42.869  17.993  -2.844  0.00  0.00     0.017 A 
ATOM      4  C8  NON d   1     -43.415  17.716  -4.097  0.00  0.00     0.032 A 
ATOM      5  C20 NON d   1     -42.560  17.740  -5.213  0.00  0.00     0.017 A 
ATOM      6  C21 NON d   1     -41.188  17.992  -5.088  0.00  0.00     0.010 A 
ENDROOT
BRANCH   4   7
ATOM      7  C9  NON d   1     -44.827  17.292  -4.364  0.00  0.00     0.256 C 
ATOM      8  O3  NON d   1     -45.101  17.058  -5.542  0.00  0.00    -0.267 OA
ATOM      9  N2  NON d   1     -45.729  17.169  -3.315  0.00  0.00    -0.321 N 
ATOM     10  H13 NON d   1     -45.359  17.161  -2.376  0.00  0.00     0.169 HD
BRANCH   9  11
ATOM     11  C10 NON d   1     -47.140  16.915  -3.443  0.00  0.00     0.057 A 
ATOM     12  C11 NON d   1     -47.963  17.312  -2.358  0.00  0.00     0.044 A 
ATOM     13  C12 NON d   1     -49.365  17.102  -2.347  0.00  0.00    -0.017 A 
ATOM     14  C17 NON d   1     -49.930  16.507  -3.480  0.00  0.00     0.014 A 
ATOM     15  C18 NON d   1     -49.148  16.152  -4.575  0.00  0.00     0.026 A 
ATOM     16  C19 NON d   1     -47.757  16.317  -4.568  0.00  0.00     0.033 A 
BRANCH  13  17
ATOM     17  C13 NON d   1     -50.212  17.504  -1.189  0.00  0.00     0.015 A 
ATOM     18  C14 NON d   1     -49.841  17.984   0.059  0.00  0.00     0.020 A 
ATOM     19  C15 NON d   1     -50.951  18.273   0.913  0.00  0.00     0.008 A 
ATOM     20  C16 NON d   1     -52.153  18.004   0.307  0.00  0.00     0.050 A 
ATOM     21  S1  NON d   1     -51.941  17.409  -1.272  0.00  0.00    -0.101 SA
ENDBRANCH  13  17
BRANCH  16  22
ATOM     22  N3  NON d   1     -47.112  16.130  -5.811  0.00  0.00    -0.301 NA
ATOM     23  H20 NON d   1     -47.601  15.407  -6.348  0.00  0.00     0.124 HD
ATOM     24  H21 NON d   1     -47.077  16.977  -6.366  0.00  0.00     0.124 HD
ENDBRANCH  16  22
ENDBRANCH   9  11
ENDBRANCH   4   7
BRANCH   1  25
ATOM     25  C4  NON d   1     -39.105  18.476  -3.635  0.00  0.00     0.308 C 
BRANCH  25  26
ATOM     26  N1  NON d   1     -38.767  19.453  -2.581  0.00  0.00     0.098 N 
ATOM     27  H8  NON d   1     -37.909  19.920  -2.856  0.00  0.00     0.317 HD
BRANCH  26  28
ATOM     28  C3  NON d   1     -39.763  20.538  -2.395  0.00  0.00     0.401 C 
BRANCH  28  29
ATOM     29  P1  NON d   1     -39.987  21.713  -4.059  0.00  0.00     0.356 P 
ATOM     30  O2  NON d   1     -41.390  22.155  -3.602  0.00  0.00    -0.257 OA
BRANCH  29  31
ATOM     31  O1  NON d   1     -39.232  23.065  -3.457  0.00  0.00    -0.313 OA
BRANCH  31  32
ATOM     32  C2  NON d   1     -39.841  24.318  -3.713  0.00  0.00     0.174 C 
ATOM     33  C1  NON d   1     -38.768  25.368  -3.919  0.00  0.00     0.034 C 
ENDBRANCH  31  32
ENDBRANCH  29  31
BRANCH  29  34
ATOM     34  O4  NON d   1     -38.583  21.271  -4.515  0.00  0.00    -0.313 OA
BRANCH  34  35
ATOM     35  C22 NON d   1     -38.342  21.189  -5.909  0.00  0.00     0.174 C 
ATOM     36  C23 NON d   1     -39.457  21.881  -6.666  0.00  0.00     0.034 C 
ENDBRANCH  34  35
ENDBRANCH  29  34
ENDBRANCH  28  29
ENDBRANCH  26  28
ENDBRANCH  25  26
ENDBRANCH   1  25
TORSDOF 12
ENDMDL
MODEL 6
REMARK VINA RESULT:   -22.929      2.894      3.961
REMARK INTER + INTRA:         -29.063
REMARK INTER:                 -26.509
REMARK INTRA:                  -2.555
REMARK CONF_INDEPENDENT:        3.580
REMARK UNBOUND:                -2.555
REMARK  12 active torsions:
REMARK  status: ('A' for Active; 'I' for Inactive)
REMARK    1  A    between atoms: C2_2  and  O1_3 
REMARK    2  A    between atoms: O1_3  and  P1_4 
REMARK    3  A    between atoms: P1_4  and  C3_6 
REMARK    4  A    between atoms: P1_4  and  O4_30 
REMARK    5  A    between atoms: C3_6  and  N1_7 
REMARK    6  A    between atoms: N1_7  and  C4_8 
REMARK    7  A    between atoms: C4_8  and  C5_9 
REMARK    8  A    between atoms: C8_12  and  C9_13 
REMARK       I    between atoms: C9_13  and  N2_15 
REMARK    9  A    between atoms: N2_15  and  C10_16 
REMARK   10  A    between atoms: C12_18  and  C13_19 
REMARK   11  A    between atoms: C19_26  and  N3_27 
REMARK   12  A    between atoms: O4_30  and  C22_31 
ROOT
ATOM      1  C5  NON d   1     -40.557  18.095  -3.820  0.00  0.00    -0.030 A 
ATOM      2  C6  NON d   1     -41.405  18.027  -2.690  0.00  0.00     0.010 A 
ATOM      3  C7  NON d   1     -42.792  17.768  -2.801  0.00  0.00     0.017 A 
ATOM      4  C8  NON d   1     -43.363  17.579  -4.059  0.00  0.00     0.032 A 
ATOM      5  C20 NON d   1     -42.533  17.694  -5.187  0.00  0.00     0.017 A 
ATOM      6  C21 NON d   1     -41.161  17.952  -5.073  0.00  0.00     0.010 A 
ENDROOT
BRANCH   4   7
ATOM      7  C9  NON d   1     -44.776  17.158  -4.327  0.00  0.00     0.256 C 
ATOM      8  O3  NON d   1     -45.027  16.836  -5.489  0.00  0.00    -0.267 OA
ATOM      9  N2  NON d   1     -45.704  17.134  -3.294  0.00  0.00    -0.321 N 
ATOM     10  H13 NON d   1     -45.356  17.194  -2.349  0.00  0.00     0.169 HD
BRANCH   9  11
ATOM     11  C10 NON d   1     -47.116  16.895  -3.436  0.00  0.00     0.057 A 
ATOM     12  C11 NON d   1     -47.945  17.291  -2.356  0.00  0.00     0.044 A 
ATOM     13  C12 NON d   1     -49.349  17.094  -2.359  0.00  0.00    -0.017 A 
ATOM     14  C17 NON d   1     -49.910  16.513  -3.501  0.00  0.00     0.014 A 
ATOM     15  C18 NON d   1     -49.121  16.160  -4.593  0.00  0.00     0.026 A 
ATOM     16  C19 NON d   1     -47.729  16.311  -4.571  0.00  0.00     0.033 A 
BRANCH  13  17
ATOM     17  C13 NON d   1     -50.203  17.495  -1.206  0.00  0.00     0.015 A 
ATOM     18  C14 NON d   1     -49.839  17.952   0.053  0.00  0.00     0.020 A 
ATOM     19  C15 NON d   1     -50.953  18.248   0.898  0.00  0.00     0.008 A 
ATOM     20  C16 NON d   1     -52.152  18.008   0.276  0.00  0.00     0.050 A 
ATOM     21  S1  NON d   1     -51.932  17.430  -1.309  0.00  0.00    -0.101 SA
ENDBRANCH  13  17
BRANCH  16  22
ATOM     22  N3  NON d   1     -47.075  16.128  -5.810  0.00  0.00    -0.301 NA
ATOM     23  H20 NON d   1     -46.981  17.030  -6.286  0.00  0.00     0.124 HD
ATOM     24  H21 NON d   1     -46.152  15.718  -5.710  0.00  0.00     0.124 HD
ENDBRANCH  16  22
ENDBRANCH   9  11
ENDBRANCH   4   7
BRANCH   1  25
ATOM     25  C4  NON d   1     -39.052  18.353  -3.633  0.00  0.00     0.308 C 
BRANCH  25  26
ATOM     26  N1  NON d   1     -38.657  19.775  -3.589  0.00  0.00     0.098 N 
ATOM     27  H8  NON d   1     -37.732  19.852  -3.998  0.00  0.00     0.317 HD
BRANCH  26  28
ATOM     28  C3  NON d   1     -39.517  20.684  -4.388  0.00  0.00     0.401 C 
BRANCH  28  29
ATOM     29  P1  NON d   1     -38.593  21.375  -6.082  0.00  0.00     0.356 P 
ATOM     30  O2  NON d   1     -37.580  22.178  -5.246  0.00  0.00    -0.257 OA
BRANCH  29  31
ATOM     31  O1  NON d   1     -37.572  20.082  -6.300  0.00  0.00    -0.313 OA
BRANCH  31  32
ATOM     32  C2  NON d   1     -37.976  19.084  -7.220  0.00  0.00     0.174 C 
ATOM     33  C1  NON d   1     -36.777  18.242  -7.609  0.00  0.00     0.034 C 
ENDBRANCH  31  32
ENDBRANCH  29  31
BRANCH  29  34
ATOM     34  O4  NON d   1     -39.607  20.571  -6.919  0.00  0.00    -0.313 OA
BRANCH  34  35
ATOM     35  C22 NON d   1     -40.414  21.287  -7.837  0.00  0.00     0.174 C 
ATOM     36  C23 NON d   1     -40.581  20.485  -9.110  0.00  0.00     0.034 C 
ENDBRANCH  34  35
ENDBRANCH  29  34
ENDBRANCH  28  29
ENDBRANCH  26  28
ENDBRANCH  25  26
ENDBRANCH   1  25
TORSDOF 12
ENDMDL
MODEL 7
REMARK VINA RESULT:   -22.743      1.062      1.345
REMARK INTER + INTRA:         -28.785
REMARK INTER:                 -26.323
REMARK INTRA:                  -2.462
REMARK CONF_INDEPENDENT:        3.580
REMARK UNBOUND:                -2.462
REMARK  12 active torsions:
REMARK  status: ('A' for Active; 'I' for Inactive)
REMARK    1  A    between atoms: C2_2  and  O1_3 
REMARK    2  A    between atoms: O1_3  and  P1_4 
REMARK    3  A    between atoms: P1_4  and  C3_6 
REMARK    4  A    between atoms: P1_4  and  O4_30 
REMARK    5  A    between atoms: C3_6  and  N1_7 
REMARK    6  A    between atoms: N1_7  and  C4_8 
REMARK    7  A    between atoms: C4_8  and  C5_9 
REMARK    8  A    between atoms: C8_12  and  C9_13 
REMARK       I    between atoms: C9_13  and  N2_15 
REMARK    9  A    between atoms: N2_15  and  C10_16 
REMARK   10  A    between atoms: C12_18  and  C13_19 
REMARK   11  A    between atoms: C19_26  and  N3_27 
REMARK   12  A    between atoms: O4_30  and  C22_31 
ROOT
ATOM      1  C5  NON d   1     -40.639  18.404  -3.680  0.00  0.00    -0.030 A 
ATOM      2  C6  NON d   1     -41.475  18.136  -2.572  0.00  0.00     0.010 A 
ATOM      3  C7  NON d   1     -42.863  17.896  -2.714  0.00  0.00     0.017 A 
ATOM      4  C8  NON d   1     -43.445  17.927  -3.981  0.00  0.00     0.032 A 
ATOM      5  C20 NON d   1     -42.626  18.242  -5.079  0.00  0.00     0.017 A 
ATOM      6  C21 NON d   1     -41.254  18.481  -4.934  0.00  0.00     0.010 A 
ENDROOT
BRANCH   4   7
ATOM      7  C9  NON d   1     -44.860  17.555  -4.305  0.00  0.00     0.256 C 
ATOM      8  O3  NON d   1     -45.176  17.640  -5.493  0.00  0.00    -0.267 OA
ATOM      9  N2  NON d   1     -45.718  17.132  -3.299  0.00  0.00    -0.321 N 
ATOM     10  H13 NON d   1     -45.312  16.881  -2.410  0.00  0.00     0.169 HD
BRANCH   9  11
ATOM     11  C10 NON d   1     -47.129  16.887  -3.443  0.00  0.00     0.057 A 
ATOM     12  C11 NON d   1     -47.961  17.275  -2.363  0.00  0.00     0.044 A 
ATOM     13  C12 NON d   1     -49.364  17.072  -2.367  0.00  0.00    -0.017 A 
ATOM     14  C17 NON d   1     -49.921  16.492  -3.513  0.00  0.00     0.014 A 
ATOM     15  C18 NON d   1     -49.130  16.147  -4.605  0.00  0.00     0.026 A 
ATOM     16  C19 NON d   1     -47.738  16.304  -4.581  0.00  0.00     0.033 A 
BRANCH  13  17
ATOM     17  C13 NON d   1     -50.221  17.464  -1.214  0.00  0.00     0.015 A 
ATOM     18  C14 NON d   1     -49.861  17.849   0.070  0.00  0.00     0.020 A 
ATOM     19  C15 NON d   1     -50.976  18.163   0.907  0.00  0.00     0.008 A 
ATOM     20  C16 NON d   1     -52.173  18.010   0.252  0.00  0.00     0.050 A 
ATOM     21  S1  NON d   1     -51.948  17.491  -1.353  0.00  0.00    -0.101 SA
ENDBRANCH  13  17
BRANCH  16  22
ATOM     22  N3  NON d   1     -47.081  16.128  -5.820  0.00  0.00    -0.301 NA
ATOM     23  H20 NON d   1     -46.977  17.035  -6.286  0.00  0.00     0.124 HD
ATOM     24  H21 NON d   1     -46.164  15.708  -5.722  0.00  0.00     0.124 HD
ENDBRANCH  16  22
ENDBRANCH   9  11
ENDBRANCH   4   7
BRANCH   1  25
ATOM     25  C4  NON d   1     -39.132  18.631  -3.465  0.00  0.00     0.308 C 
BRANCH  25  26
ATOM     26  N1  NON d   1     -38.755  19.136  -2.130  0.00  0.00     0.098 N 
ATOM     27  H8  NON d   1     -38.167  18.437  -1.689  0.00  0.00     0.317 HD
BRANCH  26  28
ATOM     28  C3  NON d   1     -37.946  20.381  -2.140  0.00  0.00     0.401 C 
BRANCH  28  29
ATOM     29  P1  NON d   1     -39.092  22.079  -2.180  0.00  0.00     0.356 P 
ATOM     30  O2  NON d   1     -40.296  21.325  -1.587  0.00  0.00    -0.257 OA
BRANCH  29  31
ATOM     31  O1  NON d   1     -38.600  22.692  -0.717  0.00  0.00    -0.313 OA
BRANCH  31  32
ATOM     32  C2  NON d   1     -39.530  22.650   0.351  0.00  0.00     0.174 C 
ATOM     33  C1  NON d   1     -39.352  23.876   1.223  0.00  0.00     0.034 C 
ENDBRANCH  31  32
ENDBRANCH  29  31
BRANCH  29  34
ATOM     34  O4  NON d   1     -37.887  22.834  -2.774  0.00  0.00    -0.313 OA
BRANCH  34  35
ATOM     35  C22 NON d   1     -38.052  23.434  -4.047  0.00  0.00     0.174 C 
ATOM     36  C23 NON d   1     -39.388  23.035  -4.636  0.00  0.00     0.034 C 
ENDBRANCH  34  35
ENDBRANCH  29  34
ENDBRANCH  28  29
ENDBRANCH  26  28
ENDBRANCH  25  26
ENDBRANCH   1  25
TORSDOF 12
ENDMDL
