MODEL 1
REMARK VINA RESULT:   -17.305      0.000      0.000
REMARK INTER + INTRA:         -21.114
REMARK INTER:                 -19.692
REMARK INTRA:                  -1.422
REMARK CONF_INDEPENDENT:        2.386
REMARK UNBOUND:                -1.422
REMARK  8 active torsions:
REMARK  status: ('A' for Active; 'I' for Inactive)
REMARK    1  A    between atoms: C1_2  and  C2_3 
REMARK       I    between atoms: C1_2  and  N3_25 
REMARK    2  A    between atoms: C2_3  and  C3_4 
REMARK    3  A    between atoms: C6_7  and  C7_8 
REMARK    4  A    between atoms: C9_11  and  N1_12 
REMARK       I    between atoms: N1_12  and  C10_13 
REMARK    5  A    between atoms: C10_13  and  C11_15 
REMARK    6  A    between atoms: C11_15  and  O3_16 
REMARK    7  A    between atoms: O3_16  and  C12_17 
REMARK    8  A    between atoms: N3_25  and  O4_26 
ROOT
ATOM      1  C7  NON d   1     -45.717  16.795  -4.554  0.00  0.00     0.083 A 
ATOM      2  C8  NON d   1     -45.953  16.130  -5.743  0.00  0.00     0.086 A 
ATOM      3  S1  NON d   1     -47.574  15.607  -5.810  0.00  0.00    -0.061 SA
ATOM      4  C9  NON d   1     -47.854  16.284  -4.270  0.00  0.00     0.173 A 
ATOM      5  N2  NON d   1     -46.825  16.888  -3.718  0.00  0.00    -0.223 NA
ENDROOT
BRANCH   1   6
ATOM      6  C6  NON d   1     -44.372  17.369  -4.196  0.00  0.00     0.034 A 
ATOM      7  C5  NON d   1     -43.564  16.893  -3.185  0.00  0.00     0.022 A 
ATOM      8  C4  NON d   1     -42.352  17.629  -3.074  0.00  0.00     0.016 A 
ATOM      9  C3  NON d   1     -42.252  18.652  -4.002  0.00  0.00    -0.008 A 
ATOM     10  S2  NON d   1     -43.650  18.696  -4.991  0.00  0.00    -0.092 SA
BRANCH   9  11
ATOM     11  C2  NON d   1     -41.056  19.569  -4.111  0.00  0.00     0.151 C 
BRANCH  11  12
ATOM     12  C1  NON d   1     -40.520  20.272  -2.875  0.00  0.00     0.245 C 
ATOM     13  O1  NON d   1     -40.502  21.481  -2.669  0.00  0.00    -0.271 OA
ATOM     14  N3  NON d   1     -40.039  19.432  -1.893  0.00  0.00    -0.237 N 
ATOM     15  H14 NON d   1     -39.464  19.880  -1.184  0.00  0.00     0.197 HD
BRANCH  14  16
ATOM     16  O4  NON d   1     -39.691  18.114  -2.252  0.00  0.00    -0.287 OA
ATOM     17  H15 NON d   1     -39.193  17.814  -1.468  0.00  0.00     0.244 HD
ENDBRANCH  14  16
ENDBRANCH  11  12
ENDBRANCH   9  11
ENDBRANCH   1   6
BRANCH   4  18
ATOM     18  N1  NON d   1     -49.086  16.237  -3.657  0.00  0.00    -0.304 N 
ATOM     19  C10 NON d   1     -49.820  15.097  -3.381  0.00  0.00     0.247 C 
ATOM     20  O2  NON d   1     -49.448  13.939  -3.561  0.00  0.00    -0.271 OA
ATOM     21  H6  NON d   1     -49.419  17.147  -3.369  0.00  0.00     0.171 HD
BRANCH  19  22
ATOM     22  C11 NON d   1     -51.199  15.402  -2.780  0.00  0.00     0.278 C 
BRANCH  22  23
ATOM     23  O3  NON d   1     -51.124  16.677  -2.152  0.00  0.00    -0.342 OA
BRANCH  23  24
ATOM     24  C12 NON d   1     -52.271  17.255  -1.698  0.00  0.00     0.069 A 
ATOM     25  C13 NON d   1     -53.420  16.887  -2.405  0.00  0.00     0.037 A 
ATOM     26  C14 NON d   1     -54.668  17.407  -2.062  0.00  0.00     0.003 A 
ATOM     27  C15 NON d   1     -54.771  18.311  -1.008  0.00  0.00     0.000 A 
ATOM     28  C16 NON d   1     -53.626  18.689  -0.304  0.00  0.00     0.003 A 
ATOM     29  C17 NON d   1     -52.375  18.163  -0.648  0.00  0.00     0.037 A 
ENDBRANCH  23  24
ENDBRANCH  22  23
ENDBRANCH  19  22
ENDBRANCH   4  18
TORSDOF 8
ENDMDL
MODEL 2
REMARK VINA RESULT:   -16.209      1.380      1.496
REMARK INTER + INTRA:         -20.205
REMARK INTER:                 -18.595
REMARK INTRA:                  -1.610
REMARK CONF_INDEPENDENT:        2.386
REMARK UNBOUND:                -1.610
REMARK  8 active torsions:
REMARK  status: ('A' for Active; 'I' for Inactive)
REMARK    1  A    between atoms: C1_2  and  C2_3 
REMARK       I    between atoms: C1_2  and  N3_25 
REMARK    2  A    between atoms: C2_3  and  C3_4 
REMARK    3  A    between atoms: C6_7  and  C7_8 
REMARK    4  A    between atoms: C9_11  and  N1_12 
REMARK       I    between atoms: N1_12  and  C10_13 
REMARK    5  A    between atoms: C10_13  and  C11_15 
REMARK    6  A    between atoms: C11_15  and  O3_16 
REMARK    7  A    between atoms: O3_16  and  C12_17 
REMARK    8  A    between atoms: N3_25  and  O4_26 
ROOT
ATOM      1  C7  NON d   1     -45.839  16.804  -4.619  0.00  0.00     0.083 A 
ATOM      2  C8  NON d   1     -46.100  16.130  -5.797  0.00  0.00     0.086 A 
ATOM      3  S1  NON d   1     -47.712  15.576  -5.810  0.00  0.00    -0.061 SA
ATOM      4  C9  NON d   1     -47.956  16.254  -4.265  0.00  0.00     0.173 A 
ATOM      5  N2  NON d   1     -46.922  16.881  -3.749  0.00  0.00    -0.223 NA
ENDROOT
BRANCH   1   6
ATOM      6  C6  NON d   1     -44.495  17.405  -4.306  0.00  0.00     0.034 A 
ATOM      7  C5  NON d   1     -43.611  16.901  -3.376  0.00  0.00     0.022 A 
ATOM      8  C4  NON d   1     -42.420  17.673  -3.291  0.00  0.00     0.016 A 
ATOM      9  C3  NON d   1     -42.412  18.754  -4.158  0.00  0.00    -0.008 A 
ATOM     10  S2  NON d   1     -43.868  18.804  -5.058  0.00  0.00    -0.092 SA
BRANCH   9  11
ATOM     11  C2  NON d   1     -41.256  19.719  -4.281  0.00  0.00     0.151 C 
BRANCH  11  12
ATOM     12  C1  NON d   1     -39.902  19.228  -4.765  0.00  0.00     0.245 C 
ATOM     13  O1  NON d   1     -38.861  19.188  -4.116  0.00  0.00    -0.271 OA
ATOM     14  N3  NON d   1     -39.884  18.762  -6.063  0.00  0.00    -0.237 N 
ATOM     15  H14 NON d   1     -38.960  18.665  -6.475  0.00  0.00     0.197 HD
BRANCH  14  16
ATOM     16  O4  NON d   1     -40.926  19.152  -6.927  0.00  0.00    -0.287 OA
ATOM     17  H15 NON d   1     -41.558  18.414  -6.832  0.00  0.00     0.244 HD
ENDBRANCH  14  16
ENDBRANCH  11  12
ENDBRANCH   9  11
ENDBRANCH   1   6
BRANCH   4  18
ATOM     18  N1  NON d   1     -49.167  16.187  -3.613  0.00  0.00    -0.304 N 
ATOM     19  C10 NON d   1     -49.988  15.075  -3.524  0.00  0.00     0.247 C 
ATOM     20  O2  NON d   1     -49.723  13.949  -3.938  0.00  0.00    -0.271 OA
ATOM     21  H6  NON d   1     -49.411  17.046  -3.142  0.00  0.00     0.171 HD
BRANCH  19  22
ATOM     22  C11 NON d   1     -51.314  15.366  -2.810  0.00  0.00     0.278 C 
BRANCH  22  23
ATOM     23  O3  NON d   1     -51.202  16.644  -2.192  0.00  0.00    -0.342 OA
BRANCH  23  24
ATOM     24  C12 NON d   1     -52.330  17.252  -1.731  0.00  0.00     0.069 A 
ATOM     25  C13 NON d   1     -53.498  16.896  -2.415  0.00  0.00     0.037 A 
ATOM     26  C14 NON d   1     -54.730  17.448  -2.061  0.00  0.00     0.003 A 
ATOM     27  C15 NON d   1     -54.798  18.371  -1.021  0.00  0.00     0.000 A 
ATOM     28  C16 NON d   1     -53.635  18.735  -0.340  0.00  0.00     0.003 A 
ATOM     29  C17 NON d   1     -52.400  18.178  -0.694  0.00  0.00     0.037 A 
ENDBRANCH  23  24
ENDBRANCH  22  23
ENDBRANCH  19  22
ENDBRANCH   4  18
TORSDOF 8
ENDMDL
MODEL 3
REMARK VINA RESULT:   -15.946      4.755     11.480
REMARK INTER + INTRA:         -19.064
REMARK INTER:                 -18.332
REMARK INTRA:                  -0.732
REMARK CONF_INDEPENDENT:        2.386
REMARK UNBOUND:                -0.732
REMARK  8 active torsions:
REMARK  status: ('A' for Active; 'I' for Inactive)
REMARK    1  A    between atoms: C1_2  and  C2_3 
REMARK       I    between atoms: C1_2  and  N3_25 
REMARK    2  A    between atoms: C2_3  and  C3_4 
REMARK    3  A    between atoms: C6_7  and  C7_8 
REMARK    4  A    between atoms: C9_11  and  N1_12 
REMARK       I    between atoms: N1_12  and  C10_13 
REMARK    5  A    between atoms: C10_13  and  C11_15 
REMARK    6  A    between atoms: C11_15  and  O3_16 
REMARK    7  A    between atoms: O3_16  and  C12_17 
REMARK    8  A    between atoms: N3_25  and  O4_26 
ROOT
ATOM      1  C7  NON d   1     -43.449  17.916  -4.778  0.00  0.00     0.083 A 
ATOM      2  C8  NON d   1     -42.298  17.255  -4.393  0.00  0.00     0.086 A 
ATOM      3  S1  NON d   1     -40.923  18.110  -4.928  0.00  0.00    -0.061 SA
ATOM      4  C9  NON d   1     -41.934  19.287  -5.636  0.00  0.00     0.173 A 
ATOM      5  N2  NON d   1     -43.225  19.094  -5.483  0.00  0.00    -0.223 NA
ENDROOT
BRANCH   1   6
ATOM      6  C6  NON d   1     -44.827  17.402  -4.460  0.00  0.00     0.034 A 
ATOM      7  C5  NON d   1     -45.331  17.255  -3.185  0.00  0.00     0.022 A 
ATOM      8  C4  NON d   1     -46.660  16.749  -3.186  0.00  0.00     0.016 A 
ATOM      9  C3  NON d   1     -47.152  16.521  -4.461  0.00  0.00    -0.008 A 
ATOM     10  S2  NON d   1     -45.972  16.926  -5.634  0.00  0.00    -0.092 SA
BRANCH   9  11
ATOM     11  C2  NON d   1     -48.544  16.005  -4.741  0.00  0.00     0.151 C 
BRANCH  11  12
ATOM     12  C1  NON d   1     -49.317  15.273  -3.656  0.00  0.00     0.245 C 
ATOM     13  O1  NON d   1     -49.217  15.439  -2.445  0.00  0.00    -0.271 OA
ATOM     14  N3  NON d   1     -50.237  14.356  -4.119  0.00  0.00    -0.237 N 
ATOM     15  H14 NON d   1     -50.577  13.696  -3.423  0.00  0.00     0.197 HD
BRANCH  14  16
ATOM     16  O4  NON d   1     -50.096  13.873  -5.435  0.00  0.00    -0.287 OA
ATOM     17  H15 NON d   1     -50.470  12.974  -5.364  0.00  0.00     0.244 HD
ENDBRANCH  14  16
ENDBRANCH  11  12
ENDBRANCH   9  11
ENDBRANCH   1   6
BRANCH   4  18
ATOM     18  N1  NON d   1     -41.434  20.391  -6.290  0.00  0.00    -0.304 N 
ATOM     19  C10 NON d   1     -40.710  20.384  -7.470  0.00  0.00     0.247 C 
ATOM     20  O2  NON d   1     -40.474  19.398  -8.165  0.00  0.00    -0.271 OA
ATOM     21  H6  NON d   1     -41.682  21.262  -5.842  0.00  0.00     0.171 HD
BRANCH  19  22
ATOM     22  C11 NON d   1     -40.217  21.778  -7.878  0.00  0.00     0.278 C 
BRANCH  22  23
ATOM     23  O3  NON d   1     -39.263  21.611  -8.921  0.00  0.00    -0.342 OA
BRANCH  23  24
ATOM     24  C12 NON d   1     -39.439  22.291 -10.089  0.00  0.00     0.069 A 
ATOM     25  C13 NON d   1     -39.943  23.586  -9.931  0.00  0.00     0.037 A 
ATOM     26  C14 NON d   1     -40.185  24.399 -11.039  0.00  0.00     0.003 A 
ATOM     27  C15 NON d   1     -39.932  23.912 -12.318  0.00  0.00     0.000 A 
ATOM     28  C16 NON d   1     -39.436  22.617 -12.483  0.00  0.00     0.003 A 
ATOM     29  C17 NON d   1     -39.190  21.805 -11.369  0.00  0.00     0.037 A 
ENDBRANCH  23  24
ENDBRANCH  22  23
ENDBRANCH  19  22
ENDBRANCH   4  18
TORSDOF 8
ENDMDL
MODEL 4
REMARK VINA RESULT:   -15.355      3.454     11.245
REMARK INTER + INTRA:         -19.359
REMARK INTER:                 -17.741
REMARK INTRA:                  -1.617
REMARK CONF_INDEPENDENT:        2.386
REMARK UNBOUND:                -1.617
REMARK  8 active torsions:
REMARK  status: ('A' for Active; 'I' for Inactive)
REMARK    1  A    between atoms: C1_2  and  C2_3 
REMARK       I    between atoms: C1_2  and  N3_25 
REMARK    2  A    between atoms: C2_3  and  C3_4 
REMARK    3  A    between atoms: C6_7  and  C7_8 
REMARK    4  A    between atoms: C9_11  and  N1_12 
REMARK       I    between atoms: N1_12  and  C10_13 
REMARK    5  A    between atoms: C10_13  and  C11_15 
REMARK    6  A    between atoms: C11_15  and  O3_16 
REMARK    7  A    between atoms: O3_16  and  C12_17 
REMARK    8  A    between atoms: N3_25  and  O4_26 
ROOT
ATOM      1  C7  NON d   1     -43.766  17.639  -4.471  0.00  0.00     0.083 A 
ATOM      2  C8  NON d   1     -42.721  17.232  -3.664  0.00  0.00     0.086 A 
ATOM      3  S1  NON d   1     -41.282  18.025  -4.123  0.00  0.00    -0.061 SA
ATOM      4  C9  NON d   1     -42.130  18.843  -5.356  0.00  0.00     0.173 A 
ATOM      5  N2  NON d   1     -43.415  18.579  -5.435  0.00  0.00    -0.223 NA
ENDROOT
BRANCH   1   6
ATOM      6  C6  NON d   1     -45.166  17.109  -4.318  0.00  0.00     0.034 A 
ATOM      7  C5  NON d   1     -45.938  17.255  -3.185  0.00  0.00     0.022 A 
ATOM      8  C4  NON d   1     -47.218  16.653  -3.324  0.00  0.00     0.016 A 
ATOM      9  C3  NON d   1     -47.407  16.059  -4.561  0.00  0.00    -0.008 A 
ATOM     10  S2  NON d   1     -46.006  16.246  -5.529  0.00  0.00    -0.092 SA
BRANCH   9  11
ATOM     11  C2  NON d   1     -48.687  15.370  -4.972  0.00  0.00     0.151 C 
BRANCH  11  12
ATOM     12  C1  NON d   1     -49.682  14.919  -3.915  0.00  0.00     0.245 C 
ATOM     13  O1  NON d   1     -50.061  13.770  -3.708  0.00  0.00    -0.271 OA
ATOM     14  N3  NON d   1     -50.165  15.926  -3.106  0.00  0.00    -0.237 N 
ATOM     15  H14 NON d   1     -50.997  15.689  -2.572  0.00  0.00     0.197 HD
BRANCH  14  16
ATOM     16  O4  NON d   1     -50.060  17.256  -3.560  0.00  0.00    -0.287 OA
ATOM     17  H15 NON d   1     -50.943  17.614  -3.346  0.00  0.00     0.244 HD
ENDBRANCH  14  16
ENDBRANCH  11  12
ENDBRANCH   9  11
ENDBRANCH   1   6
BRANCH   4  18
ATOM     18  N1  NON d   1     -41.520  19.754  -6.190  0.00  0.00    -0.304 N 
ATOM     19  C10 NON d   1     -40.767  20.847  -5.797  0.00  0.00     0.247 C 
ATOM     20  O2  NON d   1     -40.453  21.128  -4.642  0.00  0.00    -0.271 OA
ATOM     21  H6  NON d   1     -41.633  19.531  -7.169  0.00  0.00     0.171 HD
BRANCH  19  22
ATOM     22  C11 NON d   1     -40.312  21.716  -6.977  0.00  0.00     0.278 C 
BRANCH  22  23
ATOM     23  O3  NON d   1     -40.254  20.883  -8.130  0.00  0.00    -0.342 OA
BRANCH  23  24
ATOM     24  C12 NON d   1     -39.077  20.272  -8.441  0.00  0.00     0.069 A 
ATOM     25  C13 NON d   1     -38.832  19.096  -7.724  0.00  0.00     0.037 A 
ATOM     26  C14 NON d   1     -37.661  18.365  -7.928  0.00  0.00     0.003 A 
ATOM     27  C15 NON d   1     -36.720  18.816  -8.850  0.00  0.00     0.000 A 
ATOM     28  C16 NON d   1     -36.955  19.992  -9.563  0.00  0.00     0.003 A 
ATOM     29  C17 NON d   1     -38.133  20.722  -9.360  0.00  0.00     0.037 A 
ENDBRANCH  23  24
ENDBRANCH  22  23
ENDBRANCH  19  22
ENDBRANCH   4  18
TORSDOF 8
ENDMDL
MODEL 5
REMARK VINA RESULT:   -15.287      4.195     11.036
REMARK INTER + INTRA:         -19.119
REMARK INTER:                 -17.673
REMARK INTRA:                  -1.446
REMARK CONF_INDEPENDENT:        2.386
REMARK UNBOUND:                -1.446
REMARK  8 active torsions:
REMARK  status: ('A' for Active; 'I' for Inactive)
REMARK    1  A    between atoms: C1_2  and  C2_3 
REMARK       I    between atoms: C1_2  and  N3_25 
REMARK    2  A    between atoms: C2_3  and  C3_4 
REMARK    3  A    between atoms: C6_7  and  C7_8 
REMARK    4  A    between atoms: C9_11  and  N1_12 
REMARK       I    between atoms: N1_12  and  C10_13 
REMARK    5  A    between atoms: C10_13  and  C11_15 
REMARK    6  A    between atoms: C11_15  and  O3_16 
REMARK    7  A    between atoms: O3_16  and  C12_17 
REMARK    8  A    between atoms: N3_25  and  O4_26 
ROOT
ATOM      1  C7  NON d   1     -43.441  17.889  -4.726  0.00  0.00     0.083 A 
ATOM      2  C8  NON d   1     -42.319  17.386  -4.096  0.00  0.00     0.086 A 
ATOM      3  S1  NON d   1     -40.921  18.180  -4.664  0.00  0.00    -0.061 SA
ATOM      4  C9  NON d   1     -41.885  19.127  -5.705  0.00  0.00     0.173 A 
ATOM      5  N2  NON d   1     -43.179  18.903  -5.642  0.00  0.00    -0.223 NA
ENDROOT
BRANCH   1   6
ATOM      6  C6  NON d   1     -44.830  17.383  -4.442  0.00  0.00     0.034 A 
ATOM      7  C5  NON d   1     -45.373  17.256  -3.181  0.00  0.00     0.022 A 
ATOM      8  C4  NON d   1     -46.702  16.752  -3.215  0.00  0.00     0.016 A 
ATOM      9  C3  NON d   1     -47.155  16.505  -4.501  0.00  0.00    -0.008 A 
ATOM     10  S2  NON d   1     -45.939  16.890  -5.644  0.00  0.00    -0.092 SA
BRANCH   9  11
ATOM     11  C2  NON d   1     -48.539  15.987  -4.815  0.00  0.00     0.151 C 
BRANCH  11  12
ATOM     12  C1  NON d   1     -49.384  15.359  -3.719  0.00  0.00     0.245 C 
ATOM     13  O1  NON d   1     -49.322  15.599  -2.517  0.00  0.00    -0.271 OA
ATOM     14  N3  NON d   1     -50.326  14.453  -4.160  0.00  0.00    -0.237 N 
ATOM     15  H14 NON d   1     -50.720  13.854  -3.439  0.00  0.00     0.197 HD
BRANCH  14  16
ATOM     16  O4  NON d   1     -50.157  13.882  -5.437  0.00  0.00    -0.287 OA
ATOM     17  H15 NON d   1     -50.640  13.038  -5.348  0.00  0.00     0.244 HD
ENDBRANCH  14  16
ENDBRANCH  11  12
ENDBRANCH   9  11
ENDBRANCH   1   6
BRANCH   4  18
ATOM     18  N1  NON d   1     -41.351  20.092  -6.528  0.00  0.00    -0.304 N 
ATOM     19  C10 NON d   1     -40.576  19.870  -7.653  0.00  0.00     0.247 C 
ATOM     20  O2  NON d   1     -40.314  18.774  -8.143  0.00  0.00    -0.271 OA
ATOM     21  H6  NON d   1     -41.615  21.030  -6.261  0.00  0.00     0.171 HD
BRANCH  19  22
ATOM     22  C11 NON d   1     -40.058  21.167  -8.290  0.00  0.00     0.278 C 
BRANCH  22  23
ATOM     23  O3  NON d   1     -40.097  22.183  -7.293  0.00  0.00    -0.342 OA
BRANCH  23  24
ATOM     24  C12 NON d   1     -40.007  23.486  -7.679  0.00  0.00     0.069 A 
ATOM     25  C13 NON d   1     -39.956  23.675  -9.064  0.00  0.00     0.037 A 
ATOM     26  C14 NON d   1     -39.852  24.955  -9.608  0.00  0.00     0.003 A 
ATOM     27  C15 NON d   1     -39.789  26.059  -8.762  0.00  0.00     0.000 A 
ATOM     28  C16 NON d   1     -39.832  25.878  -7.379  0.00  0.00     0.003 A 
ATOM     29  C17 NON d   1     -39.940  24.592  -6.835  0.00  0.00     0.037 A 
ENDBRANCH  23  24
ENDBRANCH  22  23
ENDBRANCH  19  22
ENDBRANCH   4  18
TORSDOF 8
ENDMDL
MODEL 6
REMARK VINA RESULT:   -14.965      3.533     10.659
REMARK INTER + INTRA:         -19.037
REMARK INTER:                 -17.351
REMARK INTRA:                  -1.686
REMARK CONF_INDEPENDENT:        2.386
REMARK UNBOUND:                -1.686
REMARK  8 active torsions:
REMARK  status: ('A' for Active; 'I' for Inactive)
REMARK    1  A    between atoms: C1_2  and  C2_3 
REMARK       I    between atoms: C1_2  and  N3_25 
REMARK    2  A    between atoms: C2_3  and  C3_4 
REMARK    3  A    between atoms: C6_7  and  C7_8 
REMARK    4  A    between atoms: C9_11  and  N1_12 
REMARK       I    between atoms: N1_12  and  C10_13 
REMARK    5  A    between atoms: C10_13  and  C11_15 
REMARK    6  A    between atoms: C11_15  and  O3_16 
REMARK    7  A    between atoms: O3_16  and  C12_17 
REMARK    8  A    between atoms: N3_25  and  O4_26 
ROOT
ATOM      1  C7  NON d   1     -43.490  17.910  -4.778  0.00  0.00     0.083 A 
ATOM      2  C8  NON d   1     -42.335  17.255  -4.396  0.00  0.00     0.086 A 
ATOM      3  S1  NON d   1     -40.966  18.120  -4.932  0.00  0.00    -0.061 SA
ATOM      4  C9  NON d   1     -41.986  19.292  -5.635  0.00  0.00     0.173 A 
ATOM      5  N2  NON d   1     -43.275  19.091  -5.481  0.00  0.00    -0.223 NA
ENDROOT
BRANCH   1   6
ATOM      6  C6  NON d   1     -44.865  17.387  -4.459  0.00  0.00     0.034 A 
ATOM      7  C5  NON d   1     -45.375  17.255  -3.185  0.00  0.00     0.022 A 
ATOM      8  C4  NON d   1     -46.698  16.735  -3.185  0.00  0.00     0.016 A 
ATOM      9  C3  NON d   1     -47.181  16.481  -4.459  0.00  0.00    -0.008 A 
ATOM     10  S2  NON d   1     -45.998  16.880  -5.632  0.00  0.00    -0.092 SA
BRANCH   9  11
ATOM     11  C2  NON d   1     -48.566  15.946  -4.737  0.00  0.00     0.151 C 
BRANCH  11  12
ATOM     12  C1  NON d   1     -49.398  15.363  -3.607  0.00  0.00     0.245 C 
ATOM     13  O1  NON d   1     -49.309  15.635  -2.414  0.00  0.00    -0.271 OA
ATOM     14  N3  NON d   1     -50.363  14.461  -4.004  0.00  0.00    -0.237 N 
ATOM     15  H14 NON d   1     -50.752  13.889  -3.259  0.00  0.00     0.197 HD
BRANCH  14  16
ATOM     16  O4  NON d   1     -50.229  13.852  -5.268  0.00  0.00    -0.287 OA
ATOM     17  H15 NON d   1     -51.129  13.507  -5.425  0.00  0.00     0.244 HD
ENDBRANCH  14  16
ENDBRANCH  11  12
ENDBRANCH   9  11
ENDBRANCH   1   6
BRANCH   4  18
ATOM     18  N1  NON d   1     -41.493  20.400  -6.288  0.00  0.00    -0.304 N 
ATOM     19  C10 NON d   1     -40.805  20.404  -7.489  0.00  0.00     0.247 C 
ATOM     20  O2  NON d   1     -40.602  19.426  -8.206  0.00  0.00    -0.271 OA
ATOM     21  H6  NON d   1     -41.718  21.267  -5.820  0.00  0.00     0.171 HD
BRANCH  19  22
ATOM     22  C11 NON d   1     -40.309  21.799  -7.891  0.00  0.00     0.278 C 
BRANCH  22  23
ATOM     23  O3  NON d   1     -40.312  22.612  -6.723  0.00  0.00    -0.342 OA
BRANCH  23  24
ATOM     24  C12 NON d   1     -39.499  22.274  -5.684  0.00  0.00     0.069 A 
ATOM     25  C13 NON d   1     -40.132  22.271  -4.436  0.00  0.00     0.037 A 
ATOM     26  C14 NON d   1     -39.423  21.954  -3.276  0.00  0.00     0.003 A 
ATOM     27  C15 NON d   1     -38.068  21.645  -3.361  0.00  0.00     0.000 A 
ATOM     28  C16 NON d   1     -37.430  21.654  -4.602  0.00  0.00     0.003 A 
ATOM     29  C17 NON d   1     -38.143  21.969  -5.765  0.00  0.00     0.037 A 
ENDBRANCH  23  24
ENDBRANCH  22  23
ENDBRANCH  19  22
ENDBRANCH   4  18
TORSDOF 8
ENDMDL
MODEL 7
REMARK VINA RESULT:   -14.702      3.133     10.113
REMARK INTER + INTRA:         -18.442
REMARK INTER:                 -17.088
REMARK INTRA:                  -1.354
REMARK CONF_INDEPENDENT:        2.386
REMARK UNBOUND:                -1.354
REMARK  8 active torsions:
REMARK  status: ('A' for Active; 'I' for Inactive)
REMARK    1  A    between atoms: C1_2  and  C2_3 
REMARK       I    between atoms: C1_2  and  N3_25 
REMARK    2  A    between atoms: C2_3  and  C3_4 
REMARK    3  A    between atoms: C6_7  and  C7_8 
REMARK    4  A    between atoms: C9_11  and  N1_12 
REMARK       I    between atoms: N1_12  and  C10_13 
REMARK    5  A    between atoms: C10_13  and  C11_15 
REMARK    6  A    between atoms: C11_15  and  O3_16 
REMARK    7  A    between atoms: O3_16  and  C12_17 
REMARK    8  A    between atoms: N3_25  and  O4_26 
ROOT
ATOM      1  C7  NON d   1     -44.126  17.904  -4.612  0.00  0.00     0.083 A 
ATOM      2  C8  NON d   1     -43.972  19.004  -5.435  0.00  0.00     0.086 A 
ATOM      3  S1  NON d   1     -42.343  19.505  -5.445  0.00  0.00    -0.061 SA
ATOM      4  C9  NON d   1     -41.951  18.247  -4.362  0.00  0.00     0.173 A 
ATOM      5  N2  NON d   1     -42.951  17.468  -4.010  0.00  0.00    -0.223 NA
ENDROOT
BRANCH   1   6
ATOM      6  C6  NON d   1     -45.456  17.234  -4.390  0.00  0.00     0.034 A 
ATOM      7  C5  NON d   1     -46.126  17.210  -3.185  0.00  0.00     0.022 A 
ATOM      8  C4  NON d   1     -47.358  16.505  -3.269  0.00  0.00     0.016 A 
ATOM      9  C3  NON d   1     -47.612  16.005  -4.535  0.00  0.00    -0.008 A 
ATOM     10  S2  NON d   1     -46.330  16.404  -5.599  0.00  0.00    -0.092 SA
BRANCH   9  11
ATOM     11  C2  NON d   1     -48.862  15.238  -4.897  0.00  0.00     0.151 C 
BRANCH  11  12
ATOM     12  C1  NON d   1     -49.757  14.681  -3.802  0.00  0.00     0.245 C 
ATOM     13  O1  NON d   1     -50.065  13.505  -3.634  0.00  0.00    -0.271 OA
ATOM     14  N3  NON d   1     -50.230  15.618  -2.907  0.00  0.00    -0.237 N 
ATOM     15  H14 NON d   1     -51.010  15.310  -2.332  0.00  0.00     0.197 HD
BRANCH  14  16
ATOM     16  O4  NON d   1     -50.222  16.973  -3.292  0.00  0.00    -0.287 OA
ATOM     17  H15 NON d   1     -50.989  17.329  -2.804  0.00  0.00     0.244 HD
ENDBRANCH  14  16
ENDBRANCH  11  12
ENDBRANCH   9  11
ENDBRANCH   1   6
BRANCH   4  18
ATOM     18  N1  NON d   1     -40.667  18.032  -3.916  0.00  0.00    -0.304 N 
ATOM     19  C10 NON d   1     -40.283  17.809  -2.604  0.00  0.00     0.247 C 
ATOM     20  O2  NON d   1     -41.039  17.682  -1.644  0.00  0.00    -0.271 OA
ATOM     21  H6  NON d   1     -39.987  18.006  -4.663  0.00  0.00     0.171 HD
BRANCH  19  22
ATOM     22  C11 NON d   1     -38.762  17.705  -2.435  0.00  0.00     0.278 C 
BRANCH  22  23
ATOM     23  O3  NON d   1     -38.179  18.851  -3.046  0.00  0.00    -0.342 OA
BRANCH  23  24
ATOM     24  C12 NON d   1     -38.842  20.039  -2.982  0.00  0.00     0.069 A 
ATOM     25  C13 NON d   1     -39.017  20.532  -1.685  0.00  0.00     0.037 A 
ATOM     26  C14 NON d   1     -39.688  21.735  -1.462  0.00  0.00     0.003 A 
ATOM     27  C15 NON d   1     -40.198  22.449  -2.543  0.00  0.00     0.000 A 
ATOM     28  C16 NON d   1     -40.034  21.958  -3.839  0.00  0.00     0.003 A 
ATOM     29  C17 NON d   1     -39.356  20.753  -4.061  0.00  0.00     0.037 A 
ENDBRANCH  23  24
ENDBRANCH  22  23
ENDBRANCH  19  22
ENDBRANCH   4  18
TORSDOF 8
ENDMDL
MODEL 8
REMARK VINA RESULT:   -14.674      3.147     10.972
REMARK INTER + INTRA:         -18.393
REMARK INTER:                 -17.060
REMARK INTRA:                  -1.333
REMARK CONF_INDEPENDENT:        2.386
REMARK UNBOUND:                -1.333
REMARK  8 active torsions:
REMARK  status: ('A' for Active; 'I' for Inactive)
REMARK    1  A    between atoms: C1_2  and  C2_3 
REMARK       I    between atoms: C1_2  and  N3_25 
REMARK    2  A    between atoms: C2_3  and  C3_4 
REMARK    3  A    between atoms: C6_7  and  C7_8 
REMARK    4  A    between atoms: C9_11  and  N1_12 
REMARK       I    between atoms: N1_12  and  C10_13 
REMARK    5  A    between atoms: C10_13  and  C11_15 
REMARK    6  A    between atoms: C11_15  and  O3_16 
REMARK    7  A    between atoms: O3_16  and  C12_17 
REMARK    8  A    between atoms: N3_25  and  O4_26 
ROOT
ATOM      1  C7  NON d   1     -43.968  18.012  -4.626  0.00  0.00     0.083 A 
ATOM      2  C8  NON d   1     -43.828  19.123  -5.435  0.00  0.00     0.086 A 
ATOM      3  S1  NON d   1     -42.203  19.641  -5.445  0.00  0.00    -0.061 SA
ATOM      4  C9  NON d   1     -41.796  18.373  -4.380  0.00  0.00     0.173 A 
ATOM      5  N2  NON d   1     -42.785  17.581  -4.033  0.00  0.00    -0.223 NA
ENDROOT
BRANCH   1   6
ATOM      6  C6  NON d   1     -45.290  17.326  -4.406  0.00  0.00     0.034 A 
ATOM      7  C5  NON d   1     -45.921  17.220  -3.185  0.00  0.00     0.022 A 
ATOM      8  C4  NON d   1     -47.155  16.520  -3.276  0.00  0.00     0.016 A 
ATOM      9  C3  NON d   1     -47.450  16.106  -4.565  0.00  0.00    -0.008 A 
ATOM     10  S2  NON d   1     -46.203  16.578  -5.640  0.00  0.00    -0.092 SA
BRANCH   9  11
ATOM     11  C2  NON d   1     -48.711  15.363  -4.938  0.00  0.00     0.151 C 
BRANCH  11  12
ATOM     12  C1  NON d   1     -49.681  14.919  -3.855  0.00  0.00     0.245 C 
ATOM     13  O1  NON d   1     -50.030  13.768  -3.611  0.00  0.00    -0.271 OA
ATOM     14  N3  NON d   1     -50.177  15.937  -3.068  0.00  0.00    -0.237 N 
ATOM     15  H14 NON d   1     -50.996  15.696  -2.515  0.00  0.00     0.197 HD
BRANCH  14  16
ATOM     16  O4  NON d   1     -50.110  17.255  -3.560  0.00  0.00    -0.287 OA
ATOM     17  H15 NON d   1     -49.164  17.341  -3.785  0.00  0.00     0.244 HD
ENDBRANCH  14  16
ENDBRANCH  11  12
ENDBRANCH   9  11
ENDBRANCH   1   6
BRANCH   4  18
ATOM     18  N1  NON d   1     -40.507  18.165  -3.941  0.00  0.00    -0.304 N 
ATOM     19  C10 NON d   1     -40.134  17.670  -2.703  0.00  0.00     0.247 C 
ATOM     20  O2  NON d   1     -40.897  17.257  -1.833  0.00  0.00    -0.271 OA
ATOM     21  H6  NON d   1     -39.811  18.374  -4.644  0.00  0.00     0.171 HD
BRANCH  19  22
ATOM     22  C11 NON d   1     -38.614  17.655  -2.497  0.00  0.00     0.278 C 
BRANCH  22  23
ATOM     23  O3  NON d   1     -38.072  18.776  -3.187  0.00  0.00    -0.342 OA
BRANCH  23  24
ATOM     24  C12 NON d   1     -37.562  18.596  -4.438  0.00  0.00     0.069 A 
ATOM     25  C13 NON d   1     -38.099  19.449  -5.407  0.00  0.00     0.037 A 
ATOM     26  C14 NON d   1     -37.681  19.373  -6.736  0.00  0.00     0.003 A 
ATOM     27  C15 NON d   1     -36.725  18.432  -7.105  0.00  0.00     0.000 A 
ATOM     28  C16 NON d   1     -36.191  17.572  -6.143  0.00  0.00     0.003 A 
ATOM     29  C17 NON d   1     -36.609  17.652  -4.809  0.00  0.00     0.037 A 
ENDBRANCH  23  24
ENDBRANCH  22  23
ENDBRANCH  19  22
ENDBRANCH   4  18
TORSDOF 8
ENDMDL
MODEL 9
REMARK VINA RESULT:   -14.320      3.309     10.058
REMARK INTER + INTRA:         -18.300
REMARK INTER:                 -16.707
REMARK INTRA:                  -1.593
REMARK CONF_INDEPENDENT:        2.386
REMARK UNBOUND:                -1.593
REMARK  8 active torsions:
REMARK  status: ('A' for Active; 'I' for Inactive)
REMARK    1  A    between atoms: C1_2  and  C2_3 
REMARK       I    between atoms: C1_2  and  N3_25 
REMARK    2  A    between atoms: C2_3  and  C3_4 
REMARK    3  A    between atoms: C6_7  and  C7_8 
REMARK    4  A    between atoms: C9_11  and  N1_12 
REMARK       I    between atoms: N1_12  and  C10_13 
REMARK    5  A    between atoms: C10_13  and  C11_15 
REMARK    6  A    between atoms: C11_15  and  O3_16 
REMARK    7  A    between atoms: O3_16  and  C12_17 
REMARK    8  A    between atoms: N3_25  and  O4_26 
ROOT
ATOM      1  C7  NON d   1     -43.640  17.773  -4.830  0.00  0.00     0.083 A 
ATOM      2  C8  NON d   1     -42.614  17.017  -5.364  0.00  0.00     0.086 A 
ATOM      3  S1  NON d   1     -41.224  17.981  -5.578  0.00  0.00    -0.061 SA
ATOM      4  C9  NON d   1     -42.067  19.329  -4.960  0.00  0.00     0.173 A 
ATOM      5  N2  NON d   1     -43.307  19.102  -4.588  0.00  0.00    -0.223 NA
ENDROOT
BRANCH   1   6
ATOM      6  C6  NON d   1     -45.001  17.205  -4.534  0.00  0.00     0.034 A 
ATOM      7  C5  NON d   1     -45.610  17.239  -3.297  0.00  0.00     0.022 A 
ATOM      8  C4  NON d   1     -46.893  16.626  -3.311  0.00  0.00     0.016 A 
ATOM      9  C3  NON d   1     -47.246  16.136  -4.558  0.00  0.00    -0.008 A 
ATOM     10  S2  NON d   1     -45.993  16.431  -5.688  0.00  0.00    -0.092 SA
BRANCH   9  11
ATOM     11  C2  NON d   1     -48.565  15.459  -4.848  0.00  0.00     0.151 C 
BRANCH  11  12
ATOM     12  C1  NON d   1     -49.468  15.029  -3.704  0.00  0.00     0.245 C 
ATOM     13  O1  NON d   1     -49.728  13.878  -3.368  0.00  0.00    -0.271 OA
ATOM     14  N3  NON d   1     -50.011  16.065  -2.973  0.00  0.00    -0.237 N 
ATOM     15  H14 NON d   1     -50.794  15.809  -2.377  0.00  0.00     0.197 HD
BRANCH  14  16
ATOM     16  O4  NON d   1     -50.052  17.346  -3.559  0.00  0.00    -0.287 OA
ATOM     17  H15 NON d   1     -49.107  17.521  -3.733  0.00  0.00     0.244 HD
ENDBRANCH  14  16
ENDBRANCH  11  12
ENDBRANCH   9  11
ENDBRANCH   1   6
BRANCH   4  18
ATOM     18  N1  NON d   1     -41.477  20.565  -4.819  0.00  0.00    -0.304 N 
ATOM     19  C10 NON d   1     -40.575  21.146  -5.694  0.00  0.00     0.247 C 
ATOM     20  O2  NON d   1     -40.226  20.685  -6.779  0.00  0.00    -0.271 OA
ATOM     21  H6  NON d   1     -41.799  21.066  -4.003  0.00  0.00     0.171 HD
BRANCH  19  22
ATOM     22  C11 NON d   1     -40.034  22.490  -5.192  0.00  0.00     0.278 C 
BRANCH  22  23
ATOM     23  O3  NON d   1     -40.944  22.986  -4.216  0.00  0.00    -0.342 OA
BRANCH  23  24
ATOM     24  C12 NON d   1     -40.617  22.881  -2.898  0.00  0.00     0.069 A 
ATOM     25  C13 NON d   1     -41.433  23.627  -2.041  0.00  0.00     0.037 A 
ATOM     26  C14 NON d   1     -41.211  23.627  -0.663  0.00  0.00     0.003 A 
ATOM     27  C15 NON d   1     -40.160  22.882  -0.135  0.00  0.00     0.000 A 
ATOM     28  C16 NON d   1     -39.338  22.141  -0.986  0.00  0.00     0.003 A 
ATOM     29  C17 NON d   1     -39.564  22.140  -2.368  0.00  0.00     0.037 A 
ENDBRANCH  23  24
ENDBRANCH  22  23
ENDBRANCH  19  22
ENDBRANCH   4  18
TORSDOF 8
ENDMDL
