MODEL 1
REMARK VINA RESULT:   -14.791      0.000      0.000
REMARK INTER + INTRA:         -17.770
REMARK INTER:                 -16.879
REMARK INTRA:                  -0.891
REMARK CONF_INDEPENDENT:        2.088
REMARK UNBOUND:                -0.891
REMARK  7 active torsions:
REMARK  status: ('A' for Active; 'I' for Inactive)
REMARK    1  A    between atoms: C1_2  and  C2_3 
REMARK       I    between atoms: C1_2  and  N1_20 
REMARK    2  A    between atoms: C3_4  and  C4_5 
REMARK    3  A    between atoms: C5_6  and  C6_7 
REMARK    4  A    between atoms: C6_7  and  C7_8 
REMARK    5  A    between atoms: C7_8  and  C8_9 
REMARK    6  A    between atoms: C9_10  and  C10_11 
REMARK    7  A    between atoms: N1_20  and  O4_21 
ROOT
ATOM      1  C7  NON d   1     -39.876  19.710  -2.715  0.00  0.00     0.031 C 
ENDROOT
BRANCH   1   2
ATOM      2  C6  NON d   1     -40.535  18.319  -2.618  0.00  0.00     0.031 C 
BRANCH   2   3
ATOM      3  C5  NON d   1     -41.592  18.092  -3.667  0.00  0.00    -0.026 C 
ATOM      4  C4  NON d   1     -42.718  17.394  -3.445  0.00  0.00    -0.004 C 
BRANCH   4   5
ATOM      5  C3  NON d   1     -43.715  17.185  -4.468  0.00  0.00     0.005 C 
ATOM      6  C2  NON d   1     -45.027  17.092  -4.202  0.00  0.00     0.076 C 
BRANCH   6   7
ATOM      7  C1  NON d   1     -46.003  16.882  -5.309  0.00  0.00     0.264 C 
ATOM      8  O1  NON d   1     -46.193  17.717  -6.185  0.00  0.00    -0.266 OA
ATOM      9  N1  NON d   1     -46.643  15.670  -5.198  0.00  0.00    -0.234 N 
ATOM     10  H16 NON d   1     -46.454  14.984  -4.478  0.00  0.00     0.197 HD
BRANCH   9  11
ATOM     11  O4  NON d   1     -47.649  15.380  -6.139  0.00  0.00    -0.287 OA
ATOM     12  H17 NON d   1     -47.305  15.761  -6.965  0.00  0.00     0.244 HD
ENDBRANCH   9  11
ENDBRANCH   6   7
ENDBRANCH   4   5
ENDBRANCH   2   3
ENDBRANCH   1   2
BRANCH   1  13
ATOM     13  C8  NON d   1     -40.125  20.574  -1.503  0.00  0.00    -0.026 C 
ATOM     14  C9  NON d   1     -40.324  21.901  -1.574  0.00  0.00     0.007 C 
BRANCH  14  15
ATOM     15  C10 NON d   1     -40.560  22.801  -0.430  0.00  0.00    -0.034 A 
ATOM     16  C11 NON d   1     -40.410  22.386   0.914  0.00  0.00     0.014 A 
ATOM     17  C12 NON d   1     -40.674  23.256   1.980  0.00  0.00     0.040 A 
ATOM     18  C13 NON d   1     -41.098  24.530   1.678  0.00  0.00     0.105 A 
ATOM     19  C14 NON d   1     -41.260  24.944   0.380  0.00  0.00     0.105 A 
ATOM     20  O3  NON d   1     -41.407  25.501   2.578  0.00  0.00    -0.323 OA
ATOM     21  C15 NON d   1     -41.004  24.109  -0.690  0.00  0.00     0.051 A 
ATOM     22  O2  NON d   1     -41.693  26.232   0.297  0.00  0.00    -0.323 OA
ATOM     23  C16 NON d   1     -41.782  26.579   1.696  0.00  0.00     0.352 A 
ENDBRANCH  14  15
ENDBRANCH   1  13
TORSDOF 7
ENDMDL
MODEL 2
REMARK VINA RESULT:   -14.553      5.092      6.749
REMARK INTER + INTRA:         -17.945
REMARK INTER:                 -16.641
REMARK INTRA:                  -1.304
REMARK CONF_INDEPENDENT:        2.088
REMARK UNBOUND:                -1.304
REMARK  7 active torsions:
REMARK  status: ('A' for Active; 'I' for Inactive)
REMARK    1  A    between atoms: C1_2  and  C2_3 
REMARK       I    between atoms: C1_2  and  N1_20 
REMARK    2  A    between atoms: C3_4  and  C4_5 
REMARK    3  A    between atoms: C5_6  and  C6_7 
REMARK    4  A    between atoms: C6_7  and  C7_8 
REMARK    5  A    between atoms: C7_8  and  C8_9 
REMARK    6  A    between atoms: C9_10  and  C10_11 
REMARK    7  A    between atoms: N1_20  and  O4_21 
ROOT
ATOM      1  C7  NON d   1     -39.997  18.025  -2.816  0.00  0.00     0.031 C 
ENDROOT
BRANCH   1   2
ATOM      2  C6  NON d   1     -41.382  18.326  -2.210  0.00  0.00     0.031 C 
BRANCH   2   3
ATOM      3  C5  NON d   1     -42.514  18.088  -3.175  0.00  0.00    -0.026 C 
ATOM      4  C4  NON d   1     -42.826  16.878  -3.666  0.00  0.00    -0.004 C 
BRANCH   4   5
ATOM      5  C3  NON d   1     -43.913  16.674  -4.595  0.00  0.00     0.005 C 
ATOM      6  C2  NON d   1     -45.133  17.206  -4.420  0.00  0.00     0.076 C 
BRANCH   6   7
ATOM      7  C1  NON d   1     -46.208  16.960  -5.422  0.00  0.00     0.264 C 
ATOM      8  O1  NON d   1     -46.596  17.826  -6.197  0.00  0.00    -0.266 OA
ATOM      9  N1  NON d   1     -46.691  15.674  -5.343  0.00  0.00    -0.234 N 
ATOM     10  H16 NON d   1     -46.340  14.966  -4.711  0.00  0.00     0.197 HD
BRANCH   9  11
ATOM     11  O4  NON d   1     -47.767  15.333  -6.185  0.00  0.00    -0.287 OA
ATOM     12  H17 NON d   1     -47.893  16.130  -6.729  0.00  0.00     0.244 HD
ENDBRANCH   9  11
ENDBRANCH   6   7
ENDBRANCH   4   5
ENDBRANCH   2   3
ENDBRANCH   1   2
BRANCH   1  13
ATOM     13  C8  NON d   1     -39.706  18.821  -4.065  0.00  0.00    -0.026 C 
ATOM     14  C9  NON d   1     -40.296  18.577  -5.247  0.00  0.00     0.007 C 
BRANCH  14  15
ATOM     15  C10 NON d   1     -40.048  19.308  -6.503  0.00  0.00    -0.034 A 
ATOM     16  C11 NON d   1     -39.471  18.699  -7.642  0.00  0.00     0.014 A 
ATOM     17  C12 NON d   1     -39.216  19.429  -8.810  0.00  0.00     0.040 A 
ATOM     18  C13 NON d   1     -39.535  20.768  -8.812  0.00  0.00     0.105 A 
ATOM     19  C14 NON d   1     -40.085  21.376  -7.711  0.00  0.00     0.105 A 
ATOM     20  O3  NON d   1     -39.351  21.629  -9.848  0.00  0.00    -0.323 OA
ATOM     21  C15 NON d   1     -40.349  20.680  -6.548  0.00  0.00     0.051 A 
ATOM     22  O2  NON d   1     -40.317  22.702  -7.914  0.00  0.00    -0.323 OA
ATOM     23  C16 NON d   1     -39.852  22.854  -9.273  0.00  0.00     0.352 A 
ENDBRANCH  14  15
ENDBRANCH   1  13
TORSDOF 7
ENDMDL
MODEL 3
REMARK VINA RESULT:   -14.447      0.693      1.423
REMARK INTER + INTRA:         -17.665
REMARK INTER:                 -16.535
REMARK INTRA:                  -1.131
REMARK CONF_INDEPENDENT:        2.088
REMARK UNBOUND:                -1.131
REMARK  7 active torsions:
REMARK  status: ('A' for Active; 'I' for Inactive)
REMARK    1  A    between atoms: C1_2  and  C2_3 
REMARK       I    between atoms: C1_2  and  N1_20 
REMARK    2  A    between atoms: C3_4  and  C4_5 
REMARK    3  A    between atoms: C5_6  and  C6_7 
REMARK    4  A    between atoms: C6_7  and  C7_8 
REMARK    5  A    between atoms: C7_8  and  C8_9 
REMARK    6  A    between atoms: C9_10  and  C10_11 
REMARK    7  A    between atoms: N1_20  and  O4_21 
ROOT
ATOM      1  C7  NON d   1     -39.814  19.386  -2.591  0.00  0.00     0.031 C 
ENDROOT
BRANCH   1   2
ATOM      2  C6  NON d   1     -40.839  18.278  -2.277  0.00  0.00     0.031 C 
BRANCH   2   3
ATOM      3  C5  NON d   1     -41.852  18.084  -3.375  0.00  0.00    -0.026 C 
ATOM      4  C4  NON d   1     -42.893  17.241  -3.280  0.00  0.00    -0.004 C 
BRANCH   4   5
ATOM      5  C3  NON d   1     -43.850  17.067  -4.348  0.00  0.00     0.005 C 
ATOM      6  C2  NON d   1     -45.173  16.978  -4.137  0.00  0.00     0.076 C 
BRANCH   6   7
ATOM      7  C1  NON d   1     -46.104  16.806  -5.288  0.00  0.00     0.264 C 
ATOM      8  O1  NON d   1     -46.209  17.639  -6.180  0.00  0.00    -0.266 OA
ATOM      9  N1  NON d   1     -46.811  15.629  -5.197  0.00  0.00    -0.234 N 
ATOM     10  H16 NON d   1     -46.692  14.942  -4.463  0.00  0.00     0.197 HD
BRANCH   9  11
ATOM     11  O4  NON d   1     -47.785  15.380  -6.182  0.00  0.00    -0.287 OA
ATOM     12  H17 NON d   1     -47.686  16.129  -6.795  0.00  0.00     0.244 HD
ENDBRANCH   9  11
ENDBRANCH   6   7
ENDBRANCH   4   5
ENDBRANCH   2   3
ENDBRANCH   1   2
BRANCH   1  13
ATOM     13  C8  NON d   1     -40.234  20.747  -2.093  0.00  0.00    -0.026 C 
ATOM     14  C9  NON d   1     -40.058  21.153  -0.825  0.00  0.00     0.007 C 
BRANCH  14  15
ATOM     15  C10 NON d   1     -40.456  22.462  -0.274  0.00  0.00    -0.034 A 
ATOM     16  C11 NON d   1     -40.648  23.607  -1.083  0.00  0.00     0.014 A 
ATOM     17  C12 NON d   1     -40.993  24.845  -0.526  0.00  0.00     0.040 A 
ATOM     18  C13 NON d   1     -41.129  24.917   0.842  0.00  0.00     0.105 A 
ATOM     19  C14 NON d   1     -40.935  23.819   1.642  0.00  0.00     0.105 A 
ATOM     20  O3  NON d   1     -41.450  26.031   1.553  0.00  0.00    -0.323 OA
ATOM     21  C15 NON d   1     -40.597  22.586   1.119  0.00  0.00     0.051 A 
ATOM     22  O2  NON d   1     -41.109  24.102   2.961  0.00  0.00    -0.323 OA
ATOM     23  C16 NON d   1     -41.438  25.506   2.897  0.00  0.00     0.352 A 
ENDBRANCH  14  15
ENDBRANCH   1  13
TORSDOF 7
ENDMDL
MODEL 4
REMARK VINA RESULT:   -14.317      5.534      7.228
REMARK INTER + INTRA:         -17.687
REMARK INTER:                 -16.405
REMARK INTRA:                  -1.282
REMARK CONF_INDEPENDENT:        2.088
REMARK UNBOUND:                -1.282
REMARK  7 active torsions:
REMARK  status: ('A' for Active; 'I' for Inactive)
REMARK    1  A    between atoms: C1_2  and  C2_3 
REMARK       I    between atoms: C1_2  and  N1_20 
REMARK    2  A    between atoms: C3_4  and  C4_5 
REMARK    3  A    between atoms: C5_6  and  C6_7 
REMARK    4  A    between atoms: C6_7  and  C7_8 
REMARK    5  A    between atoms: C7_8  and  C8_9 
REMARK    6  A    between atoms: C9_10  and  C10_11 
REMARK    7  A    between atoms: N1_20  and  O4_21 
ROOT
ATOM      1  C7  NON d   1     -40.024  17.996  -2.845  0.00  0.00     0.031 C 
ENDROOT
BRANCH   1   2
ATOM      2  C6  NON d   1     -41.370  18.286  -2.152  0.00  0.00     0.031 C 
BRANCH   2   3
ATOM      3  C5  NON d   1     -42.556  18.088  -3.060  0.00  0.00    -0.026 C 
ATOM      4  C4  NON d   1     -42.571  17.212  -4.077  0.00  0.00    -0.004 C 
BRANCH   4   5
ATOM      5  C3  NON d   1     -43.719  17.042  -4.938  0.00  0.00     0.005 C 
ATOM      6  C2  NON d   1     -44.982  17.074  -4.486  0.00  0.00     0.076 C 
BRANCH   6   7
ATOM      7  C1  NON d   1     -46.120  16.898  -5.431  0.00  0.00     0.264 C 
ATOM      8  O1  NON d   1     -46.494  17.788  -6.186  0.00  0.00    -0.266 OA
ATOM      9  N1  NON d   1     -46.678  15.645  -5.327  0.00  0.00    -0.234 N 
ATOM     10  H16 NON d   1     -46.339  14.914  -4.713  0.00  0.00     0.197 HD
BRANCH   9  11
ATOM     11  O4  NON d   1     -47.814  15.373  -6.112  0.00  0.00    -0.287 OA
ATOM     12  H17 NON d   1     -47.973  16.211  -6.580  0.00  0.00     0.244 HD
ENDBRANCH   9  11
ENDBRANCH   6   7
ENDBRANCH   4   5
ENDBRANCH   2   3
ENDBRANCH   1   2
BRANCH   1  13
ATOM     13  C8  NON d   1     -39.767  18.876  -4.044  0.00  0.00    -0.026 C 
ATOM     14  C9  NON d   1     -40.107  18.530  -5.297  0.00  0.00     0.007 C 
BRANCH  14  15
ATOM     15  C10 NON d   1     -39.874  19.337  -6.509  0.00  0.00    -0.034 A 
ATOM     16  C11 NON d   1     -40.842  20.225  -7.035  0.00  0.00     0.014 A 
ATOM     17  C12 NON d   1     -40.603  20.952  -8.208  0.00  0.00     0.040 A 
ATOM     18  C13 NON d   1     -39.396  20.768  -8.844  0.00  0.00     0.105 A 
ATOM     19  C14 NON d   1     -38.452  19.901  -8.352  0.00  0.00     0.105 A 
ATOM     20  O3  NON d   1     -38.998  21.380  -9.990  0.00  0.00    -0.323 OA
ATOM     21  C15 NON d   1     -38.659  19.173  -7.197  0.00  0.00     0.051 A 
ATOM     22  O2  NON d   1     -37.336  19.857  -9.130  0.00  0.00    -0.323 OA
ATOM     23  C16 NON d   1     -37.689  20.800 -10.165  0.00  0.00     0.352 A 
ENDBRANCH  14  15
ENDBRANCH   1  13
TORSDOF 7
ENDMDL
MODEL 5
REMARK VINA RESULT:   -13.947      5.250      6.478
REMARK INTER + INTRA:         -17.370
REMARK INTER:                 -16.035
REMARK INTRA:                  -1.334
REMARK CONF_INDEPENDENT:        2.088
REMARK UNBOUND:                -1.334
REMARK  7 active torsions:
REMARK  status: ('A' for Active; 'I' for Inactive)
REMARK    1  A    between atoms: C1_2  and  C2_3 
REMARK       I    between atoms: C1_2  and  N1_20 
REMARK    2  A    between atoms: C3_4  and  C4_5 
REMARK    3  A    between atoms: C5_6  and  C6_7 
REMARK    4  A    between atoms: C6_7  and  C7_8 
REMARK    5  A    between atoms: C7_8  and  C8_9 
REMARK    6  A    between atoms: C9_10  and  C10_11 
REMARK    7  A    between atoms: N1_20  and  O4_21 
ROOT
ATOM      1  C7  NON d   1     -40.004  18.019  -2.663  0.00  0.00     0.031 C 
ENDROOT
BRANCH   1   2
ATOM      2  C6  NON d   1     -41.373  18.009  -1.954  0.00  0.00     0.031 C 
BRANCH   2   3
ATOM      3  C5  NON d   1     -42.532  17.879  -2.908  0.00  0.00    -0.026 C 
ATOM      4  C4  NON d   1     -42.554  17.009  -3.931  0.00  0.00    -0.004 C 
BRANCH   4   5
ATOM      5  C3  NON d   1     -43.675  16.905  -4.836  0.00  0.00     0.005 C 
ATOM      6  C2  NON d   1     -44.952  16.962  -4.428  0.00  0.00     0.076 C 
BRANCH   6   7
ATOM      7  C1  NON d   1     -46.060  16.854  -5.418  0.00  0.00     0.264 C 
ATOM      8  O1  NON d   1     -46.348  17.765  -6.185  0.00  0.00    -0.266 OA
ATOM      9  N1  NON d   1     -46.696  15.637  -5.338  0.00  0.00    -0.234 N 
ATOM     10  H16 NON d   1     -46.427  14.888  -4.713  0.00  0.00     0.197 HD
BRANCH   9  11
ATOM     11  O4  NON d   1     -47.815  15.435  -6.168  0.00  0.00    -0.287 OA
ATOM     12  H17 NON d   1     -47.778  16.184  -6.788  0.00  0.00     0.244 HD
ENDBRANCH   9  11
ENDBRANCH   6   7
ENDBRANCH   4   5
ENDBRANCH   2   3
ENDBRANCH   1   2
BRANCH   1  13
ATOM     13  C8  NON d   1     -39.839  19.168  -3.627  0.00  0.00    -0.026 C 
ATOM     14  C9  NON d   1     -40.106  19.071  -4.940  0.00  0.00     0.007 C 
BRANCH  14  15
ATOM     15  C10 NON d   1     -39.954  20.150  -5.934  0.00  0.00    -0.034 A 
ATOM     16  C11 NON d   1     -39.963  21.521  -5.582  0.00  0.00     0.014 A 
ATOM     17  C12 NON d   1     -39.851  22.523  -6.554  0.00  0.00     0.040 A 
ATOM     18  C13 NON d   1     -39.743  22.133  -7.870  0.00  0.00     0.105 A 
ATOM     19  C14 NON d   1     -39.744  20.808  -8.227  0.00  0.00     0.105 A 
ATOM     20  O3  NON d   1     -39.634  22.963  -8.941  0.00  0.00    -0.323 OA
ATOM     21  C15 NON d   1     -39.851  19.799  -7.291  0.00  0.00     0.051 A 
ATOM     22  O2  NON d   1     -39.637  20.635  -9.573  0.00  0.00    -0.323 OA
ATOM     23  C16 NON d   1     -39.564  22.006 -10.018  0.00  0.00     0.352 A 
ENDBRANCH  14  15
ENDBRANCH   1  13
TORSDOF 7
ENDMDL
MODEL 6
REMARK VINA RESULT:   -13.271      5.170      7.170
REMARK INTER + INTRA:         -16.664
REMARK INTER:                 -15.360
REMARK INTRA:                  -1.304
REMARK CONF_INDEPENDENT:        2.088
REMARK UNBOUND:                -1.304
REMARK  7 active torsions:
REMARK  status: ('A' for Active; 'I' for Inactive)
REMARK    1  A    between atoms: C1_2  and  C2_3 
REMARK       I    between atoms: C1_2  and  N1_20 
REMARK    2  A    between atoms: C3_4  and  C4_5 
REMARK    3  A    between atoms: C5_6  and  C6_7 
REMARK    4  A    between atoms: C6_7  and  C7_8 
REMARK    5  A    between atoms: C7_8  and  C8_9 
REMARK    6  A    between atoms: C9_10  and  C10_11 
REMARK    7  A    between atoms: N1_20  and  O4_21 
ROOT
ATOM      1  C7  NON d   1     -40.670  19.313  -2.360  0.00  0.00     0.031 C 
ENDROOT
BRANCH   1   2
ATOM      2  C6  NON d   1     -41.035  17.829  -2.155  0.00  0.00     0.031 C 
BRANCH   2   3
ATOM      3  C5  NON d   1     -42.146  17.364  -3.061  0.00  0.00    -0.026 C 
ATOM      4  C4  NON d   1     -42.598  18.078  -4.104  0.00  0.00    -0.004 C 
BRANCH   4   5
ATOM      5  C3  NON d   1     -43.668  17.614  -4.957  0.00  0.00     0.005 C 
ATOM      6  C2  NON d   1     -44.964  17.723  -4.629  0.00  0.00     0.076 C 
BRANCH   6   7
ATOM      7  C1  NON d   1     -46.017  17.228  -5.559  0.00  0.00     0.264 C 
ATOM      8  O1  NON d   1     -46.475  17.918  -6.462  0.00  0.00    -0.266 OA
ATOM      9  N1  NON d   1     -46.394  15.940  -5.259  0.00  0.00    -0.234 N 
ATOM     10  H16 NON d   1     -45.986  15.378  -4.523  0.00  0.00     0.197 HD
BRANCH   9  11
ATOM     11  O4  NON d   1     -47.440  15.377  -6.016  0.00  0.00    -0.287 OA
ATOM     12  H17 NON d   1     -47.734  16.113  -6.580  0.00  0.00     0.244 HD
ENDBRANCH   9  11
ENDBRANCH   6   7
ENDBRANCH   4   5
ENDBRANCH   2   3
ENDBRANCH   1   2
BRANCH   1  13
ATOM     13  C8  NON d   1     -39.842  19.558  -3.598  0.00  0.00    -0.026 C 
ATOM     14  C9  NON d   1     -39.178  18.585  -4.243  0.00  0.00     0.007 C 
BRANCH  14  15
ATOM     15  C10 NON d   1     -38.344  18.761  -5.447  0.00  0.00    -0.034 A 
ATOM     16  C11 NON d   1     -36.974  18.409  -5.487  0.00  0.00     0.014 A 
ATOM     17  C12 NON d   1     -36.201  18.621  -6.636  0.00  0.00     0.040 A 
ATOM     18  C13 NON d   1     -36.814  19.194  -7.726  0.00  0.00     0.105 A 
ATOM     19  C14 NON d   1     -38.139  19.551  -7.699  0.00  0.00     0.105 A 
ATOM     20  O3  NON d   1     -36.221  19.478  -8.916  0.00  0.00    -0.323 OA
ATOM     21  C15 NON d   1     -38.926  19.353  -6.582  0.00  0.00     0.051 A 
ATOM     22  O2  NON d   1     -38.549  20.108  -8.871  0.00  0.00    -0.323 OA
ATOM     23  C16 NON d   1     -37.327  20.056  -9.639  0.00  0.00     0.352 A 
ENDBRANCH  14  15
ENDBRANCH   1  13
TORSDOF 7
ENDMDL
MODEL 7
REMARK VINA RESULT:   -13.148      3.150      3.834
REMARK INTER + INTRA:         -16.452
REMARK INTER:                 -15.236
REMARK INTRA:                  -1.216
REMARK CONF_INDEPENDENT:        2.088
REMARK UNBOUND:                -1.216
REMARK  7 active torsions:
REMARK  status: ('A' for Active; 'I' for Inactive)
REMARK    1  A    between atoms: C1_2  and  C2_3 
REMARK       I    between atoms: C1_2  and  N1_20 
REMARK    2  A    between atoms: C3_4  and  C4_5 
REMARK    3  A    between atoms: C5_6  and  C6_7 
REMARK    4  A    between atoms: C6_7  and  C7_8 
REMARK    5  A    between atoms: C7_8  and  C8_9 
REMARK    6  A    between atoms: C9_10  and  C10_11 
REMARK    7  A    between atoms: N1_20  and  O4_21 
ROOT
ATOM      1  C7  NON d   1     -39.703  18.672  -3.291  0.00  0.00     0.031 C 
ENDROOT
BRANCH   1   2
ATOM      2  C6  NON d   1     -41.037  18.386  -2.572  0.00  0.00     0.031 C 
BRANCH   2   3
ATOM      3  C5  NON d   1     -42.165  18.077  -3.523  0.00  0.00    -0.026 C 
ATOM      4  C4  NON d   1     -42.870  16.934  -3.487  0.00  0.00    -0.004 C 
BRANCH   4   5
ATOM      5  C3  NON d   1     -43.945  16.658  -4.412  0.00  0.00     0.005 C 
ATOM      6  C2  NON d   1     -45.079  17.374  -4.450  0.00  0.00     0.076 C 
BRANCH   6   7
ATOM      7  C1  NON d   1     -46.145  17.037  -5.435  0.00  0.00     0.264 C 
ATOM      8  O1  NON d   1     -46.489  17.810  -6.322  0.00  0.00    -0.266 OA
ATOM      9  N1  NON d   1     -46.674  15.790  -5.203  0.00  0.00    -0.234 N 
ATOM     10  H16 NON d   1     -46.359  15.157  -4.478  0.00  0.00     0.197 HD
BRANCH   9  11
ATOM     11  O4  NON d   1     -47.747  15.379  -6.017  0.00  0.00    -0.287 OA
ATOM     12  H17 NON d   1     -47.924  16.158  -6.571  0.00  0.00     0.244 HD
ENDBRANCH   9  11
ENDBRANCH   6   7
ENDBRANCH   4   5
ENDBRANCH   2   3
ENDBRANCH   1   2
BRANCH   1  13
ATOM     13  C8  NON d   1     -39.552  20.111  -3.720  0.00  0.00    -0.026 C 
ATOM     14  C9  NON d   1     -40.588  20.959  -3.827  0.00  0.00     0.007 C 
BRANCH  14  15
ATOM     15  C10 NON d   1     -40.509  22.369  -4.251  0.00  0.00    -0.034 A 
ATOM     16  C11 NON d   1     -39.750  22.791  -5.368  0.00  0.00     0.014 A 
ATOM     17  C12 NON d   1     -39.667  24.144  -5.724  0.00  0.00     0.040 A 
ATOM     18  C13 NON d   1     -40.341  25.055  -4.944  0.00  0.00     0.105 A 
ATOM     19  C14 NON d   1     -41.073  24.663  -3.851  0.00  0.00     0.105 A 
ATOM     20  O3  NON d   1     -40.368  26.401  -5.134  0.00  0.00    -0.323 OA
ATOM     21  C15 NON d   1     -41.173  23.337  -3.478  0.00  0.00     0.051 A 
ATOM     22  O2  NON d   1     -41.654  25.714  -3.212  0.00  0.00    -0.323 OA
ATOM     23  C16 NON d   1     -41.204  26.813  -4.033  0.00  0.00     0.352 A 
ENDBRANCH  14  15
ENDBRANCH   1  13
TORSDOF 7
ENDMDL
MODEL 8
REMARK VINA RESULT:   -13.146      3.398      4.170
REMARK INTER + INTRA:         -16.432
REMARK INTER:                 -15.234
REMARK INTRA:                  -1.198
REMARK CONF_INDEPENDENT:        2.088
REMARK UNBOUND:                -1.198
REMARK  7 active torsions:
REMARK  status: ('A' for Active; 'I' for Inactive)
REMARK    1  A    between atoms: C1_2  and  C2_3 
REMARK       I    between atoms: C1_2  and  N1_20 
REMARK    2  A    between atoms: C3_4  and  C4_5 
REMARK    3  A    between atoms: C5_6  and  C6_7 
REMARK    4  A    between atoms: C6_7  and  C7_8 
REMARK    5  A    between atoms: C7_8  and  C8_9 
REMARK    6  A    between atoms: C9_10  and  C10_11 
REMARK    7  A    between atoms: N1_20  and  O4_21 
ROOT
ATOM      1  C7  NON d   1     -39.655  18.703  -3.271  0.00  0.00     0.031 C 
ENDROOT
BRANCH   1   2
ATOM      2  C6  NON d   1     -40.967  18.266  -2.589  0.00  0.00     0.031 C 
BRANCH   2   3
ATOM      3  C5  NON d   1     -42.092  18.038  -3.564  0.00  0.00    -0.026 C 
ATOM      4  C4  NON d   1     -42.814  16.907  -3.611  0.00  0.00    -0.004 C 
BRANCH   4   5
ATOM      5  C3  NON d   1     -43.886  16.709  -4.559  0.00  0.00     0.005 C 
ATOM      6  C2  NON d   1     -45.115  17.221  -4.389  0.00  0.00     0.076 C 
BRANCH   6   7
ATOM      7  C1  NON d   1     -46.173  16.983  -5.412  0.00  0.00     0.264 C 
ATOM      8  O1  NON d   1     -46.525  17.846  -6.207  0.00  0.00    -0.266 OA
ATOM      9  N1  NON d   1     -46.684  15.709  -5.325  0.00  0.00    -0.234 N 
ATOM     10  H16 NON d   1     -46.362  15.003  -4.675  0.00  0.00     0.197 HD
BRANCH   9  11
ATOM     11  O4  NON d   1     -47.749  15.378  -6.185  0.00  0.00    -0.287 OA
ATOM     12  H17 NON d   1     -47.988  16.230  -6.590  0.00  0.00     0.244 HD
ENDBRANCH   9  11
ENDBRANCH   6   7
ENDBRANCH   4   5
ENDBRANCH   2   3
ENDBRANCH   1   2
BRANCH   1  13
ATOM     13  C8  NON d   1     -39.564  20.193  -3.492  0.00  0.00    -0.026 C 
ATOM     14  C9  NON d   1     -40.610  20.944  -3.876  0.00  0.00     0.007 C 
BRANCH  14  15
ATOM     15  C10 NON d   1     -40.584  22.399  -4.119  0.00  0.00    -0.034 A 
ATOM     16  C11 NON d   1     -41.282  23.323  -3.307  0.00  0.00     0.014 A 
ATOM     17  C12 NON d   1     -41.266  24.696  -3.586  0.00  0.00     0.040 A 
ATOM     18  C13 NON d   1     -40.556  25.119  -4.685  0.00  0.00     0.105 A 
ATOM     19  C14 NON d   1     -39.883  24.234  -5.490  0.00  0.00     0.105 A 
ATOM     20  O3  NON d   1     -40.436  26.405  -5.110  0.00  0.00    -0.323 OA
ATOM     21  C15 NON d   1     -39.880  22.876  -5.238  0.00  0.00     0.051 A 
ATOM     22  O2  NON d   1     -39.252  24.851  -6.526  0.00  0.00    -0.323 OA
ATOM     23  C16 NON d   1     -39.606  26.229  -6.276  0.00  0.00     0.352 A 
ENDBRANCH  14  15
ENDBRANCH   1  13
TORSDOF 7
ENDMDL
MODEL 9
REMARK VINA RESULT:   -13.125      4.111      5.218
REMARK INTER + INTRA:         -16.389
REMARK INTER:                 -15.213
REMARK INTRA:                  -1.176
REMARK CONF_INDEPENDENT:        2.088
REMARK UNBOUND:                -1.176
REMARK  7 active torsions:
REMARK  status: ('A' for Active; 'I' for Inactive)
REMARK    1  A    between atoms: C1_2  and  C2_3 
REMARK       I    between atoms: C1_2  and  N1_20 
REMARK    2  A    between atoms: C3_4  and  C4_5 
REMARK    3  A    between atoms: C5_6  and  C6_7 
REMARK    4  A    between atoms: C6_7  and  C7_8 
REMARK    5  A    between atoms: C7_8  and  C8_9 
REMARK    6  A    between atoms: C9_10  and  C10_11 
REMARK    7  A    between atoms: N1_20  and  O4_21 
ROOT
ATOM      1  C7  NON d   1     -40.844  18.889  -1.918  0.00  0.00     0.031 C 
ENDROOT
BRANCH   1   2
ATOM      2  C6  NON d   1     -40.929  17.407  -2.335  0.00  0.00     0.031 C 
BRANCH   2   3
ATOM      3  C5  NON d   1     -42.041  17.132  -3.315  0.00  0.00    -0.026 C 
ATOM      4  C4  NON d   1     -42.884  18.077  -3.762  0.00  0.00    -0.004 C 
BRANCH   4   5
ATOM      5  C3  NON d   1     -43.946  17.789  -4.698  0.00  0.00     0.005 C 
ATOM      6  C2  NON d   1     -45.118  17.249  -4.330  0.00  0.00     0.076 C 
BRANCH   6   7
ATOM      7  C1  NON d   1     -46.173  16.984  -5.349  0.00  0.00     0.264 C 
ATOM      8  O1  NON d   1     -46.503  17.816  -6.186  0.00  0.00    -0.266 OA
ATOM      9  N1  NON d   1     -46.709  15.726  -5.208  0.00  0.00    -0.234 N 
ATOM     10  H16 NON d   1     -46.405  15.044  -4.524  0.00  0.00     0.197 HD
BRANCH   9  11
ATOM     11  O4  NON d   1     -47.773  15.376  -6.061  0.00  0.00    -0.287 OA
ATOM     12  H17 NON d   1     -47.783  16.092  -6.720  0.00  0.00     0.244 HD
ENDBRANCH   9  11
ENDBRANCH   6   7
ENDBRANCH   4   5
ENDBRANCH   2   3
ENDBRANCH   1   2
BRANCH   1  13
ATOM     13  C8  NON d   1     -40.246  19.775  -2.983  0.00  0.00    -0.026 C 
ATOM     14  C9  NON d   1     -40.973  20.349  -3.956  0.00  0.00     0.007 C 
BRANCH  14  15
ATOM     15  C10 NON d   1     -40.449  21.214  -5.029  0.00  0.00    -0.034 A 
ATOM     16  C11 NON d   1     -40.018  20.708  -6.278  0.00  0.00     0.014 A 
ATOM     17  C12 NON d   1     -39.493  21.552  -7.265  0.00  0.00     0.040 A 
ATOM     18  C13 NON d   1     -39.398  22.894  -6.978  0.00  0.00     0.105 A 
ATOM     19  C14 NON d   1     -39.801  23.399  -5.766  0.00  0.00     0.105 A 
ATOM     20  O3  NON d   1     -38.909  23.854  -7.807  0.00  0.00    -0.323 OA
ATOM     21  C15 NON d   1     -40.324  22.591  -4.776  0.00  0.00     0.051 A 
ATOM     22  O2  NON d   1     -39.616  24.744  -5.679  0.00  0.00    -0.323 OA
ATOM     23  C16 NON d   1     -39.052  25.026  -6.978  0.00  0.00     0.352 A 
ENDBRANCH  14  15
ENDBRANCH   1  13
TORSDOF 7
ENDMDL
