MODEL 1
REMARK VINA RESULT:   -30.123      0.000      0.000
REMARK INTER + INTRA:         -36.344
REMARK INTER:                 -33.404
REMARK INTRA:                  -2.940
REMARK CONF_INDEPENDENT:        3.281
REMARK UNBOUND:                -2.940
REMARK  11 active torsions:
REMARK  status: ('A' for Active; 'I' for Inactive)
REMARK    1  A    between atoms: C2_2  and  C3_4 
REMARK    2  A    between atoms: C3_4  and  C4_5 
REMARK    3  A    between atoms: C4_5  and  C5_6 
REMARK    4  A    between atoms: C5_6  and  C6_7 
REMARK    5  A    between atoms: C6_7  and  C7_8 
REMARK    6  A    between atoms: C8_9  and  C7_8 
REMARK    7  A    between atoms: C8_9  and  N1_10 
REMARK    8  A    between atoms: C8_9  and  C12_16 
REMARK    9  A    between atoms: N1_10  and  C9_11 
REMARK       I    between atoms: C12_16  and  N3_18 
REMARK   10  A    between atoms: N3_18  and  C13_19 
REMARK   11  A    between atoms: C17_23  and  C18_24 
ROOT
ATOM      1  C8  NON d   1     -43.123  17.149  -4.546  0.00  0.00     0.174 C 
ENDROOT
BRANCH   1   2
ATOM      2  C7  NON d   1     -42.245  17.104  -3.182  0.00  0.00     0.035 C 
BRANCH   2   3
ATOM      3  C6  NON d   1     -41.497  18.364  -2.753  0.00  0.00     0.002 C 
BRANCH   3   4
ATOM      4  C5  NON d   1     -40.034  18.209  -3.119  0.00  0.00     0.000 C 
BRANCH   4   5
ATOM      5  C4  NON d   1     -39.274  19.424  -2.608  0.00  0.00     0.007 C 
BRANCH   5   6
ATOM      6  C3  NON d   1     -40.058  20.225  -1.642  0.00  0.00     0.077 C 
BRANCH   6   7
ATOM      7  C2  NON d   1     -39.489  21.603  -1.546  0.00  0.00     0.123 C 
ATOM      8  C1  NON d   1     -40.193  22.350  -0.398  0.00  0.00     0.091 C 
ATOM      9  O1  NON d   1     -38.620  22.097  -2.251  0.00  0.00    -0.298 OA
ENDBRANCH   6   7
ENDBRANCH   5   6
ENDBRANCH   4   5
ENDBRANCH   3   4
ENDBRANCH   2   3
ENDBRANCH   1   2
BRANCH   1  10
ATOM     10  N1  NON d   1     -44.536  17.736  -4.215  0.00  0.00    -0.370 N 
ATOM     11  H15 NON d   1     -44.569  18.230  -3.323  0.00  0.00     0.161 HD
BRANCH  10  12
ATOM     12  C9  NON d   1     -45.660  17.037  -4.563  0.00  0.00     0.089 A 
ATOM     13  C10 NON d   1     -46.196  16.747  -5.809  0.00  0.00     0.153 A 
ATOM     14  N2  NON d   1     -47.440  16.145  -5.817  0.00  0.00    -0.263 NA
ATOM     15  C11 NON d   1     -47.832  15.957  -4.578  0.00  0.00     0.167 A 
ATOM     16  S1  NON d   1     -46.746  16.469  -3.356  0.00  0.00    -0.064 SA
ENDBRANCH  10  12
ENDBRANCH   1  10
BRANCH   1  17
ATOM     17  C12 NON d   1     -42.558  18.378  -5.282  0.00  0.00     0.244 C 
ATOM     18  O2  NON d   1     -43.189  19.423  -5.038  0.00  0.00    -0.271 OA
ATOM     19  N3  NON d   1     -41.356  18.431  -5.969  0.00  0.00    -0.325 N 
ATOM     20  H18 NON d   1     -40.740  17.648  -5.792  0.00  0.00     0.169 HD
BRANCH  19  21
ATOM     21  C13 NON d   1     -40.784  19.675  -6.395  0.00  0.00     0.035 A 
ATOM     22  C14 NON d   1     -40.358  19.866  -7.714  0.00  0.00     0.029 A 
ATOM     23  C15 NON d   1     -39.884  21.092  -8.159  0.00  0.00     0.003 A 
ATOM     24  C16 NON d   1     -39.849  22.170  -7.284  0.00  0.00     0.012 A 
ATOM     25  C17 NON d   1     -40.243  22.048  -5.939  0.00  0.00    -0.024 A 
ATOM     26  C24 NON d   1     -40.679  20.762  -5.501  0.00  0.00     0.042 A 
BRANCH  25  27
ATOM     27  C18 NON d   1     -40.258  23.266  -5.073  0.00  0.00    -0.026 A 
ATOM     28  C19 NON d   1     -41.120  23.365  -3.958  0.00  0.00     0.012 A 
ATOM     29  C20 NON d   1     -41.065  24.438  -3.061  0.00  0.00     0.001 A 
ATOM     30  C21 NON d   1     -40.160  25.469  -3.272  0.00  0.00     0.000 A 
ATOM     31  C22 NON d   1     -39.316  25.421  -4.378  0.00  0.00     0.001 A 
ATOM     32  C23 NON d   1     -39.361  24.332  -5.264  0.00  0.00     0.012 A 
ENDBRANCH  25  27
ENDBRANCH  19  21
ENDBRANCH   1  17
TORSDOF 11
ENDMDL
MODEL 2
REMARK VINA RESULT:   -30.075      1.951      3.828
REMARK INTER + INTRA:         -36.526
REMARK INTER:                 -33.356
REMARK INTRA:                  -3.170
REMARK CONF_INDEPENDENT:        3.281
REMARK UNBOUND:                -3.170
REMARK  11 active torsions:
REMARK  status: ('A' for Active; 'I' for Inactive)
REMARK    1  A    between atoms: C2_2  and  C3_4 
REMARK    2  A    between atoms: C3_4  and  C4_5 
REMARK    3  A    between atoms: C4_5  and  C5_6 
REMARK    4  A    between atoms: C5_6  and  C6_7 
REMARK    5  A    between atoms: C6_7  and  C7_8 
REMARK    6  A    between atoms: C8_9  and  C7_8 
REMARK    7  A    between atoms: C8_9  and  N1_10 
REMARK    8  A    between atoms: C8_9  and  C12_16 
REMARK    9  A    between atoms: N1_10  and  C9_11 
REMARK       I    between atoms: C12_16  and  N3_18 
REMARK   10  A    between atoms: N3_18  and  C13_19 
REMARK   11  A    between atoms: C17_23  and  C18_24 
ROOT
ATOM      1  C8  NON d   1     -43.105  17.171  -4.567  0.00  0.00     0.174 C 
ENDROOT
BRANCH   1   2
ATOM      2  C7  NON d   1     -42.182  17.142  -3.234  0.00  0.00     0.035 C 
BRANCH   2   3
ATOM      3  C6  NON d   1     -42.148  18.380  -2.341  0.00  0.00     0.002 C 
BRANCH   3   4
ATOM      4  C5  NON d   1     -40.788  18.460  -1.674  0.00  0.00     0.000 C 
BRANCH   4   5
ATOM      5  C4  NON d   1     -39.891  17.386  -2.271  0.00  0.00     0.007 C 
BRANCH   5   6
ATOM      6  C3  NON d   1     -38.518  17.870  -2.538  0.00  0.00     0.077 C 
BRANCH   6   7
ATOM      7  C2  NON d   1     -38.510  18.724  -3.764  0.00  0.00     0.123 C 
ATOM      8  C1  NON d   1     -38.105  20.156  -3.366  0.00  0.00     0.091 C 
ATOM      9  O1  NON d   1     -38.787  18.384  -4.905  0.00  0.00    -0.298 OA
ENDBRANCH   6   7
ENDBRANCH   5   6
ENDBRANCH   4   5
ENDBRANCH   3   4
ENDBRANCH   2   3
ENDBRANCH   1   2
BRANCH   1  10
ATOM     10  N1  NON d   1     -44.515  17.737  -4.190  0.00  0.00    -0.370 N 
ATOM     11  H15 NON d   1     -44.538  18.186  -3.275  0.00  0.00     0.161 HD
BRANCH  10  12
ATOM     12  C9  NON d   1     -45.642  17.053  -4.559  0.00  0.00     0.089 A 
ATOM     13  C10 NON d   1     -46.199  16.834  -5.810  0.00  0.00     0.153 A 
ATOM     14  N2  NON d   1     -47.440  16.225  -5.831  0.00  0.00    -0.263 NA
ATOM     15  C11 NON d   1     -47.808  15.962  -4.598  0.00  0.00     0.167 A 
ATOM     16  S1  NON d   1     -46.703  16.408  -3.367  0.00  0.00    -0.064 SA
ENDBRANCH  10  12
ENDBRANCH   1  10
BRANCH   1  17
ATOM     17  C12 NON d   1     -42.584  18.408  -5.323  0.00  0.00     0.244 C 
ATOM     18  O2  NON d   1     -43.318  19.406  -5.186  0.00  0.00    -0.271 OA
ATOM     19  N3  NON d   1     -41.338  18.533  -5.915  0.00  0.00    -0.325 N 
ATOM     20  H18 NON d   1     -40.676  17.814  -5.648  0.00  0.00     0.169 HD
BRANCH  19  21
ATOM     21  C13 NON d   1     -40.837  19.800  -6.361  0.00  0.00     0.035 A 
ATOM     22  C14 NON d   1     -40.830  20.917  -5.518  0.00  0.00     0.029 A 
ATOM     23  C15 NON d   1     -40.268  22.124  -5.909  0.00  0.00     0.003 A 
ATOM     24  C16 NON d   1     -39.673  22.228  -7.160  0.00  0.00     0.012 A 
ATOM     25  C17 NON d   1     -39.658  21.153  -8.067  0.00  0.00    -0.024 A 
ATOM     26  C24 NON d   1     -40.288  19.942  -7.653  0.00  0.00     0.042 A 
BRANCH  25  27
ATOM     27  C18 NON d   1     -38.930  21.307  -9.363  0.00  0.00    -0.026 A 
ATOM     28  C19 NON d   1     -39.362  22.228 -10.343  0.00  0.00     0.012 A 
ATOM     29  C20 NON d   1     -38.628  22.481 -11.509  0.00  0.00     0.001 A 
ATOM     30  C21 NON d   1     -37.447  21.791 -11.745  0.00  0.00     0.000 A 
ATOM     31  C22 NON d   1     -37.008  20.852 -10.816  0.00  0.00     0.001 A 
ATOM     32  C23 NON d   1     -37.737  20.617  -9.638  0.00  0.00     0.012 A 
ENDBRANCH  25  27
ENDBRANCH  19  21
ENDBRANCH   1  17
TORSDOF 11
ENDMDL
MODEL 3
REMARK VINA RESULT:   -29.931      1.371      2.010
REMARK INTER + INTRA:         -36.106
REMARK INTER:                 -33.212
REMARK INTRA:                  -2.894
REMARK CONF_INDEPENDENT:        3.281
REMARK UNBOUND:                -2.894
REMARK  11 active torsions:
REMARK  status: ('A' for Active; 'I' for Inactive)
REMARK    1  A    between atoms: C2_2  and  C3_4 
REMARK    2  A    between atoms: C3_4  and  C4_5 
REMARK    3  A    between atoms: C4_5  and  C5_6 
REMARK    4  A    between atoms: C5_6  and  C6_7 
REMARK    5  A    between atoms: C6_7  and  C7_8 
REMARK    6  A    between atoms: C8_9  and  C7_8 
REMARK    7  A    between atoms: C8_9  and  N1_10 
REMARK    8  A    between atoms: C8_9  and  C12_16 
REMARK    9  A    between atoms: N1_10  and  C9_11 
REMARK       I    between atoms: C12_16  and  N3_18 
REMARK   10  A    between atoms: N3_18  and  C13_19 
REMARK   11  A    between atoms: C17_23  and  C18_24 
ROOT
ATOM      1  C8  NON d   1     -43.019  17.545  -4.384  0.00  0.00     0.174 C 
ENDROOT
BRANCH   1   2
ATOM      2  C7  NON d   1     -42.379  18.155  -3.025  0.00  0.00     0.035 C 
BRANCH   2   3
ATOM      3  C6  NON d   1     -41.100  17.528  -2.474  0.00  0.00     0.002 C 
BRANCH   3   4
ATOM      4  C5  NON d   1     -40.147  18.639  -2.077  0.00  0.00     0.000 C 
BRANCH   4   5
ATOM      5  C4  NON d   1     -39.667  19.340  -3.340  0.00  0.00     0.007 C 
BRANCH   5   6
ATOM      6  C3  NON d   1     -39.418  20.784  -3.134  0.00  0.00     0.077 C 
BRANCH   6   7
ATOM      7  C2  NON d   1     -40.663  21.559  -3.419  0.00  0.00     0.123 C 
ATOM      8  C1  NON d   1     -40.620  22.876  -2.622  0.00  0.00     0.091 C 
ATOM      9  O1  NON d   1     -41.591  21.230  -4.145  0.00  0.00    -0.298 OA
ENDBRANCH   6   7
ENDBRANCH   5   6
ENDBRANCH   4   5
ENDBRANCH   3   4
ENDBRANCH   2   3
ENDBRANCH   1   2
BRANCH   1  10
ATOM     10  N1  NON d   1     -44.418  18.205  -4.622  0.00  0.00    -0.370 N 
ATOM     11  H15 NON d   1     -44.571  19.042  -4.058  0.00  0.00     0.161 HD
BRANCH  10  12
ATOM     12  C9  NON d   1     -45.513  17.415  -4.844  0.00  0.00     0.089 A 
ATOM     13  C10 NON d   1     -46.301  17.256  -5.975  0.00  0.00     0.153 A 
ATOM     14  N2  NON d   1     -47.440  16.487  -5.826  0.00  0.00    -0.263 NA
ATOM     15  C11 NON d   1     -47.499  16.045  -4.591  0.00  0.00     0.167 A 
ATOM     16  S1  NON d   1     -46.210  16.506  -3.560  0.00  0.00    -0.064 SA
ENDBRANCH  10  12
ENDBRANCH   1  10
BRANCH   1  17
ATOM     17  C12 NON d   1     -42.251  18.288  -5.493  0.00  0.00     0.244 C 
ATOM     18  O2  NON d   1     -42.784  19.367  -5.814  0.00  0.00    -0.271 OA
ATOM     19  N3  NON d   1     -40.989  17.965  -5.963  0.00  0.00    -0.325 N 
ATOM     20  H18 NON d   1     -40.483  17.307  -5.382  0.00  0.00     0.169 HD
BRANCH  19  21
ATOM     21  C13 NON d   1     -40.242  18.859  -6.800  0.00  0.00     0.035 A 
ATOM     22  C14 NON d   1     -39.468  18.381  -7.864  0.00  0.00     0.029 A 
ATOM     23  C15 NON d   1     -38.813  19.242  -8.733  0.00  0.00     0.003 A 
ATOM     24  C16 NON d   1     -38.942  20.615  -8.565  0.00  0.00     0.012 A 
ATOM     25  C17 NON d   1     -39.688  21.166  -7.508  0.00  0.00    -0.024 A 
ATOM     26  C24 NON d   1     -40.309  20.254  -6.603  0.00  0.00     0.042 A 
BRANCH  25  27
ATOM     27  C18 NON d   1     -39.854  22.649  -7.432  0.00  0.00    -0.026 A 
ATOM     28  C19 NON d   1     -39.892  23.322  -6.190  0.00  0.00     0.012 A 
ATOM     29  C20 NON d   1     -39.920  24.718  -6.095  0.00  0.00     0.001 A 
ATOM     30  C21 NON d   1     -39.943  25.489  -7.249  0.00  0.00     0.000 A 
ATOM     31  C22 NON d   1     -39.939  24.860  -8.491  0.00  0.00     0.001 A 
ATOM     32  C23 NON d   1     -39.890  23.458  -8.581  0.00  0.00     0.012 A 
ENDBRANCH  25  27
ENDBRANCH  19  21
ENDBRANCH   1  17
TORSDOF 11
ENDMDL
MODEL 4
REMARK VINA RESULT:   -29.874      1.224      1.828
REMARK INTER + INTRA:         -36.739
REMARK INTER:                 -33.155
REMARK INTRA:                  -3.584
REMARK CONF_INDEPENDENT:        3.281
REMARK UNBOUND:                -3.584
REMARK  11 active torsions:
REMARK  status: ('A' for Active; 'I' for Inactive)
REMARK    1  A    between atoms: C2_2  and  C3_4 
REMARK    2  A    between atoms: C3_4  and  C4_5 
REMARK    3  A    between atoms: C4_5  and  C5_6 
REMARK    4  A    between atoms: C5_6  and  C6_7 
REMARK    5  A    between atoms: C6_7  and  C7_8 
REMARK    6  A    between atoms: C8_9  and  C7_8 
REMARK    7  A    between atoms: C8_9  and  N1_10 
REMARK    8  A    between atoms: C8_9  and  C12_16 
REMARK    9  A    between atoms: N1_10  and  C9_11 
REMARK       I    between atoms: C12_16  and  N3_18 
REMARK   10  A    between atoms: N3_18  and  C13_19 
REMARK   11  A    between atoms: C17_23  and  C18_24 
ROOT
ATOM      1  C8  NON d   1     -43.143  17.129  -4.554  0.00  0.00     0.174 C 
ENDROOT
BRANCH   1   2
ATOM      2  C7  NON d   1     -42.258  16.971  -3.204  0.00  0.00     0.035 C 
BRANCH   2   3
ATOM      3  C6  NON d   1     -41.932  18.222  -2.392  0.00  0.00     0.002 C 
BRANCH   3   4
ATOM      4  C5  NON d   1     -40.452  18.214  -2.060  0.00  0.00     0.000 C 
BRANCH   4   5
ATOM      5  C4  NON d   1     -39.907  19.622  -2.243  0.00  0.00     0.007 C 
BRANCH   5   6
ATOM      6  C3  NON d   1     -38.483  19.637  -2.646  0.00  0.00     0.077 C 
BRANCH   6   7
ATOM      7  C2  NON d   1     -38.317  18.923  -3.947  0.00  0.00     0.123 C 
ATOM      8  C1  NON d   1     -37.127  19.544  -4.704  0.00  0.00     0.091 C 
ATOM      9  O1  NON d   1     -38.998  18.005  -4.382  0.00  0.00    -0.298 OA
ENDBRANCH   6   7
ENDBRANCH   5   6
ENDBRANCH   4   5
ENDBRANCH   3   4
ENDBRANCH   2   3
ENDBRANCH   1   2
BRANCH   1  10
ATOM     10  N1  NON d   1     -44.557  17.677  -4.166  0.00  0.00    -0.370 N 
ATOM     11  H15 NON d   1     -44.583  18.110  -3.243  0.00  0.00     0.161 HD
BRANCH  10  12
ATOM     12  C9  NON d   1     -45.679  16.992  -4.547  0.00  0.00     0.089 A 
ATOM     13  C10 NON d   1     -46.192  16.723  -5.807  0.00  0.00     0.153 A 
ATOM     14  N2  NON d   1     -47.439  16.131  -5.849  0.00  0.00    -0.263 NA
ATOM     15  C11 NON d   1     -47.858  15.929  -4.620  0.00  0.00     0.167 A 
ATOM     16  S1  NON d   1     -46.794  16.416  -3.369  0.00  0.00    -0.064 SA
ENDBRANCH  10  12
ENDBRANCH   1  10
BRANCH   1  17
ATOM     17  C12 NON d   1     -42.588  18.421  -5.183  0.00  0.00     0.244 C 
ATOM     18  O2  NON d   1     -43.270  19.427  -4.909  0.00  0.00    -0.271 OA
ATOM     19  N3  NON d   1     -41.356  18.558  -5.801  0.00  0.00    -0.325 N 
ATOM     20  H18 NON d   1     -40.720  17.787  -5.641  0.00  0.00     0.169 HD
BRANCH  19  21
ATOM     21  C13 NON d   1     -40.810  19.846  -6.119  0.00  0.00     0.035 A 
ATOM     22  C14 NON d   1     -40.341  20.139  -7.405  0.00  0.00     0.029 A 
ATOM     23  C15 NON d   1     -39.892  21.406  -7.747  0.00  0.00     0.003 A 
ATOM     24  C16 NON d   1     -39.927  22.423  -6.801  0.00  0.00     0.012 A 
ATOM     25  C17 NON d   1     -40.368  22.198  -5.484  0.00  0.00    -0.024 A 
ATOM     26  C24 NON d   1     -40.776  20.872  -5.152  0.00  0.00     0.042 A 
BRANCH  25  27
ATOM     27  C18 NON d   1     -40.457  23.353  -4.541  0.00  0.00    -0.026 A 
ATOM     28  C19 NON d   1     -40.682  24.667  -5.008  0.00  0.00     0.012 A 
ATOM     29  C20 NON d   1     -40.894  25.745  -4.140  0.00  0.00     0.001 A 
ATOM     30  C21 NON d   1     -40.856  25.544  -2.767  0.00  0.00     0.000 A 
ATOM     31  C22 NON d   1     -40.606  24.268  -2.271  0.00  0.00     0.001 A 
ATOM     32  C23 NON d   1     -40.413  23.186  -3.146  0.00  0.00     0.012 A 
ENDBRANCH  25  27
ENDBRANCH  19  21
ENDBRANCH   1  17
TORSDOF 11
ENDMDL
MODEL 5
REMARK VINA RESULT:   -29.665      3.418      6.455
REMARK INTER + INTRA:         -35.358
REMARK INTER:                 -32.946
REMARK INTRA:                  -2.411
REMARK CONF_INDEPENDENT:        3.281
REMARK UNBOUND:                -2.411
REMARK  11 active torsions:
REMARK  status: ('A' for Active; 'I' for Inactive)
REMARK    1  A    between atoms: C2_2  and  C3_4 
REMARK    2  A    between atoms: C3_4  and  C4_5 
REMARK    3  A    between atoms: C4_5  and  C5_6 
REMARK    4  A    between atoms: C5_6  and  C6_7 
REMARK    5  A    between atoms: C6_7  and  C7_8 
REMARK    6  A    between atoms: C8_9  and  C7_8 
REMARK    7  A    between atoms: C8_9  and  N1_10 
REMARK    8  A    between atoms: C8_9  and  C12_16 
REMARK    9  A    between atoms: N1_10  and  C9_11 
REMARK       I    between atoms: C12_16  and  N3_18 
REMARK   10  A    between atoms: N3_18  and  C13_19 
REMARK   11  A    between atoms: C17_23  and  C18_24 
ROOT
ATOM      1  C8  NON d   1     -43.141  18.575  -4.517  0.00  0.00     0.174 C 
ENDROOT
BRANCH   1   2
ATOM      2  C7  NON d   1     -42.867  19.473  -5.839  0.00  0.00     0.035 C 
BRANCH   2   3
ATOM      3  C6  NON d   1     -41.485  20.094  -6.027  0.00  0.00     0.002 C 
BRANCH   3   4
ATOM      4  C5  NON d   1     -40.713  19.266  -7.036  0.00  0.00     0.000 C 
BRANCH   4   5
ATOM      5  C4  NON d   1     -39.261  19.719  -7.027  0.00  0.00     0.007 C 
BRANCH   5   6
ATOM      6  C3  NON d   1     -38.352  18.745  -7.670  0.00  0.00     0.077 C 
BRANCH   6   7
ATOM      7  C2  NON d   1     -37.510  19.436  -8.693  0.00  0.00     0.123 C 
ATOM      8  C1  NON d   1     -37.715  20.956  -8.556  0.00  0.00     0.091 C 
ATOM      9  O1  NON d   1     -36.779  18.917  -9.525  0.00  0.00    -0.298 OA
ENDBRANCH   6   7
ENDBRANCH   5   6
ENDBRANCH   4   5
ENDBRANCH   3   4
ENDBRANCH   2   3
ENDBRANCH   1   2
BRANCH   1  10
ATOM     10  N1  NON d   1     -43.828  17.237  -4.952  0.00  0.00    -0.370 N 
ATOM     11  H15 NON d   1     -43.236  16.653  -5.543  0.00  0.00     0.161 HD
BRANCH  10  12
ATOM     12  C9  NON d   1     -45.168  17.220  -5.229  0.00  0.00     0.089 A 
ATOM     13  C10 NON d   1     -46.158  16.321  -4.860  0.00  0.00     0.153 A 
ATOM     14  N2  NON d   1     -47.400  16.506  -5.437  0.00  0.00    -0.263 NA
ATOM     15  C11 NON d   1     -47.355  17.558  -6.221  0.00  0.00     0.167 A 
ATOM     16  S1  NON d   1     -45.854  18.380  -6.299  0.00  0.00    -0.064 SA
ENDBRANCH  10  12
ENDBRANCH   1  10
BRANCH   1  17
ATOM     17  C12 NON d   1     -41.750  17.996  -4.196  0.00  0.00     0.244 C 
ATOM     18  O2  NON d   1     -41.312  17.257  -5.097  0.00  0.00    -0.271 OA
ATOM     19  N3  NON d   1     -40.929  18.390  -3.152  0.00  0.00    -0.325 N 
ATOM     20  H18 NON d   1     -41.209  19.253  -2.703  0.00  0.00     0.169 HD
BRANCH  19  21
ATOM     21  C13 NON d   1     -39.553  17.993  -3.083  0.00  0.00     0.035 A 
ATOM     22  C14 NON d   1     -38.619  18.440  -4.025  0.00  0.00     0.029 A 
ATOM     23  C15 NON d   1     -37.270  18.133  -3.919  0.00  0.00     0.003 A 
ATOM     24  C16 NON d   1     -36.822  17.383  -2.839  0.00  0.00     0.012 A 
ATOM     25  C17 NON d   1     -37.704  16.885  -1.863  0.00  0.00    -0.024 A 
ATOM     26  C24 NON d   1     -39.091  17.176  -2.029  0.00  0.00     0.042 A 
BRANCH  25  27
ATOM     27  C18 NON d   1     -37.147  16.155  -0.685  0.00  0.00    -0.026 A 
ATOM     28  C19 NON d   1     -36.605  16.849   0.420  0.00  0.00     0.012 A 
ATOM     29  C20 NON d   1     -36.192  16.195   1.587  0.00  0.00     0.001 A 
ATOM     30  C21 NON d   1     -36.281  14.812   1.672  0.00  0.00     0.000 A 
ATOM     31  C22 NON d   1     -36.781  14.092   0.591  0.00  0.00     0.001 A 
ATOM     32  C23 NON d   1     -37.213  14.755  -0.571  0.00  0.00     0.012 A 
ENDBRANCH  25  27
ENDBRANCH  19  21
ENDBRANCH   1  17
TORSDOF 11
ENDMDL
MODEL 6
REMARK VINA RESULT:   -29.635      1.833      3.347
REMARK INTER + INTRA:         -35.860
REMARK INTER:                 -32.917
REMARK INTRA:                  -2.944
REMARK CONF_INDEPENDENT:        3.281
REMARK UNBOUND:                -2.944
REMARK  11 active torsions:
REMARK  status: ('A' for Active; 'I' for Inactive)
REMARK    1  A    between atoms: C2_2  and  C3_4 
REMARK    2  A    between atoms: C3_4  and  C4_5 
REMARK    3  A    between atoms: C4_5  and  C5_6 
REMARK    4  A    between atoms: C5_6  and  C6_7 
REMARK    5  A    between atoms: C6_7  and  C7_8 
REMARK    6  A    between atoms: C8_9  and  C7_8 
REMARK    7  A    between atoms: C8_9  and  N1_10 
REMARK    8  A    between atoms: C8_9  and  C12_16 
REMARK    9  A    between atoms: N1_10  and  C9_11 
REMARK       I    between atoms: C12_16  and  N3_18 
REMARK   10  A    between atoms: N3_18  and  C13_19 
REMARK   11  A    between atoms: C17_23  and  C18_24 
ROOT
ATOM      1  C8  NON d   1     -42.801  17.409  -4.886  0.00  0.00     0.174 C 
ENDROOT
BRANCH   1   2
ATOM      2  C7  NON d   1     -42.346  17.438  -3.329  0.00  0.00     0.035 C 
BRANCH   2   3
ATOM      3  C6  NON d   1     -40.879  17.703  -3.001  0.00  0.00     0.002 C 
BRANCH   3   4
ATOM      4  C5  NON d   1     -40.803  18.835  -1.995  0.00  0.00     0.000 C 
BRANCH   4   5
ATOM      5  C4  NON d   1     -39.732  19.816  -2.448  0.00  0.00     0.007 C 
BRANCH   5   6
ATOM      6  C3  NON d   1     -40.132  21.228  -2.260  0.00  0.00     0.077 C 
BRANCH   6   7
ATOM      7  C2  NON d   1     -40.124  21.936  -3.576  0.00  0.00     0.123 C 
ATOM      8  C1  NON d   1     -41.440  22.724  -3.721  0.00  0.00     0.091 C 
ATOM      9  O1  NON d   1     -39.247  21.908  -4.428  0.00  0.00    -0.298 OA
ENDBRANCH   6   7
ENDBRANCH   5   6
ENDBRANCH   4   5
ENDBRANCH   3   4
ENDBRANCH   2   3
ENDBRANCH   1   2
BRANCH   1  10
ATOM     10  N1  NON d   1     -44.190  18.119  -5.018  0.00  0.00    -0.370 N 
ATOM     11  H15 NON d   1     -44.233  19.013  -4.531  0.00  0.00     0.161 HD
BRANCH  10  12
ATOM     12  C9  NON d   1     -45.336  17.372  -5.021  0.00  0.00     0.089 A 
ATOM     13  C10 NON d   1     -46.314  17.218  -5.993  0.00  0.00     0.153 A 
ATOM     14  N2  NON d   1     -47.439  16.504  -5.624  0.00  0.00    -0.263 NA
ATOM     15  C11 NON d   1     -47.299  16.098  -4.383  0.00  0.00     0.167 A 
ATOM     16  S1  NON d   1     -45.834  16.528  -3.606  0.00  0.00    -0.064 SA
ENDBRANCH  10  12
ENDBRANCH   1  10
BRANCH   1  17
ATOM     17  C12 NON d   1     -41.942  18.520  -5.519  0.00  0.00     0.244 C 
ATOM     18  O2  NON d   1     -42.099  19.627  -4.971  0.00  0.00    -0.271 OA
ATOM     19  N3  NON d   1     -40.925  18.334  -6.441  0.00  0.00    -0.325 N 
ATOM     20  H18 NON d   1     -40.621  17.373  -6.539  0.00  0.00     0.169 HD
BRANCH  19  21
ATOM     21  C13 NON d   1     -40.006  19.383  -6.775  0.00  0.00     0.035 A 
ATOM     22  C14 NON d   1     -38.764  19.492  -6.138  0.00  0.00     0.029 A 
ATOM     23  C15 NON d   1     -37.833  20.450  -6.514  0.00  0.00     0.003 A 
ATOM     24  C16 NON d   1     -38.123  21.312  -7.563  0.00  0.00     0.012 A 
ATOM     25  C17 NON d   1     -39.357  21.273  -8.237  0.00  0.00    -0.024 A 
ATOM     26  C24 NON d   1     -40.312  20.310  -7.794  0.00  0.00     0.042 A 
BRANCH  25  27
ATOM     27  C18 NON d   1     -39.573  22.173  -9.410  0.00  0.00    -0.026 A 
ATOM     28  C19 NON d   1     -40.024  23.502  -9.243  0.00  0.00     0.012 A 
ATOM     29  C20 NON d   1     -40.113  24.402 -10.312  0.00  0.00     0.001 A 
ATOM     30  C21 NON d   1     -39.782  23.988 -11.594  0.00  0.00     0.000 A 
ATOM     31  C22 NON d   1     -39.365  22.676 -11.801  0.00  0.00     0.001 A 
ATOM     32  C23 NON d   1     -39.257  21.782 -10.723  0.00  0.00     0.012 A 
ENDBRANCH  25  27
ENDBRANCH  19  21
ENDBRANCH   1  17
TORSDOF 11
ENDMDL
MODEL 7
REMARK VINA RESULT:   -29.024      3.203      6.013
REMARK INTER + INTRA:         -34.879
REMARK INTER:                 -32.306
REMARK INTRA:                  -2.574
REMARK CONF_INDEPENDENT:        3.281
REMARK UNBOUND:                -2.574
REMARK  11 active torsions:
REMARK  status: ('A' for Active; 'I' for Inactive)
REMARK    1  A    between atoms: C2_2  and  C3_4 
REMARK    2  A    between atoms: C3_4  and  C4_5 
REMARK    3  A    between atoms: C4_5  and  C5_6 
REMARK    4  A    between atoms: C5_6  and  C6_7 
REMARK    5  A    between atoms: C6_7  and  C7_8 
REMARK    6  A    between atoms: C8_9  and  C7_8 
REMARK    7  A    between atoms: C8_9  and  N1_10 
REMARK    8  A    between atoms: C8_9  and  C12_16 
REMARK    9  A    between atoms: N1_10  and  C9_11 
REMARK       I    between atoms: C12_16  and  N3_18 
REMARK   10  A    between atoms: N3_18  and  C13_19 
REMARK   11  A    between atoms: C17_23  and  C18_24 
ROOT
ATOM      1  C8  NON d   1     -43.181  18.456  -4.165  0.00  0.00     0.174 C 
ENDROOT
BRANCH   1   2
ATOM      2  C7  NON d   1     -42.896  19.491  -5.381  0.00  0.00     0.035 C 
BRANCH   2   3
ATOM      3  C6  NON d   1     -41.513  20.126  -5.492  0.00  0.00     0.002 C 
BRANCH   3   4
ATOM      4  C5  NON d   1     -41.160  20.758  -4.159  0.00  0.00     0.000 C 
BRANCH   4   5
ATOM      5  C4  NON d   1     -40.431  22.068  -4.422  0.00  0.00     0.007 C 
BRANCH   5   6
ATOM      6  C3  NON d   1     -40.261  22.883  -3.199  0.00  0.00     0.077 C 
BRANCH   6   7
ATOM      7  C2  NON d   1     -40.429  22.024  -1.989  0.00  0.00     0.123 C 
ATOM      8  C1  NON d   1     -41.010  22.882  -0.849  0.00  0.00     0.091 C 
ATOM      9  O1  NON d   1     -40.149  20.838  -1.877  0.00  0.00    -0.298 OA
ENDBRANCH   6   7
ENDBRANCH   5   6
ENDBRANCH   4   5
ENDBRANCH   3   4
ENDBRANCH   2   3
ENDBRANCH   1   2
BRANCH   1  10
ATOM     10  N1  NON d   1     -43.842  17.163  -4.749  0.00  0.00    -0.370 N 
ATOM     11  H15 NON d   1     -43.219  16.630  -5.356  0.00  0.00     0.161 HD
BRANCH  10  12
ATOM     12  C9  NON d   1     -45.165  17.175  -5.097  0.00  0.00     0.089 A 
ATOM     13  C10 NON d   1     -46.189  16.289  -4.796  0.00  0.00     0.153 A 
ATOM     14  N2  NON d   1     -47.395  16.505  -5.435  0.00  0.00    -0.263 NA
ATOM     15  C11 NON d   1     -47.290  17.567  -6.200  0.00  0.00     0.167 A 
ATOM     16  S1  NON d   1     -45.772  18.362  -6.185  0.00  0.00    -0.064 SA
ENDBRANCH  10  12
ENDBRANCH   1  10
BRANCH   1  17
ATOM     17  C12 NON d   1     -41.788  17.863  -3.881  0.00  0.00     0.244 C 
ATOM     18  O2  NON d   1     -41.310  17.256  -4.858  0.00  0.00    -0.271 OA
ATOM     19  N3  NON d   1     -41.003  18.130  -2.771  0.00  0.00    -0.325 N 
ATOM     20  H18 NON d   1     -41.312  18.922  -2.222  0.00  0.00     0.169 HD
BRANCH  19  21
ATOM     21  C13 NON d   1     -39.621  17.750  -2.714  0.00  0.00     0.035 A 
ATOM     22  C14 NON d   1     -38.689  18.260  -3.626  0.00  0.00     0.029 A 
ATOM     23  C15 NON d   1     -37.336  17.968  -3.526  0.00  0.00     0.003 A 
ATOM     24  C16 NON d   1     -36.883  17.169  -2.484  0.00  0.00     0.012 A 
ATOM     25  C17 NON d   1     -37.763  16.607  -1.542  0.00  0.00    -0.024 A 
ATOM     26  C24 NON d   1     -39.153  16.886  -1.701  0.00  0.00     0.042 A 
BRANCH  25  27
ATOM     27  C18 NON d   1     -37.202  15.825  -0.399  0.00  0.00    -0.026 A 
ATOM     28  C19 NON d   1     -36.647  16.469   0.730  0.00  0.00     0.012 A 
ATOM     29  C20 NON d   1     -36.229  15.763   1.864  0.00  0.00     0.001 A 
ATOM     30  C21 NON d   1     -36.327  14.379   1.892  0.00  0.00     0.000 A 
ATOM     31  C22 NON d   1     -36.840  13.709   0.786  0.00  0.00     0.001 A 
ATOM     32  C23 NON d   1     -37.276  14.422  -0.344  0.00  0.00     0.012 A 
ENDBRANCH  25  27
ENDBRANCH  19  21
ENDBRANCH   1  17
TORSDOF 11
ENDMDL
MODEL 8
REMARK VINA RESULT:   -28.502      2.078      4.356
REMARK INTER + INTRA:         -35.247
REMARK INTER:                 -31.783
REMARK INTRA:                  -3.464
REMARK CONF_INDEPENDENT:        3.281
REMARK UNBOUND:                -3.464
REMARK  11 active torsions:
REMARK  status: ('A' for Active; 'I' for Inactive)
REMARK    1  A    between atoms: C2_2  and  C3_4 
REMARK    2  A    between atoms: C3_4  and  C4_5 
REMARK    3  A    between atoms: C4_5  and  C5_6 
REMARK    4  A    between atoms: C5_6  and  C6_7 
REMARK    5  A    between atoms: C6_7  and  C7_8 
REMARK    6  A    between atoms: C8_9  and  C7_8 
REMARK    7  A    between atoms: C8_9  and  N1_10 
REMARK    8  A    between atoms: C8_9  and  C12_16 
REMARK    9  A    between atoms: N1_10  and  C9_11 
REMARK       I    between atoms: C12_16  and  N3_18 
REMARK   10  A    between atoms: N3_18  and  C13_19 
REMARK   11  A    between atoms: C17_23  and  C18_24 
ROOT
ATOM      1  C8  NON d   1     -43.264  18.405  -4.598  0.00  0.00     0.174 C 
ENDROOT
BRANCH   1   2
ATOM      2  C7  NON d   1     -42.491  17.317  -5.519  0.00  0.00     0.035 C 
BRANCH   2   3
ATOM      3  C6  NON d   1     -41.054  17.609  -5.944  0.00  0.00     0.002 C 
BRANCH   3   4
ATOM      4  C5  NON d   1     -41.001  18.995  -6.557  0.00  0.00     0.000 C 
BRANCH   4   5
ATOM      5  C4  NON d   1     -39.576  19.268  -7.017  0.00  0.00     0.007 C 
BRANCH   5   6
ATOM      6  C3  NON d   1     -38.961  20.421  -6.325  0.00  0.00     0.077 C 
BRANCH   6   7
ATOM      7  C2  NON d   1     -39.931  21.556  -6.269  0.00  0.00     0.123 C 
ATOM      8  C1  NON d   1     -40.287  21.974  -7.708  0.00  0.00     0.091 C 
ATOM      9  O1  NON d   1     -40.379  22.099  -5.270  0.00  0.00    -0.298 OA
ENDBRANCH   6   7
ENDBRANCH   5   6
ENDBRANCH   4   5
ENDBRANCH   3   4
ENDBRANCH   2   3
ENDBRANCH   1   2
BRANCH   1  10
ATOM     10  N1  NON d   1     -44.244  17.648  -3.640  0.00  0.00    -0.370 N 
ATOM     11  H15 NON d   1     -43.766  17.085  -2.936  0.00  0.00     0.161 HD
BRANCH  10  12
ATOM     12  C9  NON d   1     -45.415  17.139  -4.131  0.00  0.00     0.089 A 
ATOM     13  C10 NON d   1     -45.814  16.879  -5.434  0.00  0.00     0.153 A 
ATOM     14  N2  NON d   1     -47.133  16.505  -5.608  0.00  0.00    -0.263 NA
ATOM     15  C11 NON d   1     -47.723  16.458  -4.436  0.00  0.00     0.167 A 
ATOM     16  S1  NON d   1     -46.746  16.839  -3.082  0.00  0.00    -0.064 SA
ENDBRANCH  10  12
ENDBRANCH   1  10
BRANCH   1  17
ATOM     17  C12 NON d   1     -42.204  18.786  -3.547  0.00  0.00     0.244 C 
ATOM     18  O2  NON d   1     -41.984  17.875  -2.726  0.00  0.00    -0.271 OA
ATOM     19  N3  NON d   1     -41.387  19.904  -3.586  0.00  0.00    -0.325 N 
ATOM     20  H18 NON d   1     -41.376  20.382  -4.479  0.00  0.00     0.169 HD
BRANCH  19  21
ATOM     21  C13 NON d   1     -40.254  20.042  -2.717  0.00  0.00     0.035 A 
ATOM     22  C14 NON d   1     -39.044  19.394  -2.992  0.00  0.00     0.029 A 
ATOM     23  C15 NON d   1     -37.917  19.590  -2.207  0.00  0.00     0.003 A 
ATOM     24  C16 NON d   1     -37.975  20.469  -1.133  0.00  0.00     0.012 A 
ATOM     25  C17 NON d   1     -39.161  21.142  -0.787  0.00  0.00    -0.024 A 
ATOM     26  C24 NON d   1     -40.315  20.880  -1.584  0.00  0.00     0.042 A 
BRANCH  25  27
ATOM     27  C18 NON d   1     -39.134  22.135   0.329  0.00  0.00    -0.026 A 
ATOM     28  C19 NON d   1     -37.928  22.470   0.985  0.00  0.00     0.012 A 
ATOM     29  C20 NON d   1     -37.855  23.486   1.945  0.00  0.00     0.001 A 
ATOM     30  C21 NON d   1     -39.001  24.181   2.305  0.00  0.00     0.000 A 
ATOM     31  C22 NON d   1     -40.213  23.856   1.702  0.00  0.00     0.001 A 
ATOM     32  C23 NON d   1     -40.278  22.849   0.724  0.00  0.00     0.012 A 
ENDBRANCH  25  27
ENDBRANCH  19  21
ENDBRANCH   1  17
TORSDOF 11
ENDMDL
