MODEL 1
REMARK VINA RESULT:   -32.707      0.000      0.000
REMARK INTER + INTRA:         -37.101
REMARK INTER:                 -35.391
REMARK INTRA:                  -1.710
REMARK CONF_INDEPENDENT:        2.685
REMARK UNBOUND:                -1.710
REMARK  9 active torsions:
REMARK  status: ('A' for Active; 'I' for Inactive)
REMARK    1  A    between atoms: C5_5  and  N1_6 
REMARK    2  A    between atoms: N1_6  and  C6_7 
REMARK    3  A    between atoms: C6_7  and  C7_8 
REMARK    4  A    between atoms: C10_11  and  C11_12 
REMARK    5  A    between atoms: C12_13  and  C13_14 
REMARK       I    between atoms: C13_14  and  N2_16 
REMARK    6  A    between atoms: N2_16  and  O2_17 
REMARK    7  A    between atoms: C17_21  and  N3_22 
REMARK    8  A    between atoms: N3_22  and  C18_23 
REMARK    9  A    between atoms: C21_27  and  C22_28 
ROOT
ATOM      1  C1  NON d   1     -39.903  18.380  -7.958  0.00  0.00     0.050 C 
ATOM      2  C2  NON d   1     -39.598  19.701  -7.228  0.00  0.00    -0.035 A 
ATOM      3  C3  NON d   1     -38.399  20.394  -7.366  0.00  0.00     0.011 A 
ATOM      4  C4  NON d   1     -38.221  21.578  -6.660  0.00  0.00     0.024 A 
ATOM      5  C5  NON d   1     -39.239  22.114  -5.855  0.00  0.00     0.010 A 
ATOM      6  C16 NON d   1     -40.425  21.365  -5.706  0.00  0.00     0.054 A 
ATOM      7  C17 NON d   1     -40.635  20.139  -6.372  0.00  0.00     0.057 A 
ENDROOT
BRANCH   5   8
ATOM      8  N1  NON d   1     -39.076  23.296  -5.095  0.00  0.00    -0.289 NA
ATOM      9  H6  NON d   1     -38.504  23.116  -4.273  0.00  0.00     0.128 HD
BRANCH   8  10
ATOM     10  C6  NON d   1     -40.297  24.034  -4.777  0.00  0.00     0.131 C 
BRANCH  10  11
ATOM     11  C7  NON d   1     -40.519  24.331  -3.311  0.00  0.00    -0.045 A 
ATOM     12  C8  NON d   1     -40.932  23.261  -2.501  0.00  0.00     0.009 A 
ATOM     13  C9  NON d   1     -41.226  23.447  -1.149  0.00  0.00     0.012 A 
ATOM     14  C10 NON d   1     -41.113  24.709  -0.558  0.00  0.00    -0.036 A 
ATOM     15  C14 NON d   1     -40.706  25.780  -1.367  0.00  0.00     0.012 A 
ATOM     16  C15 NON d   1     -40.419  25.596  -2.730  0.00  0.00     0.009 A 
BRANCH  14  17
ATOM     17  C11 NON d   1     -41.439  24.826   0.875  0.00  0.00     0.017 C 
ATOM     18  C12 NON d   1     -40.585  25.135   1.862  0.00  0.00     0.077 C 
BRANCH  18  19
ATOM     19  C13 NON d   1     -41.065  25.186   3.262  0.00  0.00     0.264 C 
ATOM     20  O1  NON d   1     -42.092  25.759   3.614  0.00  0.00    -0.266 OA
ATOM     21  N2  NON d   1     -40.259  24.506   4.137  0.00  0.00    -0.234 N 
ATOM     22  H13 NON d   1     -39.413  24.005   3.895  0.00  0.00     0.197 HD
BRANCH  21  23
ATOM     23  O2  NON d   1     -40.687  24.437   5.481  0.00  0.00    -0.287 OA
ATOM     24  H14 NON d   1     -41.573  24.861   5.440  0.00  0.00     0.244 HD
ENDBRANCH  21  23
ENDBRANCH  18  19
ENDBRANCH  14  17
ENDBRANCH  10  11
ENDBRANCH   8  10
ENDBRANCH   5   8
BRANCH   7  25
ATOM     25  N3  NON d   1     -41.887  19.480  -6.174  0.00  0.00    -0.188 N 
ATOM     26  H18 NON d   1     -42.650  20.011  -6.583  0.00  0.00     0.184 HD
BRANCH  25  27
ATOM     27  C18 NON d   1     -42.499  18.716  -5.154  0.00  0.00     0.727 A 
ATOM     28  N4  NON d   1     -41.649  18.261  -4.222  0.00  0.00    -0.075 NA
ATOM     29  C19 NON d   1     -42.144  17.445  -3.268  0.00  0.00     0.139 A 
ATOM     30  C20 NON d   1     -43.457  17.049  -3.197  0.00  0.00     0.053 A 
ATOM     31  C21 NON d   1     -44.291  17.566  -4.162  0.00  0.00     0.089 A 
ATOM     32  N6  NON d   1     -43.818  18.445  -5.091  0.00  0.00    -0.062 NA
BRANCH  31  33
ATOM     33  C22 NON d   1     -45.693  17.094  -4.340  0.00  0.00     0.011 A 
ATOM     34  C23 NON d   1     -46.570  16.875  -3.261  0.00  0.00     0.017 A 
ATOM     35  C24 NON d   1     -47.823  16.283  -3.452  0.00  0.00     0.020 A 
ATOM     36  C25 NON d   1     -48.186  15.916  -4.735  0.00  0.00     0.116 A 
ATOM     37  N5  NON d   1     -47.406  16.130  -5.810  0.00  0.00    -0.272 NA
ATOM     38  C26 NON d   1     -46.192  16.710  -5.588  0.00  0.00     0.130 A 
ENDBRANCH  31  33
ENDBRANCH  25  27
ENDBRANCH   7  25
TORSDOF 9
ENDMDL
MODEL 2
REMARK VINA RESULT:   -32.409      1.977      2.336
REMARK INTER + INTRA:         -37.023
REMARK INTER:                 -35.094
REMARK INTRA:                  -1.929
REMARK CONF_INDEPENDENT:        2.685
REMARK UNBOUND:                -1.929
REMARK  9 active torsions:
REMARK  status: ('A' for Active; 'I' for Inactive)
REMARK    1  A    between atoms: C5_5  and  N1_6 
REMARK    2  A    between atoms: N1_6  and  C6_7 
REMARK    3  A    between atoms: C6_7  and  C7_8 
REMARK    4  A    between atoms: C10_11  and  C11_12 
REMARK    5  A    between atoms: C12_13  and  C13_14 
REMARK       I    between atoms: C13_14  and  N2_16 
REMARK    6  A    between atoms: N2_16  and  O2_17 
REMARK    7  A    between atoms: C17_21  and  N3_22 
REMARK    8  A    between atoms: N3_22  and  C18_23 
REMARK    9  A    between atoms: C21_27  and  C22_28 
ROOT
ATOM      1  C1  NON d   1     -41.249  20.263  -8.693  0.00  0.00     0.050 C 
ATOM      2  C2  NON d   1     -40.124  20.248  -7.642  0.00  0.00    -0.035 A 
ATOM      3  C3  NON d   1     -38.793  20.525  -7.940  0.00  0.00     0.011 A 
ATOM      4  C4  NON d   1     -37.852  20.483  -6.919  0.00  0.00     0.024 A 
ATOM      5  C5  NON d   1     -38.220  20.218  -5.590  0.00  0.00     0.010 A 
ATOM      6  C16 NON d   1     -39.570  19.902  -5.331  0.00  0.00     0.054 A 
ATOM      7  C17 NON d   1     -40.555  19.894  -6.342  0.00  0.00     0.057 A 
ENDROOT
BRANCH   5   8
ATOM      8  N1  NON d   1     -37.283  20.130  -4.535  0.00  0.00    -0.289 NA
ATOM      9  H6  NON d   1     -36.393  19.776  -4.875  0.00  0.00     0.128 HD
BRANCH   8  10
ATOM     10  C6  NON d   1     -37.733  19.444  -3.325  0.00  0.00     0.131 C 
BRANCH  10  11
ATOM     11  C7  NON d   1     -38.151  20.341  -2.182  0.00  0.00    -0.045 A 
ATOM     12  C8  NON d   1     -39.485  20.247  -1.754  0.00  0.00     0.009 A 
ATOM     13  C9  NON d   1     -39.985  21.078  -0.750  0.00  0.00     0.012 A 
ATOM     14  C10 NON d   1     -39.166  22.031  -0.135  0.00  0.00    -0.036 A 
ATOM     15  C14 NON d   1     -37.835  22.131  -0.565  0.00  0.00     0.012 A 
ATOM     16  C15 NON d   1     -37.334  21.301  -1.582  0.00  0.00     0.009 A 
BRANCH  14  17
ATOM     17  C11 NON d   1     -39.766  22.871   0.918  0.00  0.00     0.017 C 
ATOM     18  C12 NON d   1     -40.605  23.901   0.731  0.00  0.00     0.077 C 
BRANCH  18  19
ATOM     19  C13 NON d   1     -41.101  24.668   1.897  0.00  0.00     0.264 C 
ATOM     20  O1  NON d   1     -41.360  25.867   1.868  0.00  0.00    -0.266 OA
ATOM     21  N2  NON d   1     -41.270  23.900   3.018  0.00  0.00    -0.234 N 
ATOM     22  H13 NON d   1     -41.087  22.907   3.089  0.00  0.00     0.197 HD
BRANCH  21  23
ATOM     23  O2  NON d   1     -41.817  24.537   4.154  0.00  0.00    -0.287 OA
ATOM     24  H14 NON d   1     -41.820  25.481   3.882  0.00  0.00     0.244 HD
ENDBRANCH  21  23
ENDBRANCH  18  19
ENDBRANCH  14  17
ENDBRANCH  10  11
ENDBRANCH   8  10
ENDBRANCH   5   8
BRANCH   7  25
ATOM     25  N3  NON d   1     -41.898  19.591  -5.962  0.00  0.00    -0.188 N 
ATOM     26  H18 NON d   1     -42.480  20.422  -5.978  0.00  0.00     0.184 HD
BRANCH  25  27
ATOM     27  C18 NON d   1     -42.537  18.731  -5.040  0.00  0.00     0.727 A 
ATOM     28  N4  NON d   1     -41.713  18.179  -4.137  0.00  0.00    -0.075 NA
ATOM     29  C19 NON d   1     -42.236  17.274  -3.283  0.00  0.00     0.139 A 
ATOM     30  C20 NON d   1     -43.551  16.881  -3.287  0.00  0.00     0.053 A 
ATOM     31  C21 NON d   1     -44.358  17.497  -4.215  0.00  0.00     0.089 A 
ATOM     32  N6  NON d   1     -43.859  18.462  -5.039  0.00  0.00    -0.062 NA
BRANCH  31  33
ATOM     33  C22 NON d   1     -45.756  17.053  -4.476  0.00  0.00     0.011 A 
ATOM     34  C23 NON d   1     -46.655  16.708  -3.449  0.00  0.00     0.017 A 
ATOM     35  C24 NON d   1     -47.904  16.146  -3.734  0.00  0.00     0.020 A 
ATOM     36  C25 NON d   1     -48.241  15.937  -5.058  0.00  0.00     0.116 A 
ATOM     37  N5  NON d   1     -47.440  16.276  -6.085  0.00  0.00    -0.272 NA
ATOM     38  C26 NON d   1     -46.231  16.822  -5.771  0.00  0.00     0.130 A 
ENDBRANCH  31  33
ENDBRANCH  25  27
ENDBRANCH   7  25
TORSDOF 9
ENDMDL
MODEL 3
REMARK VINA RESULT:   -31.339      5.587      7.581
REMARK INTER + INTRA:         -34.763
REMARK INTER:                 -34.024
REMARK INTRA:                  -0.739
REMARK CONF_INDEPENDENT:        2.685
REMARK UNBOUND:                -0.739
REMARK  9 active torsions:
REMARK  status: ('A' for Active; 'I' for Inactive)
REMARK    1  A    between atoms: C5_5  and  N1_6 
REMARK    2  A    between atoms: N1_6  and  C6_7 
REMARK    3  A    between atoms: C6_7  and  C7_8 
REMARK    4  A    between atoms: C10_11  and  C11_12 
REMARK    5  A    between atoms: C12_13  and  C13_14 
REMARK       I    between atoms: C13_14  and  N2_16 
REMARK    6  A    between atoms: N2_16  and  O2_17 
REMARK    7  A    between atoms: C17_21  and  N3_22 
REMARK    8  A    between atoms: N3_22  and  C18_23 
REMARK    9  A    between atoms: C21_27  and  C22_28 
ROOT
ATOM      1  C1  NON d   1     -40.072  18.386  -7.327  0.00  0.00     0.050 C 
ATOM      2  C2  NON d   1     -39.617  19.743  -6.758  0.00  0.00    -0.035 A 
ATOM      3  C3  NON d   1     -38.360  20.289  -6.991  0.00  0.00     0.011 A 
ATOM      4  C4  NON d   1     -38.046  21.521  -6.429  0.00  0.00     0.024 A 
ATOM      5  C5  NON d   1     -38.985  22.246  -5.677  0.00  0.00     0.010 A 
ATOM      6  C16 NON d   1     -40.235  21.644  -5.426  0.00  0.00     0.054 A 
ATOM      7  C17 NON d   1     -40.584  20.378  -5.944  0.00  0.00     0.057 A 
ENDROOT
BRANCH   5   8
ATOM      8  N1  NON d   1     -38.686  23.483  -5.060  0.00  0.00    -0.289 NA
ATOM      9  H6  NON d   1     -38.510  23.354  -4.067  0.00  0.00     0.128 HD
BRANCH   8  10
ATOM     10  C6  NON d   1     -39.614  24.580  -5.327  0.00  0.00     0.131 C 
BRANCH  10  11
ATOM     11  C7  NON d   1     -39.824  24.917  -6.786  0.00  0.00    -0.045 A 
ATOM     12  C8  NON d   1     -40.072  23.844  -7.658  0.00  0.00     0.009 A 
ATOM     13  C9  NON d   1     -40.215  24.044  -9.032  0.00  0.00     0.012 A 
ATOM     14  C10 NON d   1     -40.119  25.326  -9.583  0.00  0.00    -0.036 A 
ATOM     15  C14 NON d   1     -39.865  26.398  -8.715  0.00  0.00     0.012 A 
ATOM     16  C15 NON d   1     -39.711  26.197  -7.333  0.00  0.00     0.009 A 
BRANCH  14  17
ATOM     17  C11 NON d   1     -40.282  25.457 -11.042  0.00  0.00     0.017 C 
ATOM     18  C12 NON d   1     -40.341  24.451 -11.928  0.00  0.00     0.077 C 
BRANCH  18  19
ATOM     19  C13 NON d   1     -40.480  24.750 -13.373  0.00  0.00     0.264 C 
ATOM     20  O1  NON d   1     -39.531  24.881 -14.140  0.00  0.00    -0.266 OA
ATOM     21  N2  NON d   1     -41.783  24.845 -13.784  0.00  0.00    -0.234 N 
ATOM     22  H13 NON d   1     -42.600  24.729 -13.196  0.00  0.00     0.197 HD
BRANCH  21  23
ATOM     23  O2  NON d   1     -42.007  25.048 -15.163  0.00  0.00    -0.287 OA
ATOM     24  H14 NON d   1     -42.917  24.696 -15.281  0.00  0.00     0.244 HD
ENDBRANCH  21  23
ENDBRANCH  18  19
ENDBRANCH  14  17
ENDBRANCH  10  11
ENDBRANCH   8  10
ENDBRANCH   5   8
BRANCH   7  25
ATOM     25  N3  NON d   1     -41.890  19.877  -5.654  0.00  0.00    -0.188 N 
ATOM     26  H18 NON d   1     -42.583  20.618  -5.686  0.00  0.00     0.184 HD
BRANCH  25  27
ATOM     27  C18 NON d   1     -42.453  18.906  -4.794  0.00  0.00     0.727 A 
ATOM     28  N4  NON d   1     -41.567  18.302  -3.989  0.00  0.00    -0.075 NA
ATOM     29  C19 NON d   1     -42.015  17.298  -3.206  0.00  0.00     0.139 A 
ATOM     30  C20 NON d   1     -43.315  16.855  -3.189  0.00  0.00     0.053 A 
ATOM     31  C21 NON d   1     -44.187  17.526  -4.014  0.00  0.00     0.089 A 
ATOM     32  N6  NON d   1     -43.763  18.587  -4.760  0.00  0.00    -0.062 NA
BRANCH  31  33
ATOM     33  C22 NON d   1     -45.580  17.055  -4.254  0.00  0.00     0.011 A 
ATOM     34  C23 NON d   1     -46.493  16.800  -3.212  0.00  0.00     0.017 A 
ATOM     35  C24 NON d   1     -47.735  16.209  -3.464  0.00  0.00     0.020 A 
ATOM     36  C25 NON d   1     -48.053  15.881  -4.768  0.00  0.00     0.116 A 
ATOM     37  N5  NON d   1     -47.238  16.130  -5.810  0.00  0.00    -0.272 NA
ATOM     38  C26 NON d   1     -46.036  16.707  -5.529  0.00  0.00     0.130 A 
ENDBRANCH  31  33
ENDBRANCH  25  27
ENDBRANCH   7  25
TORSDOF 9
ENDMDL
MODEL 4
REMARK VINA RESULT:   -30.879      1.377      1.872
REMARK INTER + INTRA:         -35.274
REMARK INTER:                 -33.563
REMARK INTRA:                  -1.710
REMARK CONF_INDEPENDENT:        2.685
REMARK UNBOUND:                -1.710
REMARK  9 active torsions:
REMARK  status: ('A' for Active; 'I' for Inactive)
REMARK    1  A    between atoms: C5_5  and  N1_6 
REMARK    2  A    between atoms: N1_6  and  C6_7 
REMARK    3  A    between atoms: C6_7  and  C7_8 
REMARK    4  A    between atoms: C10_11  and  C11_12 
REMARK    5  A    between atoms: C12_13  and  C13_14 
REMARK       I    between atoms: C13_14  and  N2_16 
REMARK    6  A    between atoms: N2_16  and  O2_17 
REMARK    7  A    between atoms: C17_21  and  N3_22 
REMARK    8  A    between atoms: N3_22  and  C18_23 
REMARK    9  A    between atoms: C21_27  and  C22_28 
ROOT
ATOM      1  C1  NON d   1     -40.075  18.033  -7.098  0.00  0.00     0.050 C 
ATOM      2  C2  NON d   1     -39.672  19.511  -7.255  0.00  0.00    -0.035 A 
ATOM      3  C3  NON d   1     -38.474  19.920  -7.831  0.00  0.00     0.011 A 
ATOM      4  C4  NON d   1     -38.202  21.281  -7.924  0.00  0.00     0.024 A 
ATOM      5  C5  NON d   1     -39.128  22.246  -7.498  0.00  0.00     0.010 A 
ATOM      6  C16 NON d   1     -40.314  21.794  -6.881  0.00  0.00     0.054 A 
ATOM      7  C17 NON d   1     -40.616  20.423  -6.731  0.00  0.00     0.057 A 
ENDROOT
BRANCH   5   8
ATOM      8  N1  NON d   1     -38.867  23.635  -7.543  0.00  0.00    -0.289 NA
ATOM      9  H6  NON d   1     -37.890  23.823  -7.335  0.00  0.00     0.128 HD
BRANCH   8  10
ATOM     10  C6  NON d   1     -39.776  24.489  -6.780  0.00  0.00     0.131 C 
BRANCH  10  11
ATOM     11  C7  NON d   1     -39.710  24.335  -5.277  0.00  0.00    -0.045 A 
ATOM     12  C8  NON d   1     -40.838  24.741  -4.546  0.00  0.00     0.009 A 
ATOM     13  C9  NON d   1     -40.851  24.701  -3.150  0.00  0.00     0.012 A 
ATOM     14  C10 NON d   1     -39.737  24.249  -2.436  0.00  0.00    -0.036 A 
ATOM     15  C14 NON d   1     -38.607  23.849  -3.164  0.00  0.00     0.012 A 
ATOM     16  C15 NON d   1     -38.589  23.898  -4.568  0.00  0.00     0.009 A 
BRANCH  14  17
ATOM     17  C11 NON d   1     -39.827  24.235  -0.965  0.00  0.00     0.017 C 
ATOM     18  C12 NON d   1     -40.029  23.157  -0.192  0.00  0.00     0.077 C 
BRANCH  18  19
ATOM     19  C13 NON d   1     -40.123  23.313   1.278  0.00  0.00     0.264 C 
ATOM     20  O1  NON d   1     -39.243  22.967   2.061  0.00  0.00    -0.266 OA
ATOM     21  N2  NON d   1     -41.287  23.908   1.687  0.00  0.00    -0.234 N 
ATOM     22  H13 NON d   1     -42.034  24.226   1.083  0.00  0.00     0.197 HD
BRANCH  21  23
ATOM     23  O2  NON d   1     -41.422  24.167   3.069  0.00  0.00    -0.287 OA
ATOM     24  H14 NON d   1     -40.737  23.581   3.459  0.00  0.00     0.244 HD
ENDBRANCH  21  23
ENDBRANCH  18  19
ENDBRANCH  14  17
ENDBRANCH  10  11
ENDBRANCH   8  10
ENDBRANCH   5   8
BRANCH   7  25
ATOM     25  N3  NON d   1     -41.860  20.079  -6.120  0.00  0.00    -0.188 N 
ATOM     26  H18 NON d   1     -42.393  20.909  -5.880  0.00  0.00     0.184 HD
BRANCH  25  27
ATOM     27  C18 NON d   1     -42.330  19.088  -5.228  0.00  0.00     0.727 A 
ATOM     28  N4  NON d   1     -41.365  18.470  -4.532  0.00  0.00    -0.075 NA
ATOM     29  C19 NON d   1     -41.729  17.448  -3.730  0.00  0.00     0.139 A 
ATOM     30  C20 NON d   1     -43.019  17.000  -3.587  0.00  0.00     0.053 A 
ATOM     31  C21 NON d   1     -43.973  17.686  -4.303  0.00  0.00     0.089 A 
ATOM     32  N6  NON d   1     -43.629  18.764  -5.065  0.00  0.00    -0.062 NA
BRANCH  31  33
ATOM     33  C22 NON d   1     -45.382  17.216  -4.407  0.00  0.00     0.011 A 
ATOM     34  C23 NON d   1     -46.172  16.907  -3.283  0.00  0.00     0.017 A 
ATOM     35  C24 NON d   1     -47.434  16.319  -3.421  0.00  0.00     0.020 A 
ATOM     36  C25 NON d   1     -47.895  16.047  -4.696  0.00  0.00     0.116 A 
ATOM     37  N5  NON d   1     -47.201  16.350  -5.809  0.00  0.00    -0.272 NA
ATOM     38  C26 NON d   1     -45.977  16.922  -5.639  0.00  0.00     0.130 A 
ENDBRANCH  31  33
ENDBRANCH  25  27
ENDBRANCH   7  25
TORSDOF 9
ENDMDL
