MODEL 1
REMARK VINA RESULT:   -17.146      0.000      0.000
REMARK INTER + INTRA:         -20.203
REMARK INTER:                 -18.936
REMARK INTRA:                  -1.267
REMARK CONF_INDEPENDENT:        1.790
REMARK UNBOUND:                -1.267
REMARK  6 active torsions:
REMARK  status: ('A' for Active; 'I' for Inactive)
REMARK    1  A    between atoms: O1_2  and  C2_3 
REMARK    2  A    between atoms: C5_6  and  C6_7 
REMARK    3  A    between atoms: C6_7  and  N1_8 
REMARK       I    between atoms: N1_8  and  C7_9 
REMARK    4  A    between atoms: C7_9  and  C8_11 
REMARK    5  A    between atoms: C12_16  and  C13_17 
REMARK       I    between atoms: C13_17  and  N2_19 
REMARK    6  A    between atoms: N2_19  and  O4_20 
ROOT
ATOM      1  C8  NON d   1     -42.224  18.710  -3.514  0.00  0.00     0.032 A 
ATOM      2  C9  NON d   1     -42.458  19.413  -4.694  0.00  0.00     0.018 A 
ATOM      3  C10 NON d   1     -43.585  19.131  -5.480  0.00  0.00     0.021 A 
ATOM      4  C11 NON d   1     -44.490  18.137  -5.056  0.00  0.00     0.016 A 
ATOM      5  S1  NON d   1     -45.934  17.630  -5.843  0.00  0.00    -0.084 SA
ATOM      6  C12 NON d   1     -46.311  16.486  -4.626  0.00  0.00     0.076 A 
ATOM      7  C14 NON d   1     -45.340  16.480  -3.643  0.00  0.00     0.037 A 
ATOM      8  C15 NON d   1     -44.284  17.426  -3.874  0.00  0.00    -0.017 A 
ATOM      9  C16 NON d   1     -43.134  17.721  -3.105  0.00  0.00     0.030 A 
ENDROOT
BRANCH   1  10
ATOM     10  C7  NON d   1     -41.070  19.000  -2.615  0.00  0.00     0.251 C 
ATOM     11  N1  NON d   1     -40.686  20.319  -2.465  0.00  0.00    -0.353 N 
ATOM     12  H8  NON d   1     -40.943  20.974  -3.188  0.00  0.00     0.163 HD
ATOM     13  O2  NON d   1     -40.486  18.071  -2.062  0.00  0.00    -0.268 OA
BRANCH  11  14
ATOM     14  C6  NON d   1     -39.509  20.618  -1.675  0.00  0.00     0.161 C 
BRANCH  14  15
ATOM     15  C5  NON d   1     -39.687  21.656  -0.595  0.00  0.00    -0.040 A 
ATOM     16  C4  NON d   1     -38.907  21.733   0.564  0.00  0.00     0.011 A 
ATOM     17  C3  NON d   1     -39.149  22.729   1.517  0.00  0.00     0.037 A 
ATOM     18  C2  NON d   1     -40.161  23.674   1.330  0.00  0.00     0.068 A 
ATOM     19  C18 NON d   1     -40.924  23.624   0.167  0.00  0.00     0.037 A 
ATOM     20  C17 NON d   1     -40.690  22.624  -0.782  0.00  0.00     0.011 A 
BRANCH  18  21
ATOM     21  O1  NON d   1     -40.294  24.583   2.342  0.00  0.00    -0.356 OA
ATOM     22  C1  NON d   1     -39.173  24.754   3.201  0.00  0.00     0.210 C 
ENDBRANCH  18  21
ENDBRANCH  14  15
ENDBRANCH  11  14
ENDBRANCH   1  10
BRANCH   6  23
ATOM     23  C13 NON d   1     -47.517  15.682  -4.749  0.00  0.00     0.281 C 
ATOM     24  O3  NON d   1     -48.068  15.380  -5.810  0.00  0.00    -0.265 OA
ATOM     25  N2  NON d   1     -48.068  15.258  -3.554  0.00  0.00    -0.233 N 
ATOM     26  H11 NON d   1     -47.846  15.675  -2.658  0.00  0.00     0.197 HD
BRANCH  25  27
ATOM     27  O4  NON d   1     -49.302  14.572  -3.637  0.00  0.00    -0.287 OA
ATOM     28  H12 NON d   1     -49.386  14.403  -4.602  0.00  0.00     0.244 HD
ENDBRANCH  25  27
ENDBRANCH   6  23
TORSDOF 6
ENDMDL
MODEL 2
REMARK VINA RESULT:   -15.216      2.082      2.321
REMARK INTER + INTRA:         -18.245
REMARK INTER:                 -17.006
REMARK INTRA:                  -1.240
REMARK CONF_INDEPENDENT:        1.790
REMARK UNBOUND:                -1.240
REMARK  6 active torsions:
REMARK  status: ('A' for Active; 'I' for Inactive)
REMARK    1  A    between atoms: O1_2  and  C2_3 
REMARK    2  A    between atoms: C5_6  and  C6_7 
REMARK    3  A    between atoms: C6_7  and  N1_8 
REMARK       I    between atoms: N1_8  and  C7_9 
REMARK    4  A    between atoms: C7_9  and  C8_11 
REMARK    5  A    between atoms: C12_16  and  C13_17 
REMARK       I    between atoms: C13_17  and  N2_19 
REMARK    6  A    between atoms: N2_19  and  O4_20 
ROOT
ATOM      1  C8  NON d   1     -42.108  18.718  -3.574  0.00  0.00     0.032 A 
ATOM      2  C9  NON d   1     -42.370  19.452  -4.729  0.00  0.00     0.018 A 
ATOM      3  C10 NON d   1     -43.517  19.192  -5.494  0.00  0.00     0.021 A 
ATOM      4  C11 NON d   1     -44.414  18.189  -5.072  0.00  0.00     0.016 A 
ATOM      5  S1  NON d   1     -45.879  17.705  -5.835  0.00  0.00    -0.084 SA
ATOM      6  C12 NON d   1     -46.228  16.532  -4.639  0.00  0.00     0.076 A 
ATOM      7  C14 NON d   1     -45.233  16.498  -3.681  0.00  0.00     0.037 A 
ATOM      8  C15 NON d   1     -44.180  17.448  -3.915  0.00  0.00    -0.017 A 
ATOM      9  C16 NON d   1     -43.011  17.721  -3.168  0.00  0.00     0.030 A 
ENDROOT
BRANCH   1  10
ATOM     10  C7  NON d   1     -40.931  18.982  -2.698  0.00  0.00     0.251 C 
ATOM     11  N1  NON d   1     -40.691  20.289  -2.319  0.00  0.00    -0.353 N 
ATOM     12  H8  NON d   1     -41.074  21.028  -2.891  0.00  0.00     0.163 HD
ATOM     13  O2  NON d   1     -40.206  18.050  -2.361  0.00  0.00    -0.268 OA
BRANCH  11  14
ATOM     14  C6  NON d   1     -39.500  20.585  -1.548  0.00  0.00     0.161 C 
BRANCH  14  15
ATOM     15  C5  NON d   1     -38.936  21.975  -1.715  0.00  0.00    -0.040 A 
ATOM     16  C4  NON d   1     -37.727  22.409  -1.162  0.00  0.00     0.011 A 
ATOM     17  C3  NON d   1     -37.285  23.722  -1.364  0.00  0.00     0.037 A 
ATOM     18  C2  NON d   1     -38.029  24.622  -2.130  0.00  0.00     0.068 A 
ATOM     19  C18 NON d   1     -39.219  24.193  -2.709  0.00  0.00     0.037 A 
ATOM     20  C17 NON d   1     -39.667  22.884  -2.500  0.00  0.00     0.011 A 
BRANCH  18  21
ATOM     21  O1  NON d   1     -37.486  25.872  -2.238  0.00  0.00    -0.356 OA
ATOM     22  C1  NON d   1     -36.638  26.106  -3.356  0.00  0.00     0.210 C 
ENDBRANCH  18  21
ENDBRANCH  14  15
ENDBRANCH  11  14
ENDBRANCH   1  10
BRANCH   6  23
ATOM     23  C13 NON d   1     -47.439  15.733  -4.752  0.00  0.00     0.281 C 
ATOM     24  O3  NON d   1     -47.964  15.380  -5.810  0.00  0.00    -0.265 OA
ATOM     25  N2  NON d   1     -48.026  15.378  -3.551  0.00  0.00    -0.233 N 
ATOM     26  H11 NON d   1     -47.823  15.840  -2.674  0.00  0.00     0.197 HD
BRANCH  25  27
ATOM     27  O4  NON d   1     -49.265  14.700  -3.632  0.00  0.00    -0.287 OA
ATOM     28  H12 NON d   1     -49.289  14.413  -4.572  0.00  0.00     0.244 HD
ENDBRANCH  25  27
ENDBRANCH   6  23
TORSDOF 6
ENDMDL
