MODEL 1
REMARK VINA RESULT:   -32.555      0.000      0.000
REMARK INTER + INTRA:         -36.335
REMARK INTER:                 -34.643
REMARK INTRA:                  -1.691
REMARK CONF_INDEPENDENT:        2.088
REMARK UNBOUND:                -1.691
REMARK  7 active torsions:
REMARK  status: ('A' for Active; 'I' for Inactive)
REMARK    1  A    between atoms: N1_4  and  C4_5 
REMARK    2  A    between atoms: C7_8  and  C8_9 
REMARK       I    between atoms: C8_9  and  N2_11 
REMARK    3  A    between atoms: N2_11  and  C9_12 
REMARK    4  A    between atoms: C14_17  and  N3_18 
REMARK       I    between atoms: N5_23  and  C18_24 
REMARK    5  A    between atoms: C18_24  and  O3_26 
REMARK    6  A    between atoms: O3_26  and  C19_27 
REMARK    7  A    between atoms: C19_27  and  C20_28 
ROOT
ATOM      1  C4  NON d   1     -41.460  19.224  -5.439  0.00  0.00     0.125 A 
ATOM      2  C5  NON d   1     -41.458  17.831  -5.430  0.00  0.00     0.051 A 
ATOM      3  C6  NON d   1     -42.650  17.116  -5.271  0.00  0.00     0.022 A 
ATOM      4  C7  NON d   1     -43.862  17.783  -5.106  0.00  0.00     0.050 A 
ATOM      5  C15 NON d   1     -43.796  19.161  -5.102  0.00  0.00     0.136 A 
ATOM      6  N4  NON d   1     -42.639  19.875  -5.261  0.00  0.00    -0.242 NA
ENDROOT
BRANCH   1   7
ATOM      7  N1  NON d   1     -40.308  19.969  -5.659  0.00  0.00    -0.362 N 
ATOM      8  C3  NON d   1     -39.390  19.750  -6.780  0.00  0.00     0.149 C 
ATOM      9  C2  NON d   1     -38.685  21.069  -7.191  0.00  0.00     0.103 C 
ATOM     10  C1  NON d   1     -37.958  20.980  -8.545  0.00  0.00     0.034 C 
ATOM     11  N5  NON d   1     -37.894  21.618  -6.075  0.00  0.00    -0.321 N 
ATOM     12  C17 NON d   1     -38.547  21.603  -4.761  0.00  0.00     0.148 C 
ATOM     13  C18 NON d   1     -36.809  22.490  -6.177  0.00  0.00     0.363 C 
ATOM     14  C16 NON d   1     -39.906  20.886  -4.588  0.00  0.00     0.144 C 
ATOM     15  O2  NON d   1     -36.349  23.082  -5.203  0.00  0.00    -0.238 OA
BRANCH  13  16
ATOM     16  O3  NON d   1     -36.298  22.637  -7.433  0.00  0.00    -0.299 OA
BRANCH  16  17
ATOM     17  C19 NON d   1     -36.377  23.989  -7.920  0.00  0.00     0.219 C 
BRANCH  17  18
ATOM     18  C20 NON d   1     -37.519  24.229  -8.890  0.00  0.00    -0.034 A 
ATOM     19  C21 NON d   1     -38.820  24.390  -8.388  0.00  0.00     0.009 A 
ATOM     20  C22 NON d   1     -39.898  24.621  -9.248  0.00  0.00     0.001 A 
ATOM     21  C23 NON d   1     -39.692  24.694 -10.624  0.00  0.00     0.000 A 
ATOM     22  C24 NON d   1     -38.412  24.530 -11.138  0.00  0.00     0.001 A 
ATOM     23  C25 NON d   1     -37.340  24.294 -10.273  0.00  0.00     0.009 A 
ENDBRANCH  17  18
ENDBRANCH  16  17
ENDBRANCH  13  16
ENDBRANCH   1   7
BRANCH   4  24
ATOM     24  C8  NON d   1     -45.105  16.969  -5.015  0.00  0.00     0.257 C 
ATOM     25  O1  NON d   1     -45.200  16.035  -5.810  0.00  0.00    -0.267 OA
ATOM     26  N2  NON d   1     -46.053  17.305  -4.066  0.00  0.00    -0.321 N 
ATOM     27  H9  NON d   1     -45.898  18.079  -3.431  0.00  0.00     0.169 HD
BRANCH  26  28
ATOM     28  C9  NON d   1     -47.244  16.582  -3.769  0.00  0.00     0.056 A 
ATOM     29  C10 NON d   1     -47.760  16.423  -2.479  0.00  0.00     0.031 A 
ATOM     30  C11 NON d   1     -48.977  15.768  -2.269  0.00  0.00     0.002 A 
ATOM     31  C12 NON d   1     -49.699  15.271  -3.348  0.00  0.00     0.002 A 
ATOM     32  C13 NON d   1     -49.196  15.410  -4.641  0.00  0.00     0.025 A 
ATOM     33  C14 NON d   1     -47.960  16.040  -4.860  0.00  0.00     0.033 A 
BRANCH  33  34
ATOM     34  N3  NON d   1     -47.440  16.130  -6.176  0.00  0.00    -0.301 NA
ATOM     35  H14 NON d   1     -47.073  17.066  -6.334  0.00  0.00     0.124 HD
ATOM     36  H15 NON d   1     -46.703  15.446  -6.336  0.00  0.00     0.124 HD
ENDBRANCH  33  34
ENDBRANCH  26  28
ENDBRANCH   4  24
TORSDOF 7
ENDMDL
MODEL 2
REMARK VINA RESULT:   -32.481      3.116      4.733
REMARK INTER + INTRA:         -36.036
REMARK INTER:                 -34.569
REMARK INTRA:                  -1.467
REMARK CONF_INDEPENDENT:        2.088
REMARK UNBOUND:                -1.467
REMARK  7 active torsions:
REMARK  status: ('A' for Active; 'I' for Inactive)
REMARK    1  A    between atoms: N1_4  and  C4_5 
REMARK    2  A    between atoms: C7_8  and  C8_9 
REMARK       I    between atoms: C8_9  and  N2_11 
REMARK    3  A    between atoms: N2_11  and  C9_12 
REMARK    4  A    between atoms: C14_17  and  N3_18 
REMARK       I    between atoms: N5_23  and  C18_24 
REMARK    5  A    between atoms: C18_24  and  O3_26 
REMARK    6  A    between atoms: O3_26  and  C19_27 
REMARK    7  A    between atoms: C19_27  and  C20_28 
ROOT
ATOM      1  C4  NON d   1     -41.748  19.257  -4.214  0.00  0.00     0.125 A 
ATOM      2  C5  NON d   1     -42.800  19.650  -5.038  0.00  0.00     0.051 A 
ATOM      3  C6  NON d   1     -43.920  18.831  -5.207  0.00  0.00     0.022 A 
ATOM      4  C7  NON d   1     -44.002  17.597  -4.565  0.00  0.00     0.050 A 
ATOM      5  C15 NON d   1     -42.920  17.254  -3.780  0.00  0.00     0.136 A 
ATOM      6  N4  NON d   1     -41.819  18.046  -3.600  0.00  0.00    -0.242 NA
ENDROOT
BRANCH   1   7
ATOM      7  N1  NON d   1     -40.649  20.070  -3.969  0.00  0.00    -0.362 N 
ATOM      8  C3  NON d   1     -40.374  21.317  -4.688  0.00  0.00     0.149 C 
ATOM      9  C2  NON d   1     -39.600  22.319  -3.792  0.00  0.00     0.103 C 
ATOM     10  C1  NON d   1     -39.557  23.748  -4.365  0.00  0.00     0.034 C 
ATOM     11  N5  NON d   1     -38.304  21.761  -3.368  0.00  0.00    -0.321 N 
ATOM     12  C17 NON d   1     -38.326  20.363  -2.924  0.00  0.00     0.148 C 
ATOM     13  C18 NON d   1     -37.181  22.484  -2.962  0.00  0.00     0.363 C 
ATOM     14  C16 NON d   1     -39.618  19.529  -3.078  0.00  0.00     0.144 C 
ATOM     15  O2  NON d   1     -36.223  21.952  -2.407  0.00  0.00    -0.238 OA
BRANCH  13  16
ATOM     16  O3  NON d   1     -37.225  23.821  -3.225  0.00  0.00    -0.299 OA
BRANCH  16  17
ATOM     17  C19 NON d   1     -37.494  24.619  -2.057  0.00  0.00     0.219 C 
BRANCH  17  18
ATOM     18  C20 NON d   1     -38.554  24.034  -1.142  0.00  0.00    -0.034 A 
ATOM     19  C21 NON d   1     -39.878  24.488  -1.252  0.00  0.00     0.009 A 
ATOM     20  C22 NON d   1     -40.885  23.968  -0.433  0.00  0.00     0.001 A 
ATOM     21  C23 NON d   1     -40.584  22.988   0.510  0.00  0.00     0.000 A 
ATOM     22  C24 NON d   1     -39.278  22.533   0.637  0.00  0.00     0.001 A 
ATOM     23  C25 NON d   1     -38.275  23.060  -0.181  0.00  0.00     0.009 A 
ENDBRANCH  17  18
ENDBRANCH  16  17
ENDBRANCH  13  16
ENDBRANCH   1   7
BRANCH   4  24
ATOM     24  C8  NON d   1     -45.250  16.803  -4.725  0.00  0.00     0.257 C 
ATOM     25  O1  NON d   1     -45.294  16.052  -5.699  0.00  0.00    -0.267 OA
ATOM     26  N2  NON d   1     -46.260  16.953  -3.791  0.00  0.00    -0.321 N 
ATOM     27  H9  NON d   1     -46.145  17.578  -3.002  0.00  0.00     0.169 HD
BRANCH  26  28
ATOM     28  C9  NON d   1     -47.470  16.205  -3.728  0.00  0.00     0.056 A 
ATOM     29  C10 NON d   1     -48.103  15.844  -2.534  0.00  0.00     0.031 A 
ATOM     30  C11 NON d   1     -49.331  15.177  -2.548  0.00  0.00     0.002 A 
ATOM     31  C12 NON d   1     -49.948  14.871  -3.755  0.00  0.00     0.002 A 
ATOM     32  C13 NON d   1     -49.328  15.213  -4.957  0.00  0.00     0.025 A 
ATOM     33  C14 NON d   1     -48.080  15.856  -4.954  0.00  0.00     0.033 A 
BRANCH  33  34
ATOM     34  N3  NON d   1     -47.440  16.154  -6.184  0.00  0.00    -0.301 NA
ATOM     35  H14 NON d   1     -47.015  17.077  -6.132  0.00  0.00     0.124 HD
ATOM     36  H15 NON d   1     -46.726  15.465  -6.412  0.00  0.00     0.124 HD
ENDBRANCH  33  34
ENDBRANCH  26  28
ENDBRANCH   4  24
TORSDOF 7
ENDMDL
MODEL 3
REMARK VINA RESULT:   -32.469      0.752      1.202
REMARK INTER + INTRA:         -36.373
REMARK INTER:                 -34.557
REMARK INTRA:                  -1.816
REMARK CONF_INDEPENDENT:        2.088
REMARK UNBOUND:                -1.816
REMARK  7 active torsions:
REMARK  status: ('A' for Active; 'I' for Inactive)
REMARK    1  A    between atoms: N1_4  and  C4_5 
REMARK    2  A    between atoms: C7_8  and  C8_9 
REMARK       I    between atoms: C8_9  and  N2_11 
REMARK    3  A    between atoms: N2_11  and  C9_12 
REMARK    4  A    between atoms: C14_17  and  N3_18 
REMARK       I    between atoms: N5_23  and  C18_24 
REMARK    5  A    between atoms: C18_24  and  O3_26 
REMARK    6  A    between atoms: O3_26  and  C19_27 
REMARK    7  A    between atoms: C19_27  and  C20_28 
ROOT
ATOM      1  C4  NON d   1     -41.461  19.221  -5.370  0.00  0.00     0.125 A 
ATOM      2  C5  NON d   1     -41.455  17.835  -5.248  0.00  0.00     0.051 A 
ATOM      3  C6  NON d   1     -42.652  17.125  -5.108  0.00  0.00     0.022 A 
ATOM      4  C7  NON d   1     -43.875  17.792  -5.074  0.00  0.00     0.050 A 
ATOM      5  C15 NON d   1     -43.813  19.167  -5.178  0.00  0.00     0.136 A 
ATOM      6  N4  NON d   1     -42.651  19.875  -5.320  0.00  0.00    -0.242 NA
ENDROOT
BRANCH   1   7
ATOM      7  N1  NON d   1     -40.300  19.956  -5.575  0.00  0.00    -0.362 N 
ATOM      8  C3  NON d   1     -39.309  19.654  -6.612  0.00  0.00     0.149 C 
ATOM      9  C2  NON d   1     -38.583  20.941  -7.084  0.00  0.00     0.103 C 
ATOM     10  C1  NON d   1     -37.769  20.747  -8.376  0.00  0.00     0.034 C 
ATOM     11  N5  NON d   1     -37.870  21.587  -5.968  0.00  0.00    -0.321 N 
ATOM     12  C17 NON d   1     -38.607  21.674  -4.703  0.00  0.00     0.148 C 
ATOM     13  C18 NON d   1     -36.784  22.458  -6.071  0.00  0.00     0.363 C 
ATOM     14  C16 NON d   1     -39.972  20.962  -4.560  0.00  0.00     0.144 C 
ATOM     15  O2  NON d   1     -36.390  23.132  -5.122  0.00  0.00    -0.238 OA
BRANCH  13  16
ATOM     16  O3  NON d   1     -36.191  22.505  -7.299  0.00  0.00    -0.299 OA
BRANCH  16  17
ATOM     17  C19 NON d   1     -36.295  23.796  -7.926  0.00  0.00     0.219 C 
BRANCH  17  18
ATOM     18  C20 NON d   1     -37.664  24.438  -7.793  0.00  0.00    -0.034 A 
ATOM     19  C21 NON d   1     -38.715  23.981  -8.605  0.00  0.00     0.009 A 
ATOM     20  C22 NON d   1     -39.993  24.541  -8.507  0.00  0.00     0.001 A 
ATOM     21  C23 NON d   1     -40.239  25.567  -7.597  0.00  0.00     0.000 A 
ATOM     22  C24 NON d   1     -39.209  26.036  -6.792  0.00  0.00     0.001 A 
ATOM     23  C25 NON d   1     -37.932  25.476  -6.899  0.00  0.00     0.009 A 
ENDBRANCH  17  18
ENDBRANCH  16  17
ENDBRANCH  13  16
ENDBRANCH   1   7
BRANCH   4  24
ATOM     24  C8  NON d   1     -45.118  16.978  -4.998  0.00  0.00     0.257 C 
ATOM     25  O1  NON d   1     -45.208  16.049  -5.799  0.00  0.00    -0.267 OA
ATOM     26  N2  NON d   1     -46.073  17.307  -4.053  0.00  0.00    -0.321 N 
ATOM     27  H9  NON d   1     -45.922  18.077  -3.412  0.00  0.00     0.169 HD
BRANCH  26  28
ATOM     28  C9  NON d   1     -47.266  16.583  -3.769  0.00  0.00     0.056 A 
ATOM     29  C10 NON d   1     -47.796  16.423  -2.485  0.00  0.00     0.031 A 
ATOM     30  C11 NON d   1     -49.014  15.766  -2.288  0.00  0.00     0.002 A 
ATOM     31  C12 NON d   1     -49.723  15.267  -3.375  0.00  0.00     0.002 A 
ATOM     32  C13 NON d   1     -49.205  15.406  -4.663  0.00  0.00     0.025 A 
ATOM     33  C14 NON d   1     -47.969  16.038  -4.868  0.00  0.00     0.033 A 
BRANCH  33  34
ATOM     34  N3  NON d   1     -47.434  16.128  -6.177  0.00  0.00    -0.301 NA
ATOM     35  H14 NON d   1     -46.998  17.039  -6.306  0.00  0.00     0.124 HD
ATOM     36  H15 NON d   1     -46.748  15.397  -6.354  0.00  0.00     0.124 HD
ENDBRANCH  33  34
ENDBRANCH  26  28
ENDBRANCH   4  24
TORSDOF 7
ENDMDL
MODEL 4
REMARK VINA RESULT:   -31.934      1.819      2.367
REMARK INTER + INTRA:         -35.734
REMARK INTER:                 -34.022
REMARK INTRA:                  -1.712
REMARK CONF_INDEPENDENT:        2.088
REMARK UNBOUND:                -1.712
REMARK  7 active torsions:
REMARK  status: ('A' for Active; 'I' for Inactive)
REMARK    1  A    between atoms: N1_4  and  C4_5 
REMARK    2  A    between atoms: C7_8  and  C8_9 
REMARK       I    between atoms: C8_9  and  N2_11 
REMARK    3  A    between atoms: N2_11  and  C9_12 
REMARK    4  A    between atoms: C14_17  and  N3_18 
REMARK       I    between atoms: N5_23  and  C18_24 
REMARK    5  A    between atoms: C18_24  and  O3_26 
REMARK    6  A    between atoms: O3_26  and  C19_27 
REMARK    7  A    between atoms: C19_27  and  C20_28 
ROOT
ATOM      1  C4  NON d   1     -41.492  19.267  -4.968  0.00  0.00     0.125 A 
ATOM      2  C5  NON d   1     -42.747  19.860  -5.072  0.00  0.00     0.051 A 
ATOM      3  C6  NON d   1     -43.907  19.078  -5.090  0.00  0.00     0.022 A 
ATOM      4  C7  NON d   1     -43.829  17.689  -5.018  0.00  0.00     0.050 A 
ATOM      5  C15 NON d   1     -42.557  17.160  -4.939  0.00  0.00     0.136 A 
ATOM      6  N4  NON d   1     -41.413  17.911  -4.915  0.00  0.00    -0.242 NA
ENDROOT
BRANCH   1   7
ATOM      7  N1  NON d   1     -40.322  20.011  -4.881  0.00  0.00    -0.362 N 
ATOM      8  C3  NON d   1     -39.448  20.304  -6.020  0.00  0.00     0.149 C 
ATOM      9  C2  NON d   1     -38.709  21.654  -5.826  0.00  0.00     0.103 C 
ATOM     10  C1  NON d   1     -38.029  22.171  -7.108  0.00  0.00     0.034 C 
ATOM     11  N5  NON d   1     -37.865  21.628  -4.620  0.00  0.00    -0.321 N 
ATOM     12  C17 NON d   1     -38.476  21.035  -3.425  0.00  0.00     0.148 C 
ATOM     13  C18 NON d   1     -36.753  22.434  -4.367  0.00  0.00     0.363 C 
ATOM     14  C16 NON d   1     -39.853  20.342  -3.532  0.00  0.00     0.144 C 
ATOM     15  O2  NON d   1     -36.241  22.517  -3.253  0.00  0.00    -0.238 OA
BRANCH  13  16
ATOM     16  O3  NON d   1     -36.277  23.120  -5.445  0.00  0.00    -0.299 OA
BRANCH  16  17
ATOM     17  C19 NON d   1     -36.375  24.549  -5.293  0.00  0.00     0.219 C 
BRANCH  17  18
ATOM     18  C20 NON d   1     -37.777  25.095  -5.490  0.00  0.00    -0.034 A 
ATOM     19  C21 NON d   1     -38.059  25.858  -6.635  0.00  0.00     0.009 A 
ATOM     20  C22 NON d   1     -39.340  26.372  -6.857  0.00  0.00     0.001 A 
ATOM     21  C23 NON d   1     -40.359  26.132  -5.938  0.00  0.00     0.000 A 
ATOM     22  C24 NON d   1     -40.096  25.385  -4.797  0.00  0.00     0.001 A 
ATOM     23  C25 NON d   1     -38.812  24.878  -4.578  0.00  0.00     0.009 A 
ENDBRANCH  17  18
ENDBRANCH  16  17
ENDBRANCH  13  16
ENDBRANCH   1   7
BRANCH   4  24
ATOM     24  C8  NON d   1     -45.100  16.916  -4.968  0.00  0.00     0.257 C 
ATOM     25  O1  NON d   1     -45.220  16.017  -5.799  0.00  0.00    -0.267 OA
ATOM     26  N2  NON d   1     -46.043  17.247  -4.012  0.00  0.00    -0.321 N 
ATOM     27  H9  NON d   1     -45.866  17.989  -3.347  0.00  0.00     0.169 HD
BRANCH  26  28
ATOM     28  C9  NON d   1     -47.261  16.555  -3.753  0.00  0.00     0.056 A 
ATOM     29  C10 NON d   1     -47.798  16.374  -2.474  0.00  0.00     0.031 A 
ATOM     30  C11 NON d   1     -49.038  15.753  -2.299  0.00  0.00     0.002 A 
ATOM     31  C12 NON d   1     -49.762  15.312  -3.401  0.00  0.00     0.002 A 
ATOM     32  C13 NON d   1     -49.238  15.473  -4.683  0.00  0.00     0.025 A 
ATOM     33  C14 NON d   1     -47.980  16.069  -4.868  0.00  0.00     0.033 A 
BRANCH  33  34
ATOM     34  N3  NON d   1     -47.440  16.181  -6.174  0.00  0.00    -0.301 NA
ATOM     35  H14 NON d   1     -46.947  17.068  -6.264  0.00  0.00     0.124 HD
ATOM     36  H15 NON d   1     -46.801  15.417  -6.383  0.00  0.00     0.124 HD
ENDBRANCH  33  34
ENDBRANCH  26  28
ENDBRANCH   4  24
TORSDOF 7
ENDMDL
MODEL 5
REMARK VINA RESULT:   -31.757      1.590      2.287
REMARK INTER + INTRA:         -35.332
REMARK INTER:                 -33.846
REMARK INTRA:                  -1.487
REMARK CONF_INDEPENDENT:        2.088
REMARK UNBOUND:                -1.487
REMARK  7 active torsions:
REMARK  status: ('A' for Active; 'I' for Inactive)
REMARK    1  A    between atoms: N1_4  and  C4_5 
REMARK    2  A    between atoms: C7_8  and  C8_9 
REMARK       I    between atoms: C8_9  and  N2_11 
REMARK    3  A    between atoms: N2_11  and  C9_12 
REMARK    4  A    between atoms: C14_17  and  N3_18 
REMARK       I    between atoms: N5_23  and  C18_24 
REMARK    5  A    between atoms: C18_24  and  O3_26 
REMARK    6  A    between atoms: O3_26  and  C19_27 
REMARK    7  A    between atoms: C19_27  and  C20_28 
ROOT
ATOM      1  C4  NON d   1     -41.135  19.324  -6.181  0.00  0.00     0.125 A 
ATOM      2  C5  NON d   1     -40.913  18.164  -5.443  0.00  0.00     0.051 A 
ATOM      3  C6  NON d   1     -41.956  17.556  -4.737  0.00  0.00     0.022 A 
ATOM      4  C7  NON d   1     -43.236  18.106  -4.747  0.00  0.00     0.050 A 
ATOM      5  C15 NON d   1     -43.388  19.266  -5.479  0.00  0.00     0.136 A 
ATOM      6  N4  NON d   1     -42.379  19.870  -6.179  0.00  0.00    -0.242 NA
ENDROOT
BRANCH   1   7
ATOM      7  N1  NON d   1     -40.142  19.920  -6.947  0.00  0.00    -0.362 N 
ATOM      8  C3  NON d   1     -40.076  21.356  -7.234  0.00  0.00     0.149 C 
ATOM      9  C2  NON d   1     -38.610  21.821  -7.431  0.00  0.00     0.103 C 
ATOM     10  C1  NON d   1     -38.444  23.352  -7.419  0.00  0.00     0.034 C 
ATOM     11  N5  NON d   1     -37.977  21.118  -8.561  0.00  0.00    -0.321 N 
ATOM     12  C17 NON d   1     -38.225  19.673  -8.633  0.00  0.00     0.148 C 
ATOM     13  C18 NON d   1     -36.883  21.559  -9.306  0.00  0.00     0.363 C 
ATOM     14  C16 NON d   1     -39.233  19.018  -7.661  0.00  0.00     0.144 C 
ATOM     15  O2  NON d   1     -36.271  20.822 -10.075  0.00  0.00    -0.238 OA
BRANCH  13  16
ATOM     16  O3  NON d   1     -36.542  22.867  -9.118  0.00  0.00    -0.299 OA
BRANCH  16  17
ATOM     17  C19 NON d   1     -36.569  23.637 -10.334  0.00  0.00     0.219 C 
BRANCH  17  18
ATOM     18  C20 NON d   1     -37.874  23.533 -11.102  0.00  0.00    -0.034 A 
ATOM     19  C21 NON d   1     -38.024  22.516 -12.059  0.00  0.00     0.009 A 
ATOM     20  C22 NON d   1     -39.214  22.382 -12.782  0.00  0.00     0.001 A 
ATOM     21  C23 NON d   1     -40.271  23.261 -12.559  0.00  0.00     0.000 A 
ATOM     22  C24 NON d   1     -40.137  24.277 -11.621  0.00  0.00     0.001 A 
ATOM     23  C25 NON d   1     -38.943  24.409 -10.906  0.00  0.00     0.009 A 
ENDBRANCH  17  18
ENDBRANCH  16  17
ENDBRANCH  13  16
ENDBRANCH   1   7
BRANCH   4  24
ATOM     24  C8  NON d   1     -44.321  17.374  -4.038  0.00  0.00     0.257 C 
ATOM     25  O1  NON d   1     -43.986  16.750  -3.032  0.00  0.00    -0.267 OA
ATOM     26  N2  NON d   1     -45.608  17.438  -4.541  0.00  0.00    -0.321 N 
ATOM     27  H9  NON d   1     -45.813  17.988  -5.366  0.00  0.00     0.169 HD
BRANCH  26  28
ATOM     28  C9  NON d   1     -46.777  16.891  -3.941  0.00  0.00     0.056 A 
ATOM     29  C10 NON d   1     -47.062  16.967  -2.574  0.00  0.00     0.031 A 
ATOM     30  C11 NON d   1     -48.267  16.477  -2.064  0.00  0.00     0.002 A 
ATOM     31  C12 NON d   1     -49.209  15.912  -2.916  0.00  0.00     0.002 A 
ATOM     32  C13 NON d   1     -48.939  15.816  -4.281  0.00  0.00     0.025 A 
ATOM     33  C14 NON d   1     -47.719  16.279  -4.798  0.00  0.00     0.033 A 
BRANCH  33  34
ATOM     34  N3  NON d   1     -47.440  16.130  -6.180  0.00  0.00    -0.301 NA
ATOM     35  H14 NON d   1     -48.287  15.852  -6.671  0.00  0.00     0.124 HD
ATOM     36  H15 NON d   1     -47.081  16.992  -6.586  0.00  0.00     0.124 HD
ENDBRANCH  33  34
ENDBRANCH  26  28
ENDBRANCH   4  24
TORSDOF 7
ENDMDL
MODEL 6
REMARK VINA RESULT:   -30.394      1.139      1.989
REMARK INTER + INTRA:         -33.957
REMARK INTER:                 -32.482
REMARK INTRA:                  -1.475
REMARK CONF_INDEPENDENT:        2.088
REMARK UNBOUND:                -1.475
REMARK  7 active torsions:
REMARK  status: ('A' for Active; 'I' for Inactive)
REMARK    1  A    between atoms: N1_4  and  C4_5 
REMARK    2  A    between atoms: C7_8  and  C8_9 
REMARK       I    between atoms: C8_9  and  N2_11 
REMARK    3  A    between atoms: N2_11  and  C9_12 
REMARK    4  A    between atoms: C14_17  and  N3_18 
REMARK       I    between atoms: N5_23  and  C18_24 
REMARK    5  A    between atoms: C18_24  and  O3_26 
REMARK    6  A    between atoms: O3_26  and  C19_27 
REMARK    7  A    between atoms: C19_27  and  C20_28 
ROOT
ATOM      1  C4  NON d   1     -41.181  19.473  -5.794  0.00  0.00     0.125 A 
ATOM      2  C5  NON d   1     -42.519  19.808  -5.985  0.00  0.00     0.051 A 
ATOM      3  C6  NON d   1     -43.537  19.029  -5.425  0.00  0.00     0.022 A 
ATOM      4  C7  NON d   1     -43.234  17.894  -4.677  0.00  0.00     0.050 A 
ATOM      5  C15 NON d   1     -41.892  17.603  -4.541  0.00  0.00     0.136 A 
ATOM      6  N4  NON d   1     -40.884  18.357  -5.078  0.00  0.00    -0.242 NA
ENDROOT
BRANCH   1   7
ATOM      7  N1  NON d   1     -40.141  20.256  -6.277  0.00  0.00    -0.362 N 
ATOM      8  C3  NON d   1     -39.895  21.641  -5.866  0.00  0.00     0.149 C 
ATOM      9  C2  NON d   1     -38.387  21.991  -5.952  0.00  0.00     0.103 C 
ATOM     10  C1  NON d   1     -38.021  23.308  -5.243  0.00  0.00     0.034 C 
ATOM     11  N5  NON d   1     -37.886  21.846  -7.330  0.00  0.00    -0.321 N 
ATOM     12  C17 NON d   1     -38.323  20.643  -8.046  0.00  0.00     0.148 C 
ATOM     13  C18 NON d   1     -36.765  22.474  -7.876  0.00  0.00     0.363 C 
ATOM     14  C16 NON d   1     -39.380  19.712  -7.407  0.00  0.00     0.144 C 
ATOM     15  O2  NON d   1     -36.279  22.131  -8.951  0.00  0.00    -0.238 OA
BRANCH  13  16
ATOM     16  O3  NON d   1     -36.250  23.494  -7.132  0.00  0.00    -0.299 OA
BRANCH  16  17
ATOM     17  C19 NON d   1     -36.436  24.786  -7.739  0.00  0.00     0.219 C 
BRANCH  17  18
ATOM     18  C20 NON d   1     -37.786  24.964  -8.409  0.00  0.00    -0.034 A 
ATOM     19  C21 NON d   1     -37.939  24.581  -9.751  0.00  0.00     0.009 A 
ATOM     20  C22 NON d   1     -39.169  24.722 -10.402  0.00  0.00     0.001 A 
ATOM     21  C23 NON d   1     -40.264  25.247  -9.721  0.00  0.00     0.000 A 
ATOM     22  C24 NON d   1     -40.129  25.637  -8.395  0.00  0.00     0.001 A 
ATOM     23  C25 NON d   1     -38.896  25.499  -7.752  0.00  0.00     0.009 A 
ENDBRANCH  17  18
ENDBRANCH  16  17
ENDBRANCH  13  16
ENDBRANCH   1   7
BRANCH   4  24
ATOM     24  C8  NON d   1     -44.357  17.148  -4.046  0.00  0.00     0.257 C 
ATOM     25  O1  NON d   1     -44.046  16.327  -3.184  0.00  0.00    -0.267 OA
ATOM     26  N2  NON d   1     -45.649  17.417  -4.458  0.00  0.00    -0.321 N 
ATOM     27  H9  NON d   1     -45.831  18.121  -5.162  0.00  0.00     0.169 HD
BRANCH  26  28
ATOM     28  C9  NON d   1     -46.843  16.879  -3.898  0.00  0.00     0.056 A 
ATOM     29  C10 NON d   1     -47.171  16.954  -2.540  0.00  0.00     0.031 A 
ATOM     30  C11 NON d   1     -48.397  16.474  -2.071  0.00  0.00     0.002 A 
ATOM     31  C12 NON d   1     -49.316  15.920  -2.956  0.00  0.00     0.002 A 
ATOM     32  C13 NON d   1     -49.003  15.825  -4.311  0.00  0.00     0.025 A 
ATOM     33  C14 NON d   1     -47.762  16.278  -4.788  0.00  0.00     0.033 A 
BRANCH  33  34
ATOM     34  N3  NON d   1     -47.440  16.131  -6.160  0.00  0.00    -0.301 NA
ATOM     35  H14 NON d   1     -48.121  15.521  -6.607  0.00  0.00     0.124 HD
ATOM     36  H15 NON d   1     -47.423  17.028  -6.640  0.00  0.00     0.124 HD
ENDBRANCH  33  34
ENDBRANCH  26  28
ENDBRANCH   4  24
TORSDOF 7
ENDMDL
