MODEL 1
REMARK VINA RESULT:    -6.670      0.000      0.000
REMARK INTER + INTRA:          -7.988
REMARK INTER:                  -7.267
REMARK INTRA:                  -0.721
REMARK CONF_INDEPENDENT:        0.597
REMARK UNBOUND:                -0.721
REMARK  2 active torsions:
REMARK  status: ('A' for Active; 'I' for Inactive)
REMARK    1  A    between atoms: C14_20  and  C15_21 
REMARK    2  A    between atoms: C20_30  and  C21_31 
ROOT
ATOM      1  C1  NON d   1     -38.310  21.380 -12.391  0.00  0.00     0.038 C 
ATOM      2  C2  NON d   1     -38.226  22.285 -11.194  0.00  0.00     0.004 C 
ATOM      3  C3  NON d   1     -38.883  22.187 -10.013  0.00  0.00     0.099 C 
ATOM      4  N1  NON d   1     -39.940  21.317  -9.876  0.00  0.00    -0.321 N 
ATOM      5  C4  NON d   1     -40.511  20.681  -8.809  0.00  0.00     0.245 C 
ATOM      6  O1  NON d   1     -41.748  20.596  -8.810  0.00  0.00    -0.271 OA
ATOM      7  C5  NON d   1     -39.704  19.869  -7.746  0.00  0.00     0.187 C 
ATOM      8  C6  NON d   1     -38.182  20.101  -7.783  0.00  0.00     0.120 C 
ATOM      9  S1  NON d   1     -37.012  18.714  -7.300  0.00  0.00    -0.095 SA
ATOM     10  S2  NON d   1     -36.529  18.919  -5.268  0.00  0.00    -0.097 SA
ATOM     11  C7  NON d   1     -36.719  20.693  -5.134  0.00  0.00     0.090 C 
ATOM     12  C8  NON d   1     -36.901  21.500  -3.863  0.00  0.00     0.038 C 
ATOM     13  C9  NON d   1     -37.781  22.730  -4.140  0.00  0.00    -0.027 C 
ATOM     14  C10 NON d   1     -38.907  22.655  -4.891  0.00  0.00     0.002 C 
ATOM     15  C11 NON d   1     -40.174  23.436  -4.793  0.00  0.00     0.163 C 
ATOM     16  C12 NON d   1     -40.691  23.320  -3.342  0.00  0.00     0.139 C 
ATOM     17  C13 NON d   1     -40.690  21.853  -2.876  0.00  0.00     0.221 C 
ATOM     18  O2  NON d   1     -40.147  21.495  -1.838  0.00  0.00    -0.274 OA
ATOM     19  N2  NON d   1     -41.256  20.933  -3.768  0.00  0.00    -0.347 N 
ATOM     20  C14 NON d   1     -40.598  19.617  -3.929  0.00  0.00     0.180 C 
ATOM     21  C18 NON d   1     -40.331  19.153  -5.424  0.00  0.00     0.241 C 
ATOM     22  O3  NON d   1     -39.940  18.005  -5.675  0.00  0.00    -0.271 OA
ATOM     23  N3  NON d   1     -40.354  20.104  -6.421  0.00  0.00    -0.345 N 
ATOM     24  O4  NON d   1     -40.158  24.760  -5.340  0.00  0.00    -0.310 OA
ATOM     25  C19 NON d   1     -38.997  25.266  -5.813  0.00  0.00     0.282 C 
ATOM     26  O5  NON d   1     -38.377  26.106  -5.165  0.00  0.00    -0.263 OA
ATOM     27  C20 NON d   1     -38.618  24.897  -7.287  0.00  0.00     0.188 C 
ATOM     28  N4  NON d   1     -39.196  23.736  -8.039  0.00  0.00    -0.342 N 
ATOM     29  C24 NON d   1     -38.338  23.106  -8.937  0.00  0.00     0.268 C 
ATOM     30  O6  NON d   1     -37.121  23.327  -8.922  0.00  0.00    -0.266 OA
ATOM     31  H5  NON d   1     -40.523  21.241 -10.705  0.00  0.00     0.169 HD
ATOM     32  H18 NON d   1     -42.266  20.918  -3.723  0.00  0.00     0.163 HD
ATOM     33  H27 NON d   1     -41.234  20.610  -6.450  0.00  0.00     0.163 HD
ATOM     34  H36 NON d   1     -40.195  23.725  -8.205  0.00  0.00     0.163 HD
ENDROOT
BRANCH  20  35
ATOM     35  C15 NON d   1     -41.173  18.434  -3.097  0.00  0.00     0.009 C 
ATOM     36  C16 NON d   1     -40.175  17.418  -2.540  0.00  0.00     0.012 C 
ATOM     37  C17 NON d   1     -42.217  17.678  -3.939  0.00  0.00     0.012 C 
ENDBRANCH  20  35
BRANCH  27  38
ATOM     38  C21 NON d   1     -38.670  26.175  -8.210  0.00  0.00     0.010 C 
ATOM     39  C22 NON d   1     -37.413  26.411  -9.054  0.00  0.00     0.012 C 
ATOM     40  C23 NON d   1     -39.917  26.160  -9.105  0.00  0.00     0.012 C 
ENDBRANCH  27  38
TORSDOF 2
ENDMDL
MODEL 2
REMARK VINA RESULT:    -5.535      2.283      3.734
REMARK INTER + INTRA:          -6.715
REMARK INTER:                  -6.132
REMARK INTRA:                  -0.583
REMARK CONF_INDEPENDENT:        0.597
REMARK UNBOUND:                -0.583
REMARK  2 active torsions:
REMARK  status: ('A' for Active; 'I' for Inactive)
REMARK    1  A    between atoms: C14_20  and  C15_21 
REMARK    2  A    between atoms: C20_30  and  C21_31 
ROOT
ATOM      1  C1  NON d   1     -39.565  18.005  -8.435  0.00  0.00     0.038 C 
ATOM      2  C2  NON d   1     -39.414  19.490  -8.253  0.00  0.00     0.004 C 
ATOM      3  C3  NON d   1     -39.849  20.265  -7.231  0.00  0.00     0.099 C 
ATOM      4  N1  NON d   1     -40.737  19.762  -6.307  0.00  0.00    -0.321 N 
ATOM      5  C4  NON d   1     -41.031  20.074  -5.009  0.00  0.00     0.245 C 
ATOM      6  O1  NON d   1     -42.227  20.034  -4.686  0.00  0.00    -0.271 OA
ATOM      7  C5  NON d   1     -39.955  20.236  -3.888  0.00  0.00     0.187 C 
ATOM      8  C6  NON d   1     -38.507  20.348  -4.401  0.00  0.00     0.120 C 
ATOM      9  S1  NON d   1     -37.091  19.687  -3.359  0.00  0.00    -0.095 SA
ATOM     10  S2  NON d   1     -36.317  21.259  -2.204  0.00  0.00    -0.097 SA
ATOM     11  C7  NON d   1     -36.729  22.613  -3.297  0.00  0.00     0.090 C 
ATOM     12  C8  NON d   1     -36.811  24.085  -2.941  0.00  0.00     0.038 C 
ATOM     13  C9  NON d   1     -37.889  24.775  -3.794  0.00  0.00    -0.027 C 
ATOM     14  C10 NON d   1     -39.100  24.211  -4.018  0.00  0.00     0.002 C 
ATOM     15  C11 NON d   1     -40.431  24.854  -4.218  0.00  0.00     0.163 C 
ATOM     16  C12 NON d   1     -40.682  25.804  -3.027  0.00  0.00     0.139 C 
ATOM     17  C13 NON d   1     -40.400  25.094  -1.691  0.00  0.00     0.221 C 
ATOM     18  O2  NON d   1     -39.650  25.563  -0.844  0.00  0.00    -0.274 OA
ATOM     19  N2  NON d   1     -40.969  23.822  -1.547  0.00  0.00    -0.347 N 
ATOM     20  C14 NON d   1     -40.169  22.765  -0.890  0.00  0.00     0.180 C 
ATOM     21  C18 NON d   1     -40.087  21.377  -1.657  0.00  0.00     0.241 C 
ATOM     22  O3  NON d   1     -39.586  20.380  -1.120  0.00  0.00    -0.271 OA
ATOM     23  N3  NON d   1     -40.406  21.348  -2.997  0.00  0.00    -0.345 N 
ATOM     24  O4  NON d   1     -40.690  25.405  -5.515  0.00  0.00    -0.310 OA
ATOM     25  C19 NON d   1     -39.705  25.411  -6.440  0.00  0.00     0.282 C 
ATOM     26  O5  NON d   1     -39.111  26.453  -6.707  0.00  0.00    -0.263 OA
ATOM     27  C20 NON d   1     -39.524  24.104  -7.283  0.00  0.00     0.188 C 
ATOM     28  N4  NON d   1     -40.049  22.760  -6.874  0.00  0.00    -0.342 N 
ATOM     29  C24 NON d   1     -39.270  21.666  -7.242  0.00  0.00     0.268 C 
ATOM     30  O6  NON d   1     -38.110  21.813  -7.645  0.00  0.00    -0.266 OA
ATOM     31  H5  NON d   1     -41.431  19.133  -6.701  0.00  0.00     0.169 HD
ATOM     32  H18 NON d   1     -41.946  23.860  -1.290  0.00  0.00     0.163 HD
ATOM     33  H27 NON d   1     -41.341  21.701  -3.178  0.00  0.00     0.163 HD
ATOM     34  H36 NON d   1     -41.050  22.651  -6.766  0.00  0.00     0.163 HD
ENDROOT
BRANCH  20  35
ATOM     35  C15 NON d   1     -40.429  22.524   0.625  0.00  0.00     0.009 C 
ATOM     36  C16 NON d   1     -41.065  23.665   1.419  0.00  0.00     0.012 C 
ATOM     37  C17 NON d   1     -39.109  22.130   1.313  0.00  0.00     0.012 C 
ENDBRANCH  20  35
BRANCH  27  38
ATOM     38  C21 NON d   1     -39.905  24.358  -8.792  0.00  0.00     0.010 C 
ATOM     39  C22 NON d   1     -40.315  25.798  -9.117  0.00  0.00     0.012 C 
ATOM     40  C23 NON d   1     -38.781  23.900  -9.732  0.00  0.00     0.012 C 
ENDBRANCH  27  38
TORSDOF 2
ENDMDL
MODEL 3
REMARK VINA RESULT:    -4.909      2.551      7.374
REMARK INTER + INTRA:          -6.130
REMARK INTER:                  -5.505
REMARK INTRA:                  -0.625
REMARK CONF_INDEPENDENT:        0.597
REMARK UNBOUND:                -0.625
REMARK  2 active torsions:
REMARK  status: ('A' for Active; 'I' for Inactive)
REMARK    1  A    between atoms: C14_20  and  C15_21 
REMARK    2  A    between atoms: C20_30  and  C21_31 
ROOT
ATOM      1  C1  NON d   1     -39.683  23.014   0.451  0.00  0.00     0.038 C 
ATOM      2  C2  NON d   1     -39.187  22.077  -0.615  0.00  0.00     0.004 C 
ATOM      3  C3  NON d   1     -39.536  22.025  -1.923  0.00  0.00     0.099 C 
ATOM      4  N1  NON d   1     -40.629  22.726  -2.379  0.00  0.00    -0.321 N 
ATOM      5  C4  NON d   1     -40.993  23.223  -3.599  0.00  0.00     0.245 C 
ATOM      6  O1  NON d   1     -42.192  23.129  -3.902  0.00  0.00    -0.271 OA
ATOM      7  C5  NON d   1     -40.059  24.095  -4.498  0.00  0.00     0.187 C 
ATOM      8  C6  NON d   1     -38.577  24.087  -4.077  0.00  0.00     0.120 C 
ATOM      9  S1  NON d   1     -37.513  25.606  -4.373  0.00  0.00    -0.095 SA
ATOM     10  S2  NON d   1     -36.517  25.381  -6.207  0.00  0.00    -0.097 SA
ATOM     11  C7  NON d   1     -36.437  23.594  -6.242  0.00  0.00     0.090 C 
ATOM     12  C8  NON d   1     -36.190  22.713  -7.450  0.00  0.00     0.038 C 
ATOM     13  C9  NON d   1     -36.946  21.381  -7.296  0.00  0.00    -0.027 C 
ATOM     14  C10 NON d   1     -38.223  21.327  -6.846  0.00  0.00     0.002 C 
ATOM     15  C11 NON d   1     -39.314  20.367  -7.184  0.00  0.00     0.163 C 
ATOM     16  C12 NON d   1     -39.463  20.341  -8.721  0.00  0.00     0.139 C 
ATOM     17  C13 NON d   1     -39.536  21.771  -9.288  0.00  0.00     0.221 C 
ATOM     18  O2  NON d   1     -38.802  22.156 -10.190  0.00  0.00    -0.274 OA
ATOM     19  N2  NON d   1     -40.420  22.639  -8.635  0.00  0.00    -0.347 N 
ATOM     20  C14 NON d   1     -39.999  24.041  -8.425  0.00  0.00     0.180 C 
ATOM     21  C18 NON d   1     -40.174  24.607  -6.952  0.00  0.00     0.241 C 
ATOM     22  O3  NON d   1     -40.010  25.809  -6.706  0.00  0.00    -0.271 OA
ATOM     23  N3  NON d   1     -40.322  23.709  -5.917  0.00  0.00    -0.345 N 
ATOM     24  O4  NON d   1     -39.263  19.086  -6.545  0.00  0.00    -0.310 OA
ATOM     25  C19 NON d   1     -38.202  18.775  -5.768  0.00  0.00     0.282 C 
ATOM     26  O5  NON d   1     -37.337  18.005  -6.180  0.00  0.00    -0.263 OA
ATOM     27  C20 NON d   1     -38.253  19.261  -4.281  0.00  0.00     0.188 C 
ATOM     28  N4  NON d   1     -39.145  20.360  -3.785  0.00  0.00    -0.342 N 
ATOM     29  C24 NON d   1     -38.627  21.146  -2.759  0.00  0.00     0.268 C 
ATOM     30  O6  NON d   1     -37.426  21.104  -2.464  0.00  0.00    -0.266 OA
ATOM     31  H5  NON d   1     -41.405  22.754  -1.723  0.00  0.00     0.169 HD
ATOM     32  H18 NON d   1     -41.380  22.505  -8.922  0.00  0.00     0.163 HD
ATOM     33  H27 NON d   1     -41.109  23.082  -6.061  0.00  0.00     0.163 HD
ATOM     34  H36 NON d   1     -40.147  20.234  -3.865  0.00  0.00     0.163 HD
ENDROOT
BRANCH  20  35
ATOM     35  C15 NON d   1     -40.496  25.090  -9.462  0.00  0.00     0.009 C 
ATOM     36  C16 NON d   1     -40.526  24.665 -10.931  0.00  0.00     0.012 C 
ATOM     37  C17 NON d   1     -39.646  26.368  -9.344  0.00  0.00     0.012 C 
ENDBRANCH  20  35
BRANCH  27  38
ATOM     38  C21 NON d   1     -38.368  18.032  -3.299  0.00  0.00     0.010 C 
ATOM     39  C22 NON d   1     -37.289  17.974  -2.212  0.00  0.00     0.012 C 
ATOM     40  C23 NON d   1     -39.765  17.958  -2.666  0.00  0.00     0.012 C 
ENDBRANCH  27  38
TORSDOF 2
ENDMDL
MODEL 4
REMARK VINA RESULT:    -4.462      2.445      4.150
REMARK INTER + INTRA:          -5.510
REMARK INTER:                  -5.058
REMARK INTRA:                  -0.451
REMARK CONF_INDEPENDENT:        0.597
REMARK UNBOUND:                -0.451
REMARK  2 active torsions:
REMARK  status: ('A' for Active; 'I' for Inactive)
REMARK    1  A    between atoms: C14_20  and  C15_21 
REMARK    2  A    between atoms: C20_30  and  C21_31 
ROOT
ATOM      1  C1  NON d   1     -38.702  18.357  -7.969  0.00  0.00     0.038 C 
ATOM      2  C2  NON d   1     -38.676  19.860  -8.015  0.00  0.00     0.004 C 
ATOM      3  C3  NON d   1     -39.244  20.741  -7.157  0.00  0.00     0.099 C 
ATOM      4  N1  NON d   1     -40.161  20.311  -6.225  0.00  0.00    -0.321 N 
ATOM      5  C4  NON d   1     -40.575  20.791  -5.014  0.00  0.00     0.245 C 
ATOM      6  O1  NON d   1     -41.786  20.698  -4.765  0.00  0.00    -0.271 OA
ATOM      7  C5  NON d   1     -39.603  21.212  -3.865  0.00  0.00     0.187 C 
ATOM      8  C6  NON d   1     -38.133  21.368  -4.296  0.00  0.00     0.120 C 
ATOM      9  S1  NON d   1     -36.755  20.996  -3.075  0.00  0.00    -0.095 SA
ATOM     10  S2  NON d   1     -36.190  22.786  -2.134  0.00  0.00    -0.097 SA
ATOM     11  C7  NON d   1     -36.617  23.918  -3.452  0.00  0.00     0.090 C 
ATOM     12  C8  NON d   1     -36.835  25.414  -3.338  0.00  0.00     0.038 C 
ATOM     13  C9  NON d   1     -37.893  25.872  -4.356  0.00  0.00    -0.027 C 
ATOM     14  C10 NON d   1     -39.039  25.179  -4.566  0.00  0.00     0.002 C 
ATOM     15  C11 NON d   1     -40.394  25.668  -4.950  0.00  0.00     0.163 C 
ATOM     16  C12 NON d   1     -40.805  26.764  -3.942  0.00  0.00     0.139 C 
ATOM     17  C13 NON d   1     -40.574  26.292  -2.495  0.00  0.00     0.221 C 
ATOM     18  O2  NON d   1     -39.928  26.947  -1.687  0.00  0.00    -0.274 OA
ATOM     19  N2  NON d   1     -41.057  25.013  -2.190  0.00  0.00    -0.347 N 
ATOM     20  C14 NON d   1     -40.233  24.140  -1.324  0.00  0.00     0.180 C 
ATOM     21  C18 NON d   1     -39.990  22.664  -1.855  0.00  0.00     0.241 C 
ATOM     22  O3  NON d   1     -39.458  21.807  -1.137  0.00  0.00    -0.271 OA
ATOM     23  N3  NON d   1     -40.202  22.404  -3.192  0.00  0.00    -0.345 N 
ATOM     24  O4  NON d   1     -40.593  25.992  -6.331  0.00  0.00    -0.310 OA
ATOM     25  C19 NON d   1     -39.543  25.941  -7.181  0.00  0.00     0.282 C 
ATOM     26  O5  NON d   1     -39.011  26.977  -7.570  0.00  0.00    -0.263 OA
ATOM     27  C20 NON d   1     -39.202  24.541  -7.793  0.00  0.00     0.188 C 
ATOM     28  N4  NON d   1     -39.656  23.235  -7.212  0.00  0.00    -0.342 N 
ATOM     29  C24 NON d   1     -38.772  22.168  -7.352  0.00  0.00     0.268 C 
ATOM     30  O6  NON d   1     -37.598  22.351  -7.699  0.00  0.00    -0.266 OA
ATOM     31  H5  NON d   1     -40.774  19.573  -6.558  0.00  0.00     0.169 HD
ATOM     32  H18 NON d   1     -42.050  25.006  -2.004  0.00  0.00     0.163 HD
ATOM     33  H27 NON d   1     -41.144  22.644  -3.486  0.00  0.00     0.163 HD
ATOM     34  H36 NON d   1     -40.651  23.059  -7.152  0.00  0.00     0.163 HD
ENDROOT
BRANCH  20  35
ATOM     35  C15 NON d   1     -40.589  24.111   0.191  0.00  0.00     0.009 C 
ATOM     36  C16 NON d   1     -41.336  22.882   0.712  0.00  0.00     0.012 C 
ATOM     37  C17 NON d   1     -41.407  25.365   0.549  0.00  0.00     0.012 C 
ENDBRANCH  20  35
BRANCH  27  38
ATOM     38  C21 NON d   1     -39.485  24.530  -9.345  0.00  0.00     0.010 C 
ATOM     39  C22 NON d   1     -39.921  25.878  -9.929  0.00  0.00     0.012 C 
ATOM     40  C23 NON d   1     -38.282  23.978 -10.122  0.00  0.00     0.012 C 
ENDBRANCH  27  38
TORSDOF 2
ENDMDL
MODEL 5
REMARK VINA RESULT:    -4.282      3.145      5.623
REMARK INTER + INTRA:          -5.341
REMARK INTER:                  -4.878
REMARK INTRA:                  -0.462
REMARK CONF_INDEPENDENT:        0.597
REMARK UNBOUND:                -0.462
REMARK  2 active torsions:
REMARK  status: ('A' for Active; 'I' for Inactive)
REMARK    1  A    between atoms: C14_20  and  C15_21 
REMARK    2  A    between atoms: C20_30  and  C21_31 
ROOT
ATOM      1  C1  NON d   1     -36.476  16.879  -4.129  0.00  0.00     0.038 C 
ATOM      2  C2  NON d   1     -36.758  18.223  -4.741  0.00  0.00     0.004 C 
ATOM      3  C3  NON d   1     -37.664  19.153  -4.356  0.00  0.00     0.099 C 
ATOM      4  N1  NON d   1     -38.643  18.834  -3.443  0.00  0.00    -0.321 N 
ATOM      5  C4  NON d   1     -39.392  19.564  -2.563  0.00  0.00     0.245 C 
ATOM      6  O1  NON d   1     -40.581  19.235  -2.439  0.00  0.00    -0.271 OA
ATOM      7  C5  NON d   1     -38.791  20.598  -1.558  0.00  0.00     0.187 C 
ATOM      8  C6  NON d   1     -37.330  20.993  -1.842  0.00  0.00     0.120 C 
ATOM      9  S1  NON d   1     -36.190  21.448  -0.421  0.00  0.00    -0.095 SA
ATOM     10  S2  NON d   1     -36.222  23.533  -0.175  0.00  0.00    -0.097 SA
ATOM     11  C7  NON d   1     -36.594  23.987  -1.865  0.00  0.00     0.090 C 
ATOM     12  C8  NON d   1     -37.141  25.314  -2.356  0.00  0.00     0.038 C 
ATOM     13  C9  NON d   1     -38.036  25.092  -3.587  0.00  0.00    -0.027 C 
ATOM     14  C10 NON d   1     -38.941  24.085  -3.647  0.00  0.00     0.002 C 
ATOM     15  C11 NON d   1     -40.259  24.026  -4.343  0.00  0.00     0.163 C 
ATOM     16  C12 NON d   1     -41.092  25.243  -3.884  0.00  0.00     0.139 C 
ATOM     17  C13 NON d   1     -41.072  25.372  -2.350  0.00  0.00     0.221 C 
ATOM     18  O2  NON d   1     -40.761  26.413  -1.784  0.00  0.00    -0.274 OA
ATOM     19  N2  NON d   1     -41.328  24.193  -1.638  0.00  0.00    -0.347 N 
ATOM     20  C14 NON d   1     -40.538  23.927  -0.416  0.00  0.00     0.180 C 
ATOM     21  C18 NON d   1     -39.884  22.483  -0.312  0.00  0.00     0.241 C 
ATOM     22  O3  NON d   1     -39.346  22.100   0.735  0.00  0.00    -0.271 OA
ATOM     23  N3  NON d   1     -39.755  21.737  -1.464  0.00  0.00    -0.345 N 
ATOM     24  O4  NON d   1     -40.230  23.794  -5.756  0.00  0.00    -0.310 OA
ATOM     25  C19 NON d   1     -39.040  23.745  -6.395  0.00  0.00     0.282 C 
ATOM     26  O5  NON d   1     -38.668  24.690  -7.085  0.00  0.00    -0.263 OA
ATOM     27  C20 NON d   1     -38.292  22.369  -6.383  0.00  0.00     0.188 C 
ATOM     28  N4  NON d   1     -38.571  21.268  -5.404  0.00  0.00    -0.342 N 
ATOM     29  C24 NON d   1     -37.473  20.500  -5.024  0.00  0.00     0.268 C 
ATOM     30  O6  NON d   1     -36.318  20.866  -5.276  0.00  0.00    -0.266 OA
ATOM     31  H5  NON d   1     -39.005  17.889  -3.538  0.00  0.00     0.169 HD
ATOM     32  H18 NON d   1     -42.314  23.979  -1.581  0.00  0.00     0.163 HD
ATOM     33  H27 NON d   1     -40.644  21.597  -1.934  0.00  0.00     0.163 HD
ATOM     34  H36 NON d   1     -39.497  20.859  -5.398  0.00  0.00     0.163 HD
ENDROOT
BRANCH  20  35
ATOM     35  C15 NON d   1     -41.186  24.318   0.943  0.00  0.00     0.009 C 
ATOM     36  C16 NON d   1     -41.817  25.707   1.046  0.00  0.00     0.012 C 
ATOM     37  C17 NON d   1     -40.145  24.173   2.067  0.00  0.00     0.012 C 
ENDBRANCH  20  35
BRANCH  27  38
ATOM     38  C21 NON d   1     -38.237  21.755  -7.835  0.00  0.00     0.010 C 
ATOM     39  C22 NON d   1     -36.877  21.171  -8.235  0.00  0.00     0.012 C 
ATOM     40  C23 NON d   1     -39.344  20.711  -8.037  0.00  0.00     0.012 C 
ENDBRANCH  27  38
TORSDOF 2
ENDMDL
MODEL 6
REMARK VINA RESULT:    -4.137      3.115      5.893
REMARK INTER + INTRA:          -5.258
REMARK INTER:                  -4.734
REMARK INTRA:                  -0.524
REMARK CONF_INDEPENDENT:        0.597
REMARK UNBOUND:                -0.524
REMARK  2 active torsions:
REMARK  status: ('A' for Active; 'I' for Inactive)
REMARK    1  A    between atoms: C14_20  and  C15_21 
REMARK    2  A    between atoms: C20_30  and  C21_31 
ROOT
ATOM      1  C1  NON d   1     -39.227  25.418 -11.253  0.00  0.00     0.038 C 
ATOM      2  C2  NON d   1     -39.400  24.230 -10.348  0.00  0.00     0.004 C 
ATOM      3  C3  NON d   1     -38.870  24.019  -9.119  0.00  0.00     0.099 C 
ATOM      4  N1  NON d   1     -37.864  24.831  -8.648  0.00  0.00    -0.321 N 
ATOM      5  C4  NON d   1     -37.428  25.169  -7.397  0.00  0.00     0.245 C 
ATOM      6  O1  NON d   1     -36.201  25.261  -7.243  0.00  0.00    -0.271 OA
ATOM      7  C5  NON d   1     -38.367  25.667  -6.252  0.00  0.00     0.187 C 
ATOM      8  C6  NON d   1     -39.868  25.441  -6.512  0.00  0.00     0.120 C 
ATOM      9  S1  NON d   1     -41.130  26.643  -5.813  0.00  0.00    -0.095 SA
ATOM     10  S2  NON d   1     -41.809  25.907  -3.968  0.00  0.00    -0.097 SA
ATOM     11  C7  NON d   1     -41.570  24.162  -4.281  0.00  0.00     0.090 C 
ATOM     12  C8  NON d   1     -41.490  23.051  -3.252  0.00  0.00     0.038 C 
ATOM     13  C9  NON d   1     -40.542  21.944  -3.744  0.00  0.00    -0.027 C 
ATOM     14  C10 NON d   1     -39.349  22.223  -4.324  0.00  0.00     0.002 C 
ATOM     15  C11 NON d   1     -38.071  21.454  -4.297  0.00  0.00     0.163 C 
ATOM     16  C12 NON d   1     -37.709  21.188  -2.819  0.00  0.00     0.139 C 
ATOM     17  C13 NON d   1     -37.810  22.482  -1.990  0.00  0.00     0.221 C 
ATOM     18  O2  NON d   1     -38.468  22.551  -0.959  0.00  0.00    -0.274 OA
ATOM     19  N2  NON d   1     -37.190  23.608  -2.545  0.00  0.00    -0.347 N 
ATOM     20  C14 NON d   1     -37.874  24.915  -2.428  0.00  0.00     0.180 C 
ATOM     21  C18 NON d   1     -38.005  25.753  -3.770  0.00  0.00     0.241 C 
ATOM     22  O3  NON d   1     -38.409  26.923  -3.755  0.00  0.00    -0.271 OA
ATOM     23  N3  NON d   1     -37.847  25.098  -4.972  0.00  0.00    -0.345 N 
ATOM     24  O4  NON d   1     -37.985  20.320  -5.168  0.00  0.00    -0.310 OA
ATOM     25  C19 NON d   1     -39.073  19.946  -5.878  0.00  0.00     0.282 C 
ATOM     26  O5  NON d   1     -39.724  18.961  -5.541  0.00  0.00    -0.263 OA
ATOM     27  C20 NON d   1     -39.313  20.686  -7.237  0.00  0.00     0.188 C 
ATOM     28  N4  NON d   1     -38.703  22.009  -7.595  0.00  0.00    -0.342 N 
ATOM     29  C24 NON d   1     -39.487  22.845  -8.385  0.00  0.00     0.268 C 
ATOM     30  O6  NON d   1     -40.691  22.619  -8.558  0.00  0.00    -0.266 OA
ATOM     31  H5  NON d   1     -37.203  25.127  -9.360  0.00  0.00     0.169 HD
ATOM     32  H18 NON d   1     -36.191  23.619  -2.390  0.00  0.00     0.163 HD
ATOM     33  H27 NON d   1     -36.951  24.624  -5.037  0.00  0.00     0.163 HD
ATOM     34  H36 NON d   1     -37.694  22.071  -7.644  0.00  0.00     0.163 HD
ENDROOT
BRANCH  20  35
ATOM     35  C15 NON d   1     -37.430  25.842  -1.261  0.00  0.00     0.009 C 
ATOM     36  C16 NON d   1     -36.583  25.217  -0.152  0.00  0.00     0.012 C 
ATOM     37  C17 NON d   1     -38.672  26.486  -0.619  0.00  0.00     0.012 C 
ENDBRANCH  20  35
BRANCH  27  38
ATOM     38  C21 NON d   1     -39.121  19.696  -8.450  0.00  0.00     0.010 C 
ATOM     39  C22 NON d   1     -37.710  19.674  -9.046  0.00  0.00     0.012 C 
ATOM     40  C23 NON d   1     -39.564  18.274  -8.079  0.00  0.00     0.012 C 
ENDBRANCH  27  38
TORSDOF 2
ENDMDL
MODEL 7
REMARK VINA RESULT:    -4.125      2.759      6.332
REMARK INTER + INTRA:          -5.178
REMARK INTER:                  -4.721
REMARK INTRA:                  -0.457
REMARK CONF_INDEPENDENT:        0.597
REMARK UNBOUND:                -0.457
REMARK  2 active torsions:
REMARK  status: ('A' for Active; 'I' for Inactive)
REMARK    1  A    between atoms: C14_20  and  C15_21 
REMARK    2  A    between atoms: C20_30  and  C21_31 
ROOT
ATOM      1  C1  NON d   1     -39.566  17.255  -2.294  0.00  0.00     0.038 C 
ATOM      2  C2  NON d   1     -38.913  17.963  -3.448  0.00  0.00     0.004 C 
ATOM      3  C3  NON d   1     -39.288  19.115  -4.055  0.00  0.00     0.099 C 
ATOM      4  N1  NON d   1     -40.524  19.663  -3.801  0.00  0.00    -0.321 N 
ATOM      5  C4  NON d   1     -41.033  20.929  -3.879  0.00  0.00     0.245 C 
ATOM      6  O1  NON d   1     -42.190  21.037  -4.310  0.00  0.00    -0.271 OA
ATOM      7  C5  NON d   1     -40.347  22.183  -3.248  0.00  0.00     0.187 C 
ATOM      8  C6  NON d   1     -38.887  21.962  -2.811  0.00  0.00     0.120 C 
ATOM      9  S1  NON d   1     -38.197  22.906  -1.341  0.00  0.00    -0.095 SA
ATOM     10  S2  NON d   1     -37.242  24.638  -2.043  0.00  0.00    -0.097 SA
ATOM     11  C7  NON d   1     -36.769  24.036  -3.660  0.00  0.00     0.090 C 
ATOM     12  C8  NON d   1     -36.376  24.867  -4.866  0.00  0.00     0.038 C 
ATOM     13  C9  NON d   1     -36.811  24.158  -6.160  0.00  0.00    -0.027 C 
ATOM     14  C10 NON d   1     -38.028  23.574  -6.286  0.00  0.00     0.002 C 
ATOM     15  C11 NON d   1     -38.890  23.415  -7.493  0.00  0.00     0.163 C 
ATOM     16  C12 NON d   1     -39.084  24.812  -8.124  0.00  0.00     0.139 C 
ATOM     17  C13 NON d   1     -39.492  25.843  -7.055  0.00  0.00     0.221 C 
ATOM     18  O2  NON d   1     -38.895  26.901  -6.904  0.00  0.00    -0.274 OA
ATOM     19  N2  NON d   1     -40.523  25.448  -6.193  0.00  0.00    -0.347 N 
ATOM     20  C14 NON d   1     -40.416  25.807  -4.762  0.00  0.00     0.180 C 
ATOM     21  C18 NON d   1     -40.661  24.626  -3.729  0.00  0.00     0.241 C 
ATOM     22  O3  NON d   1     -40.759  24.850  -2.515  0.00  0.00    -0.271 OA
ATOM     23  N3  NON d   1     -40.569  23.328  -4.182  0.00  0.00    -0.345 N 
ATOM     24  O4  NON d   1     -38.534  22.369  -8.404  0.00  0.00    -0.310 OA
ATOM     25  C19 NON d   1     -37.403  21.661  -8.189  0.00  0.00     0.282 C 
ATOM     26  O5  NON d   1     -36.404  21.865  -8.875  0.00  0.00    -0.263 OA
ATOM     27  C20 NON d   1     -37.508  20.452  -7.199  0.00  0.00     0.188 C 
ATOM     28  N4  NON d   1     -38.604  20.285  -6.189  0.00  0.00    -0.342 N 
ATOM     29  C24 NON d   1     -38.237  19.678  -4.990  0.00  0.00     0.268 C 
ATOM     30  O6  NON d   1     -37.047  19.528  -4.686  0.00  0.00    -0.266 OA
ATOM     31  H5  NON d   1     -41.264  18.976  -3.678  0.00  0.00     0.169 HD
ATOM     32  H18 NON d   1     -41.439  25.555  -6.607  0.00  0.00     0.163 HD
ATOM     33  H27 NON d   1     -41.201  23.144  -4.956  0.00  0.00     0.163 HD
ATOM     34  H36 NON d   1     -39.554  20.198  -6.526  0.00  0.00     0.163 HD
ENDROOT
BRANCH  20  35
ATOM     35  C15 NON d   1     -41.170  27.087  -4.297  0.00  0.00     0.009 C 
ATOM     36  C16 NON d   1     -41.199  27.378  -2.796  0.00  0.00     0.012 C 
ATOM     37  C17 NON d   1     -42.620  27.041  -4.811  0.00  0.00     0.012 C 
ENDBRANCH  20  35
BRANCH  27  38
ATOM     38  C21 NON d   1     -37.313  19.088  -7.966  0.00  0.00     0.010 C 
ATOM     39  C22 NON d   1     -36.307  18.127  -7.323  0.00  0.00     0.012 C 
ATOM     40  C23 NON d   1     -38.657  18.380  -8.187  0.00  0.00     0.012 C 
ENDBRANCH  27  38
TORSDOF 2
ENDMDL
MODEL 8
REMARK VINA RESULT:    -3.857      2.846      5.259
REMARK INTER + INTRA:          -4.942
REMARK INTER:                  -4.453
REMARK INTRA:                  -0.489
REMARK CONF_INDEPENDENT:        0.597
REMARK UNBOUND:                -0.489
REMARK  2 active torsions:
REMARK  status: ('A' for Active; 'I' for Inactive)
REMARK    1  A    between atoms: C14_20  and  C15_21 
REMARK    2  A    between atoms: C20_30  and  C21_31 
ROOT
ATOM      1  C1  NON d   1     -37.818  26.501  -6.033  0.00  0.00     0.038 C 
ATOM      2  C2  NON d   1     -37.573  25.467  -4.970  0.00  0.00     0.004 C 
ATOM      3  C3  NON d   1     -38.402  24.487  -4.536  0.00  0.00     0.099 C 
ATOM      4  N1  NON d   1     -39.731  24.494  -4.894  0.00  0.00    -0.321 N 
ATOM      5  C4  NON d   1     -40.687  23.522  -5.003  0.00  0.00     0.245 C 
ATOM      6  O1  NON d   1     -41.828  23.821  -4.621  0.00  0.00    -0.271 OA
ATOM      7  C5  NON d   1     -40.483  22.184  -5.782  0.00  0.00     0.187 C 
ATOM      8  C6  NON d   1     -39.020  21.872  -6.147  0.00  0.00     0.120 C 
ATOM      9  S1  NON d   1     -38.630  20.914  -7.714  0.00  0.00    -0.095 SA
ATOM     10  S2  NON d   1     -38.461  18.878  -7.231  0.00  0.00    -0.097 SA
ATOM     11  C7  NON d   1     -37.920  19.057  -5.536  0.00  0.00     0.090 C 
ATOM     12  C8  NON d   1     -37.965  18.005  -4.445  0.00  0.00     0.038 C 
ATOM     13  C9  NON d   1     -38.196  18.671  -3.078  0.00  0.00    -0.027 C 
ATOM     14  C10 NON d   1     -39.105  19.661  -2.904  0.00  0.00     0.002 C 
ATOM     15  C11 NON d   1     -39.932  19.999  -1.710  0.00  0.00     0.163 C 
ATOM     16  C12 NON d   1     -40.690  18.723  -1.281  0.00  0.00     0.139 C 
ATOM     17  C13 NON d   1     -41.376  18.062  -2.490  0.00  0.00     0.221 C 
ATOM     18  O2  NON d   1     -41.216  16.880  -2.770  0.00  0.00    -0.274 OA
ATOM     19  N2  NON d   1     -42.110  18.922  -3.317  0.00  0.00    -0.347 N 
ATOM     20  C14 NON d   1     -42.039  18.719  -4.780  0.00  0.00     0.180 C 
ATOM     21  C18 NON d   1     -41.737  20.014  -5.648  0.00  0.00     0.241 C 
ATOM     22  O3  NON d   1     -41.820  19.988  -6.883  0.00  0.00    -0.271 OA
ATOM     23  N3  NON d   1     -41.194  21.114  -5.019  0.00  0.00    -0.345 N 
ATOM     24  O4  NON d   1     -39.276  20.712  -0.655  0.00  0.00    -0.310 OA
ATOM     25  C19 NON d   1     -37.948  20.948  -0.742  0.00  0.00     0.282 C 
ATOM     26  O5  NON d   1     -37.157  20.296  -0.065  0.00  0.00    -0.263 OA
ATOM     27  C20 NON d   1     -37.510  22.210  -1.560  0.00  0.00     0.188 C 
ATOM     28  N4  NON d   1     -38.379  22.904  -2.565  0.00  0.00    -0.342 N 
ATOM     29  C24 NON d   1     -37.719  23.457  -3.660  0.00  0.00     0.268 C 
ATOM     30  O6  NON d   1     -36.542  23.169  -3.910  0.00  0.00    -0.266 OA
ATOM     31  H5  NON d   1     -40.143  25.422  -4.940  0.00  0.00     0.169 HD
ATOM     32  H18 NON d   1     -43.027  19.131  -2.945  0.00  0.00     0.163 HD
ATOM     33  H27 NON d   1     -41.766  21.436  -4.244  0.00  0.00     0.163 HD
ATOM     34  H36 NON d   1     -39.248  23.312  -2.244  0.00  0.00     0.163 HD
ENDROOT
BRANCH  20  35
ATOM     35  C15 NON d   1     -43.185  17.894  -5.435  0.00  0.00     0.009 C 
ATOM     36  C16 NON d   1     -44.584  18.512  -5.435  0.00  0.00     0.012 C 
ATOM     37  C17 NON d   1     -43.266  16.510  -4.765  0.00  0.00     0.012 C 
ENDBRANCH  20  35
BRANCH  27  38
ATOM     38  C21 NON d   1     -36.870  23.293  -0.609  0.00  0.00     0.010 C 
ATOM     39  C22 NON d   1     -37.247  24.741  -0.939  0.00  0.00     0.012 C 
ATOM     40  C23 NON d   1     -37.175  22.987   0.864  0.00  0.00     0.012 C 
ENDBRANCH  27  38
TORSDOF 2
ENDMDL
