MODEL 1
REMARK VINA RESULT:   -16.909      0.000      0.000
REMARK INTER + INTRA:         -19.636
REMARK INTER:                 -18.401
REMARK INTRA:                  -1.235
REMARK CONF_INDEPENDENT:        1.492
REMARK UNBOUND:                -1.235
REMARK  5 active torsions:
REMARK  status: ('A' for Active; 'I' for Inactive)
REMARK    1  A    between atoms: C1_2  and  C2_3 
REMARK       I    between atoms: C1_2  and  N1_11 
REMARK    2  A    between atoms: C2_3  and  C3_4 
REMARK    3  A    between atoms: N1_11  and  C9_12 
REMARK    4  A    between atoms: C14_17  and  C15_18 
REMARK       I    between atoms: C15_18  and  N2_20 
REMARK    5  A    between atoms: N2_20  and  O3_21 
ROOT
ATOM      1  C9  NON d   1     -42.453  19.333  -4.660  0.00  0.00     0.036 A 
ATOM      2  C10 NON d   1     -42.273  18.614  -3.483  0.00  0.00     0.030 A 
ATOM      3  C11 NON d   1     -43.195  17.631  -3.091  0.00  0.00     0.015 A 
ATOM      4  C12 NON d   1     -44.338  17.365  -3.879  0.00  0.00    -0.018 A 
ATOM      5  C13 NON d   1     -45.422  16.443  -3.680  0.00  0.00     0.037 A 
ATOM      6  C14 NON d   1     -46.373  16.490  -4.679  0.00  0.00     0.076 A 
ATOM      7  S1  NON d   1     -45.939  17.630  -5.879  0.00  0.00    -0.084 SA
ATOM      8  C16 NON d   1     -44.498  18.087  -5.060  0.00  0.00     0.018 A 
ATOM      9  C17 NON d   1     -43.563  19.059  -5.470  0.00  0.00     0.049 A 
ENDROOT
BRANCH   1  10
ATOM     10  N1  NON d   1     -41.548  20.315  -5.116  0.00  0.00    -0.327 N 
ATOM     11  C1  NON d   1     -40.977  20.397  -6.383  0.00  0.00     0.226 C 
ATOM     12  O1  NON d   1     -41.051  19.525  -7.241  0.00  0.00    -0.273 OA
ATOM     13  H7  NON d   1     -41.207  20.965  -4.420  0.00  0.00     0.169 HD
BRANCH  11  14
ATOM     14  C2  NON d   1     -40.186  21.694  -6.552  0.00  0.00     0.141 C 
BRANCH  14  15
ATOM     15  C3  NON d   1     -39.881  22.189  -7.953  0.00  0.00    -0.049 A 
ATOM     16  C4  NON d   1     -40.168  23.534  -8.258  0.00  0.00     0.011 A 
ATOM     17  C5  NON d   1     -39.952  24.042  -9.541  0.00  0.00     0.043 A 
ATOM     18  C6  NON d   1     -39.450  23.209 -10.530  0.00  0.00     0.116 A 
ATOM     19  F1  NON d   1     -39.236  23.695 -11.760  0.00  0.00    -0.206 F 
ATOM     20  C7  NON d   1     -39.176  21.876 -10.263  0.00  0.00     0.043 A 
ATOM     21  C8  NON d   1     -39.406  21.362  -8.983  0.00  0.00     0.011 A 
ENDBRANCH  14  15
ENDBRANCH  11  14
ENDBRANCH   1  10
BRANCH   6  22
ATOM     22  C15 NON d   1     -47.607  15.714  -4.759  0.00  0.00     0.281 C 
ATOM     23  O2  NON d   1     -48.191  15.469  -5.810  0.00  0.00    -0.265 OA
ATOM     24  N2  NON d   1     -48.097  15.257  -3.552  0.00  0.00    -0.233 N 
ATOM     25  H11 NON d   1     -47.651  15.457  -2.666  0.00  0.00     0.197 HD
BRANCH  24  26
ATOM     26  O3  NON d   1     -49.300  14.529  -3.528  0.00  0.00    -0.287 OA
ATOM     27  H12 NON d   1     -49.439  14.304  -4.471  0.00  0.00     0.244 HD
ENDBRANCH  24  26
ENDBRANCH   6  22
TORSDOF 5
ENDMDL
MODEL 2
REMARK VINA RESULT:   -16.286      2.518      3.212
REMARK INTER + INTRA:         -18.996
REMARK INTER:                 -17.778
REMARK INTRA:                  -1.218
REMARK CONF_INDEPENDENT:        1.492
REMARK UNBOUND:                -1.218
REMARK  5 active torsions:
REMARK  status: ('A' for Active; 'I' for Inactive)
REMARK    1  A    between atoms: C1_2  and  C2_3 
REMARK       I    between atoms: C1_2  and  N1_11 
REMARK    2  A    between atoms: C2_3  and  C3_4 
REMARK    3  A    between atoms: N1_11  and  C9_12 
REMARK    4  A    between atoms: C14_17  and  C15_18 
REMARK       I    between atoms: C15_18  and  N2_20 
REMARK    5  A    between atoms: N2_20  and  O3_21 
ROOT
ATOM      1  C9  NON d   1     -42.249  19.178  -4.450  0.00  0.00     0.036 A 
ATOM      2  C10 NON d   1     -42.184  18.495  -3.240  0.00  0.00     0.030 A 
ATOM      3  C11 NON d   1     -43.185  17.582  -2.873  0.00  0.00     0.015 A 
ATOM      4  C12 NON d   1     -44.292  17.352  -3.720  0.00  0.00    -0.018 A 
ATOM      5  C13 NON d   1     -45.439  16.502  -3.558  0.00  0.00     0.037 A 
ATOM      6  C14 NON d   1     -46.324  16.567  -4.615  0.00  0.00     0.076 A 
ATOM      7  S1  NON d   1     -45.751  17.634  -5.824  0.00  0.00    -0.084 SA
ATOM      8  C16 NON d   1     -44.337  18.037  -4.933  0.00  0.00     0.018 A 
ATOM      9  C17 NON d   1     -43.323  18.938  -5.317  0.00  0.00     0.049 A 
ENDROOT
BRANCH   1  10
ATOM     10  N1  NON d   1     -41.261  20.088  -4.881  0.00  0.00    -0.327 N 
ATOM     11  C1  NON d   1     -41.015  20.491  -6.191  0.00  0.00     0.226 C 
ATOM     12  O1  NON d   1     -41.518  19.982  -7.185  0.00  0.00    -0.273 OA
ATOM     13  H7  NON d   1     -40.605  20.401  -4.177  0.00  0.00     0.169 HD
BRANCH  11  14
ATOM     14  C2  NON d   1     -39.982  21.617  -6.240  0.00  0.00     0.141 C 
BRANCH  14  15
ATOM     15  C3  NON d   1     -40.225  22.870  -5.420  0.00  0.00    -0.049 A 
ATOM     16  C4  NON d   1     -39.658  24.077  -5.872  0.00  0.00     0.011 A 
ATOM     17  C5  NON d   1     -39.806  25.259  -5.142  0.00  0.00     0.043 A 
ATOM     18  C6  NON d   1     -40.521  25.241  -3.952  0.00  0.00     0.116 A 
ATOM     19  F1  NON d   1     -40.669  26.374  -3.253  0.00  0.00    -0.206 F 
ATOM     20  C7  NON d   1     -41.074  24.063  -3.474  0.00  0.00     0.043 A 
ATOM     21  C8  NON d   1     -40.912  22.877  -4.196  0.00  0.00     0.011 A 
ENDBRANCH  14  15
ENDBRANCH  11  14
ENDBRANCH   1  10
BRANCH   6  22
ATOM     22  C15 NON d   1     -47.595  15.861  -4.745  0.00  0.00     0.281 C 
ATOM     23  O2  NON d   1     -48.189  15.716  -5.809  0.00  0.00    -0.265 OA
ATOM     24  N2  NON d   1     -48.109  15.348  -3.571  0.00  0.00    -0.233 N 
ATOM     25  H11 NON d   1     -47.656  15.465  -2.674  0.00  0.00     0.197 HD
BRANCH  24  26
ATOM     26  O3  NON d   1     -49.347  14.682  -3.594  0.00  0.00    -0.287 OA
ATOM     27  H12 NON d   1     -49.501  14.537  -4.551  0.00  0.00     0.244 HD
ENDBRANCH  24  26
ENDBRANCH   6  22
TORSDOF 5
ENDMDL
MODEL 3
REMARK VINA RESULT:   -16.178      1.189      1.320
REMARK INTER + INTRA:         -18.992
REMARK INTER:                 -17.669
REMARK INTRA:                  -1.323
REMARK CONF_INDEPENDENT:        1.492
REMARK UNBOUND:                -1.323
REMARK  5 active torsions:
REMARK  status: ('A' for Active; 'I' for Inactive)
REMARK    1  A    between atoms: C1_2  and  C2_3 
REMARK       I    between atoms: C1_2  and  N1_11 
REMARK    2  A    between atoms: C2_3  and  C3_4 
REMARK    3  A    between atoms: N1_11  and  C9_12 
REMARK    4  A    between atoms: C14_17  and  C15_18 
REMARK       I    between atoms: C15_18  and  N2_20 
REMARK    5  A    between atoms: N2_20  and  O3_21 
ROOT
ATOM      1  C9  NON d   1     -42.404  19.332  -4.546  0.00  0.00     0.036 A 
ATOM      2  C10 NON d   1     -42.252  18.612  -3.366  0.00  0.00     0.030 A 
ATOM      3  C11 NON d   1     -43.183  17.629  -2.997  0.00  0.00     0.015 A 
ATOM      4  C12 NON d   1     -44.308  17.365  -3.810  0.00  0.00    -0.018 A 
ATOM      5  C13 NON d   1     -45.397  16.443  -3.637  0.00  0.00     0.037 A 
ATOM      6  C14 NON d   1     -46.325  16.493  -4.657  0.00  0.00     0.076 A 
ATOM      7  S1  NON d   1     -45.864  17.634  -5.845  0.00  0.00    -0.084 SA
ATOM      8  C16 NON d   1     -44.441  18.089  -4.993  0.00  0.00     0.018 A 
ATOM      9  C17 NON d   1     -43.496  19.060  -5.381  0.00  0.00     0.049 A 
ENDROOT
BRANCH   1  10
ATOM     10  N1  NON d   1     -41.488  20.314  -4.980  0.00  0.00    -0.327 N 
ATOM     11  C1  NON d   1     -40.114  20.330  -4.753  0.00  0.00     0.226 C 
ATOM     12  O1  NON d   1     -39.523  19.571  -3.994  0.00  0.00    -0.273 OA
ATOM     13  H7  NON d   1     -41.887  21.136  -5.415  0.00  0.00     0.169 HD
BRANCH  11  14
ATOM     14  C2  NON d   1     -39.437  21.460  -5.527  0.00  0.00     0.141 C 
BRANCH  14  15
ATOM     15  C3  NON d   1     -39.479  21.437  -7.044  0.00  0.00    -0.049 A 
ATOM     16  C4  NON d   1     -38.767  22.432  -7.741  0.00  0.00     0.011 A 
ATOM     17  C5  NON d   1     -38.798  22.495  -9.136  0.00  0.00     0.043 A 
ATOM     18  C6  NON d   1     -39.546  21.564  -9.845  0.00  0.00     0.116 A 
ATOM     19  F1  NON d   1     -39.573  21.619 -11.183  0.00  0.00    -0.206 F 
ATOM     20  C7  NON d   1     -40.272  20.585  -9.183  0.00  0.00     0.043 A 
ATOM     21  C8  NON d   1     -40.253  20.532  -7.786  0.00  0.00     0.011 A 
ENDBRANCH  14  15
ENDBRANCH  11  14
ENDBRANCH   1  10
BRANCH   6  22
ATOM     22  C15 NON d   1     -47.558  15.719  -4.766  0.00  0.00     0.281 C 
ATOM     23  O2  NON d   1     -48.190  15.586  -5.809  0.00  0.00    -0.265 OA
ATOM     24  N2  NON d   1     -47.988  15.125  -3.596  0.00  0.00    -0.233 N 
ATOM     25  H11 NON d   1     -47.502  15.229  -2.714  0.00  0.00     0.197 HD
BRANCH  24  26
ATOM     26  O3  NON d   1     -49.185  14.387  -3.597  0.00  0.00    -0.287 OA
ATOM     27  H12 NON d   1     -49.546  14.556  -4.492  0.00  0.00     0.244 HD
ENDBRANCH  24  26
ENDBRANCH   6  22
TORSDOF 5
ENDMDL
MODEL 4
REMARK VINA RESULT:   -15.597      2.604      3.460
REMARK INTER + INTRA:         -18.326
REMARK INTER:                 -17.089
REMARK INTRA:                  -1.238
REMARK CONF_INDEPENDENT:        1.492
REMARK UNBOUND:                -1.238
REMARK  5 active torsions:
REMARK  status: ('A' for Active; 'I' for Inactive)
REMARK    1  A    between atoms: C1_2  and  C2_3 
REMARK       I    between atoms: C1_2  and  N1_11 
REMARK    2  A    between atoms: C2_3  and  C3_4 
REMARK    3  A    between atoms: N1_11  and  C9_12 
REMARK    4  A    between atoms: C14_17  and  C15_18 
REMARK       I    between atoms: C15_18  and  N2_20 
REMARK    5  A    between atoms: N2_20  and  O3_21 
ROOT
ATOM      1  C9  NON d   1     -42.432  19.274  -4.616  0.00  0.00     0.036 A 
ATOM      2  C10 NON d   1     -42.276  18.555  -3.436  0.00  0.00     0.030 A 
ATOM      3  C11 NON d   1     -43.219  17.590  -3.049  0.00  0.00     0.015 A 
ATOM      4  C12 NON d   1     -44.359  17.342  -3.846  0.00  0.00    -0.018 A 
ATOM      5  C13 NON d   1     -45.461  16.440  -3.655  0.00  0.00     0.037 A 
ATOM      6  C14 NON d   1     -46.402  16.502  -4.663  0.00  0.00     0.076 A 
ATOM      7  S1  NON d   1     -45.937  17.630  -5.862  0.00  0.00    -0.084 SA
ATOM      8  C16 NON d   1     -44.495  18.063  -5.031  0.00  0.00     0.018 A 
ATOM      9  C17 NON d   1     -43.539  19.017  -5.435  0.00  0.00     0.049 A 
ENDROOT
BRANCH   1  10
ATOM     10  N1  NON d   1     -41.505  20.237  -5.066  0.00  0.00    -0.327 N 
ATOM     11  C1  NON d   1     -40.846  20.251  -6.293  0.00  0.00     0.226 C 
ATOM     12  O1  NON d   1     -40.852  19.328  -7.099  0.00  0.00    -0.273 OA
ATOM     13  H7  NON d   1     -41.220  20.933  -4.389  0.00  0.00     0.169 HD
BRANCH  11  14
ATOM     14  C2  NON d   1     -40.056  21.545  -6.484  0.00  0.00     0.141 C 
BRANCH  14  15
ATOM     15  C3  NON d   1     -39.000  21.917  -5.461  0.00  0.00    -0.049 A 
ATOM     16  C4  NON d   1     -38.765  21.025  -4.397  0.00  0.00     0.011 A 
ATOM     17  C5  NON d   1     -37.838  21.327  -3.397  0.00  0.00     0.043 A 
ATOM     18  C6  NON d   1     -37.140  22.525  -3.452  0.00  0.00     0.116 A 
ATOM     19  F1  NON d   1     -36.246  22.814  -2.497  0.00  0.00    -0.206 F 
ATOM     20  C7  NON d   1     -37.365  23.431  -4.478  0.00  0.00     0.043 A 
ATOM     21  C8  NON d   1     -38.304  23.136  -5.470  0.00  0.00     0.011 A 
ENDBRANCH  14  15
ENDBRANCH  11  14
ENDBRANCH   1  10
BRANCH   6  22
ATOM     22  C15 NON d   1     -47.649  15.748  -4.752  0.00  0.00     0.281 C 
ATOM     23  O2  NON d   1     -48.214  15.487  -5.810  0.00  0.00    -0.265 OA
ATOM     24  N2  NON d   1     -48.176  15.332  -3.546  0.00  0.00    -0.233 N 
ATOM     25  H11 NON d   1     -47.747  15.546  -2.655  0.00  0.00     0.197 HD
BRANCH  24  26
ATOM     26  O3  NON d   1     -49.393  14.629  -3.531  0.00  0.00    -0.287 OA
ATOM     27  H12 NON d   1     -49.405  14.192  -4.408  0.00  0.00     0.244 HD
ENDBRANCH  24  26
ENDBRANCH   6  22
TORSDOF 5
ENDMDL
MODEL 5
REMARK VINA RESULT:   -14.224      5.135      6.662
REMARK INTER + INTRA:         -17.189
REMARK INTER:                 -15.715
REMARK INTRA:                  -1.474
REMARK CONF_INDEPENDENT:        1.492
REMARK UNBOUND:                -1.474
REMARK  5 active torsions:
REMARK  status: ('A' for Active; 'I' for Inactive)
REMARK    1  A    between atoms: C1_2  and  C2_3 
REMARK       I    between atoms: C1_2  and  N1_11 
REMARK    2  A    between atoms: C2_3  and  C3_4 
REMARK    3  A    between atoms: N1_11  and  C9_12 
REMARK    4  A    between atoms: C14_17  and  C15_18 
REMARK       I    between atoms: C15_18  and  N2_20 
REMARK    5  A    between atoms: N2_20  and  O3_21 
ROOT
ATOM      1  C9  NON d   1     -40.362  18.917  -3.212  0.00  0.00     0.036 A 
ATOM      2  C10 NON d   1     -40.629  20.032  -4.000  0.00  0.00     0.030 A 
ATOM      3  C11 NON d   1     -41.826  20.132  -4.725  0.00  0.00     0.015 A 
ATOM      4  C12 NON d   1     -42.779  19.089  -4.684  0.00  0.00    -0.018 A 
ATOM      5  C13 NON d   1     -44.045  18.946  -5.348  0.00  0.00     0.037 A 
ATOM      6  C14 NON d   1     -44.684  17.757  -5.060  0.00  0.00     0.076 A 
ATOM      7  S1  NON d   1     -43.766  16.823  -3.960  0.00  0.00    -0.084 SA
ATOM      8  C16 NON d   1     -42.500  17.983  -3.882  0.00  0.00     0.018 A 
ATOM      9  C17 NON d   1     -41.309  17.889  -3.133  0.00  0.00     0.049 A 
ENDROOT
BRANCH   1  10
ATOM     10  N1  NON d   1     -39.187  18.774  -2.443  0.00  0.00    -0.327 N 
ATOM     11  C1  NON d   1     -37.876  18.891  -2.895  0.00  0.00     0.226 C 
ATOM     12  O1  NON d   1     -37.547  18.970  -4.073  0.00  0.00    -0.273 OA
ATOM     13  H7  NON d   1     -39.314  18.460  -1.489  0.00  0.00     0.169 HD
BRANCH  11  14
ATOM     14  C2  NON d   1     -36.882  18.843  -1.734  0.00  0.00     0.141 C 
BRANCH  14  15
ATOM     15  C3  NON d   1     -36.940  19.928  -0.676  0.00  0.00    -0.049 A 
ATOM     16  C4  NON d   1     -36.296  19.689   0.554  0.00  0.00     0.011 A 
ATOM     17  C5  NON d   1     -36.348  20.628   1.587  0.00  0.00     0.043 A 
ATOM     18  C6  NON d   1     -37.046  21.813   1.399  0.00  0.00     0.116 A 
ATOM     19  F1  NON d   1     -37.092  22.717   2.386  0.00  0.00    -0.206 F 
ATOM     20  C7  NON d   1     -37.705  22.066   0.205  0.00  0.00     0.043 A 
ATOM     21  C8  NON d   1     -37.667  21.120  -0.823  0.00  0.00     0.011 A 
ENDBRANCH  14  15
ENDBRANCH  11  14
ENDBRANCH   1  10
BRANCH   6  22
ATOM     22  C15 NON d   1     -45.960  17.290  -5.595  0.00  0.00     0.281 C 
ATOM     23  O2  NON d   1     -46.743  18.005  -6.213  0.00  0.00    -0.265 OA
ATOM     24  N2  NON d   1     -46.247  15.960  -5.362  0.00  0.00    -0.233 N 
ATOM     25  H11 NON d   1     -45.633  15.347  -4.840  0.00  0.00     0.197 HD
BRANCH  24  26
ATOM     26  O3  NON d   1     -47.470  15.430  -5.811  0.00  0.00    -0.287 OA
ATOM     27  H12 NON d   1     -47.762  16.086  -6.477  0.00  0.00     0.244 HD
ENDBRANCH  24  26
ENDBRANCH   6  22
TORSDOF 5
ENDMDL
MODEL 6
REMARK VINA RESULT:   -14.015      5.591      7.648
REMARK INTER + INTRA:         -16.969
REMARK INTER:                 -15.506
REMARK INTRA:                  -1.463
REMARK CONF_INDEPENDENT:        1.492
REMARK UNBOUND:                -1.463
REMARK  5 active torsions:
REMARK  status: ('A' for Active; 'I' for Inactive)
REMARK    1  A    between atoms: C1_2  and  C2_3 
REMARK       I    between atoms: C1_2  and  N1_11 
REMARK    2  A    between atoms: C2_3  and  C3_4 
REMARK    3  A    between atoms: N1_11  and  C9_12 
REMARK    4  A    between atoms: C14_17  and  C15_18 
REMARK       I    between atoms: C15_18  and  N2_20 
REMARK    5  A    between atoms: N2_20  and  O3_21 
ROOT
ATOM      1  C9  NON d   1     -40.226  18.594  -3.065  0.00  0.00     0.036 A 
ATOM      2  C10 NON d   1     -40.504  19.795  -3.708  0.00  0.00     0.030 A 
ATOM      3  C11 NON d   1     -41.711  19.978  -4.401  0.00  0.00     0.015 A 
ATOM      4  C12 NON d   1     -42.662  18.936  -4.473  0.00  0.00    -0.018 A 
ATOM      5  C13 NON d   1     -43.938  18.871  -5.132  0.00  0.00     0.037 A 
ATOM      6  C14 NON d   1     -44.572  17.654  -4.982  0.00  0.00     0.076 A 
ATOM      7  S1  NON d   1     -43.638  16.596  -4.015  0.00  0.00    -0.084 SA
ATOM      8  C16 NON d   1     -42.372  17.742  -3.814  0.00  0.00     0.018 A 
ATOM      9  C17 NON d   1     -41.172  17.561  -3.098  0.00  0.00     0.049 A 
ENDROOT
BRANCH   1  10
ATOM     10  N1  NON d   1     -39.041  18.361  -2.334  0.00  0.00    -0.327 N 
ATOM     11  C1  NON d   1     -37.758  18.212  -2.853  0.00  0.00     0.226 C 
ATOM     12  O1  NON d   1     -37.495  18.094  -4.044  0.00  0.00    -0.273 OA
ATOM     13  H7  NON d   1     -39.154  18.190  -1.343  0.00  0.00     0.169 HD
BRANCH  11  14
ATOM     14  C2  NON d   1     -36.713  18.150  -1.740  0.00  0.00     0.141 C 
BRANCH  14  15
ATOM     15  C3  NON d   1     -36.791  17.027  -0.723  0.00  0.00    -0.049 A 
ATOM     16  C4  NON d   1     -36.192  17.229   0.536  0.00  0.00     0.011 A 
ATOM     17  C5  NON d   1     -36.190  16.220   1.502  0.00  0.00     0.043 A 
ATOM     18  C6  NON d   1     -36.785  14.999   1.215  0.00  0.00     0.116 A 
ATOM     19  F1  NON d   1     -36.790  14.032   2.142  0.00  0.00    -0.206 F 
ATOM     20  C7  NON d   1     -37.366  14.766  -0.022  0.00  0.00     0.043 A 
ATOM     21  C8  NON d   1     -37.354  15.770  -0.995  0.00  0.00     0.011 A 
ENDBRANCH  14  15
ENDBRANCH  11  14
ENDBRANCH   1  10
BRANCH   6  22
ATOM     22  C15 NON d   1     -45.854  17.253  -5.552  0.00  0.00     0.281 C 
ATOM     23  O2  NON d   1     -46.581  18.005  -6.194  0.00  0.00    -0.265 OA
ATOM     24  N2  NON d   1     -46.218  15.940  -5.324  0.00  0.00    -0.233 N 
ATOM     25  H11 NON d   1     -45.652  15.299  -4.783  0.00  0.00     0.197 HD
BRANCH  24  26
ATOM     26  O3  NON d   1     -47.453  15.473  -5.806  0.00  0.00    -0.287 OA
ATOM     27  H12 NON d   1     -47.685  16.134  -6.491  0.00  0.00     0.244 HD
ENDBRANCH  24  26
ENDBRANCH   6  22
TORSDOF 5
ENDMDL
