MODEL 1
REMARK VINA RESULT:   -15.805      0.000      0.000
REMARK INTER + INTRA:         -22.611
REMARK INTER:                 -19.981
REMARK INTRA:                  -2.630
REMARK CONF_INDEPENDENT:        4.176
REMARK UNBOUND:                -2.630
REMARK  14 active torsions:
REMARK  status: ('A' for Active; 'I' for Inactive)
REMARK    1  A    between atoms: C2_2  and  C4_4 
REMARK    2  A    between atoms: C5_6  and  N2_7 
REMARK    3  A    between atoms: N2_7  and  S1_9 
REMARK    4  A    between atoms: C8_14  and  C9_15 
REMARK    5  A    between atoms: C15_22  and  C16_23 
REMARK    6  A    between atoms: C16_23  and  C17_24 
REMARK    7  A    between atoms: C18_25  and  C17_24 
REMARK    8  A    between atoms: C18_25  and  O3_26 
REMARK    9  A    between atoms: C18_25  and  C19_27 
REMARK   10  A    between atoms: C20_28  and  C19_27 
REMARK   11  A    between atoms: C20_28  and  O4_29 
REMARK   12  A    between atoms: C20_28  and  C21_30 
REMARK   13  A    between atoms: C21_30  and  C22_31 
REMARK       I    between atoms: C22_31  and  N4_33 
REMARK   14  A    between atoms: N4_33  and  O6_34 
ROOT
ATOM      1  C4  NON d   1     -40.410  20.265  -2.845  0.00  0.00     0.069 C 
ATOM      2  N1  NON d   1     -40.169  21.456  -2.075  0.00  0.00    -0.065 NA
ATOM      3  C5  NON d   1     -40.155  22.686  -2.712  0.00  0.00     0.738 C 
ATOM      4  N3  NON d   1     -40.369  22.758  -4.038  0.00  0.00    -0.060 NA
ATOM      5  C8  NON d   1     -40.574  21.583  -4.790  0.00  0.00     0.098 C 
ATOM      6  C15 NON d   1     -40.735  20.293  -4.214  0.00  0.00     0.020 C 
ENDROOT
BRANCH   6   7
ATOM      7  C16 NON d   1     -40.698  18.955  -4.920  0.00  0.00     0.014 C 
BRANCH   7   8
ATOM      8  C17 NON d   1     -41.504  17.856  -5.350  0.00  0.00     0.006 C 
BRANCH   8   9
ATOM      9  C18 NON d   1     -43.054  17.510  -4.399  0.00  0.00     0.143 C 
BRANCH   9  10
ATOM     10  O3  NON d   1     -43.402  16.131  -4.920  0.00  0.00    -0.392 OA
ATOM     11  H21 NON d   1     -43.224  15.514  -4.189  0.00  0.00     0.210 HD
ENDBRANCH   9  10
BRANCH   9  12
ATOM     12  C19 NON d   1     -44.437  18.117  -4.704  0.00  0.00     0.068 C 
BRANCH  12  13
ATOM     13  C20 NON d   1     -45.579  17.137  -5.133  0.00  0.00     0.129 C 
BRANCH  13  14
ATOM     14  O4  NON d   1     -46.333  17.731  -6.191  0.00  0.00    -0.395 OA
ATOM     15  H25 NON d   1     -46.645  17.015  -6.787  0.00  0.00     0.210 HD
ENDBRANCH  13  14
BRANCH  13  16
ATOM     16  C21 NON d   1     -46.487  16.480  -4.083  0.00  0.00     0.136 C 
BRANCH  16  17
ATOM     17  C22 NON d   1     -47.604  15.597  -4.611  0.00  0.00     0.243 C 
ATOM     18  O5  NON d   1     -47.766  15.380  -5.810  0.00  0.00    -0.271 OA
ATOM     19  N4  NON d   1     -48.424  15.134  -3.600  0.00  0.00    -0.237 N 
ATOM     20  H28 NON d   1     -48.182  15.173  -2.616  0.00  0.00     0.197 HD
BRANCH  19  21
ATOM     21  O6  NON d   1     -49.463  14.255  -3.959  0.00  0.00    -0.287 OA
ATOM     22  H29 NON d   1     -49.281  14.073  -4.901  0.00  0.00     0.244 HD
ENDBRANCH  19  21
ENDBRANCH  16  17
ENDBRANCH  13  16
ENDBRANCH  12  13
ENDBRANCH   9  12
ENDBRANCH   8   9
ENDBRANCH   7   8
ENDBRANCH   6   7
BRANCH   5  23
ATOM     23  C9  NON d   1     -40.398  21.818  -6.282  0.00  0.00    -0.006 A 
ATOM     24  C10 NON d   1     -39.875  23.045  -6.754  0.00  0.00     0.017 A 
ATOM     25  C11 NON d   1     -39.574  23.271  -8.106  0.00  0.00     0.043 A 
ATOM     26  C12 NON d   1     -39.774  22.261  -9.031  0.00  0.00     0.116 A 
ATOM     27  F1  NON d   1     -39.449  22.452 -10.316  0.00  0.00    -0.206 F 
ATOM     28  C13 NON d   1     -40.310  21.051  -8.631  0.00  0.00     0.043 A 
ATOM     29  C14 NON d   1     -40.645  20.850  -7.282  0.00  0.00     0.017 A 
ENDBRANCH   5  23
BRANCH   1  30
ATOM     30  C2  NON d   1     -40.404  18.746  -2.188  0.00  0.00     0.031 C 
ATOM     31  C1  NON d   1     -39.335  17.678  -2.486  0.00  0.00     0.016 C 
ATOM     32  C3  NON d   1     -41.649  18.379  -1.360  0.00  0.00     0.016 C 
ENDBRANCH   1  30
BRANCH   3  33
ATOM     33  N2  NON d   1     -40.023  24.062  -1.958  0.00  0.00    -0.109 N 
ATOM     34  C6  NON d   1     -40.406  25.314  -2.768  0.00  0.00     0.189 C 
BRANCH  33  35
ATOM     35  S1  NON d   1     -40.513  24.051  -0.347  0.00  0.00     0.242 S 
ATOM     36  C7  NON d   1     -40.715  25.793  -0.078  0.00  0.00     0.186 C 
ATOM     37  O1  NON d   1     -41.842  23.469  -0.293  0.00  0.00    -0.205 OA
ATOM     38  O2  NON d   1     -39.466  23.549   0.518  0.00  0.00    -0.205 OA
ENDBRANCH  33  35
ENDBRANCH   3  33
TORSDOF 14
ENDMDL
MODEL 2
REMARK VINA RESULT:   -15.779      0.760      1.096
REMARK INTER + INTRA:         -22.702
REMARK INTER:                 -19.955
REMARK INTRA:                  -2.747
REMARK CONF_INDEPENDENT:        4.176
REMARK UNBOUND:                -2.747
REMARK  14 active torsions:
REMARK  status: ('A' for Active; 'I' for Inactive)
REMARK    1  A    between atoms: C2_2  and  C4_4 
REMARK    2  A    between atoms: C5_6  and  N2_7 
REMARK    3  A    between atoms: N2_7  and  S1_9 
REMARK    4  A    between atoms: C8_14  and  C9_15 
REMARK    5  A    between atoms: C15_22  and  C16_23 
REMARK    6  A    between atoms: C16_23  and  C17_24 
REMARK    7  A    between atoms: C18_25  and  C17_24 
REMARK    8  A    between atoms: C18_25  and  O3_26 
REMARK    9  A    between atoms: C18_25  and  C19_27 
REMARK   10  A    between atoms: C20_28  and  C19_27 
REMARK   11  A    between atoms: C20_28  and  O4_29 
REMARK   12  A    between atoms: C20_28  and  C21_30 
REMARK   13  A    between atoms: C21_30  and  C22_31 
REMARK       I    between atoms: C22_31  and  N4_33 
REMARK   14  A    between atoms: N4_33  and  O6_34 
ROOT
ATOM      1  C4  NON d   1     -40.248  20.252  -3.136  0.00  0.00     0.069 C 
ATOM      2  N1  NON d   1     -39.922  21.459  -2.424  0.00  0.00    -0.065 NA
ATOM      3  C5  NON d   1     -39.874  22.662  -3.110  0.00  0.00     0.738 C 
ATOM      4  N3  NON d   1     -40.135  22.693  -4.429  0.00  0.00    -0.060 NA
ATOM      5  C8  NON d   1     -40.424  21.501  -5.125  0.00  0.00     0.098 C 
ATOM      6  C15 NON d   1     -40.622  20.244  -4.492  0.00  0.00     0.020 C 
ENDROOT
BRANCH   6   7
ATOM      7  C16 NON d   1     -40.675  18.879  -5.144  0.00  0.00     0.014 C 
BRANCH   7   8
ATOM      8  C17 NON d   1     -41.543  17.793  -5.476  0.00  0.00     0.006 C 
BRANCH   8   9
ATOM      9  C18 NON d   1     -43.038  17.539  -4.416  0.00  0.00     0.143 C 
BRANCH   9  10
ATOM     10  O3  NON d   1     -43.429  16.130  -4.812  0.00  0.00    -0.392 OA
ATOM     11  H21 NON d   1     -43.568  15.645  -3.981  0.00  0.00     0.210 HD
ENDBRANCH   9  10
BRANCH   9  12
ATOM     12  C19 NON d   1     -44.430  18.140  -4.685  0.00  0.00     0.068 C 
BRANCH  12  13
ATOM     13  C20 NON d   1     -45.570  17.162  -5.121  0.00  0.00     0.129 C 
BRANCH  13  14
ATOM     14  O4  NON d   1     -46.316  17.755  -6.185  0.00  0.00    -0.395 OA
ATOM     15  H25 NON d   1     -46.910  17.071  -6.564  0.00  0.00     0.210 HD
ENDBRANCH  13  14
BRANCH  13  16
ATOM     16  C21 NON d   1     -46.487  16.506  -4.076  0.00  0.00     0.136 C 
BRANCH  16  17
ATOM     17  C22 NON d   1     -47.588  15.609  -4.611  0.00  0.00     0.243 C 
ATOM     18  O5  NON d   1     -47.733  15.380  -5.810  0.00  0.00    -0.271 OA
ATOM     19  N4  NON d   1     -48.417  15.147  -3.606  0.00  0.00    -0.237 N 
ATOM     20  H28 NON d   1     -48.187  15.196  -2.620  0.00  0.00     0.197 HD
BRANCH  19  21
ATOM     21  O6  NON d   1     -49.443  14.255  -3.971  0.00  0.00    -0.287 OA
ATOM     22  H29 NON d   1     -49.438  14.302  -4.945  0.00  0.00     0.244 HD
ENDBRANCH  19  21
ENDBRANCH  16  17
ENDBRANCH  13  16
ENDBRANCH  12  13
ENDBRANCH   9  12
ENDBRANCH   8   9
ENDBRANCH   7   8
ENDBRANCH   6   7
BRANCH   5  23
ATOM     23  C9  NON d   1     -40.294  21.670  -6.631  0.00  0.00    -0.006 A 
ATOM     24  C10 NON d   1     -39.697  22.834  -7.169  0.00  0.00     0.017 A 
ATOM     25  C11 NON d   1     -39.437  22.988  -8.540  0.00  0.00     0.043 A 
ATOM     26  C12 NON d   1     -39.755  21.967  -9.418  0.00  0.00     0.116 A 
ATOM     27  F1  NON d   1     -39.472  22.087 -10.721  0.00  0.00    -0.206 F 
ATOM     28  C13 NON d   1     -40.366  20.818  -8.951  0.00  0.00     0.043 A 
ATOM     29  C14 NON d   1     -40.658  20.691  -7.583  0.00  0.00     0.017 A 
ENDBRANCH   5  23
BRANCH   1  30
ATOM     30  C2  NON d   1     -40.287  18.761  -2.419  0.00  0.00     0.031 C 
ATOM     31  C1  NON d   1     -41.440  18.256  -1.532  0.00  0.00     0.016 C 
ATOM     32  C3  NON d   1     -38.997  17.930  -2.552  0.00  0.00     0.016 C 
ENDBRANCH   1  30
BRANCH   3  33
ATOM     33  N2  NON d   1     -39.650  24.058  -2.417  0.00  0.00    -0.109 N 
ATOM     34  C6  NON d   1     -39.515  25.266  -3.363  0.00  0.00     0.189 C 
BRANCH  33  35
ATOM     35  S1  NON d   1     -40.544  24.319  -1.015  0.00  0.00     0.242 S 
ATOM     36  C7  NON d   1     -39.489  23.525   0.171  0.00  0.00     0.186 C 
ATOM     37  O1  NON d   1     -40.499  25.740  -0.720  0.00  0.00    -0.205 OA
ATOM     38  O2  NON d   1     -41.815  23.629  -1.065  0.00  0.00    -0.205 OA
ENDBRANCH  33  35
ENDBRANCH   3  33
TORSDOF 14
ENDMDL
MODEL 3
REMARK VINA RESULT:   -15.294      2.085      3.165
REMARK INTER + INTRA:         -22.679
REMARK INTER:                 -19.470
REMARK INTRA:                  -3.209
REMARK CONF_INDEPENDENT:        4.176
REMARK UNBOUND:                -3.209
REMARK  14 active torsions:
REMARK  status: ('A' for Active; 'I' for Inactive)
REMARK    1  A    between atoms: C2_2  and  C4_4 
REMARK    2  A    between atoms: C5_6  and  N2_7 
REMARK    3  A    between atoms: N2_7  and  S1_9 
REMARK    4  A    between atoms: C8_14  and  C9_15 
REMARK    5  A    between atoms: C15_22  and  C16_23 
REMARK    6  A    between atoms: C16_23  and  C17_24 
REMARK    7  A    between atoms: C18_25  and  C17_24 
REMARK    8  A    between atoms: C18_25  and  O3_26 
REMARK    9  A    between atoms: C18_25  and  C19_27 
REMARK   10  A    between atoms: C20_28  and  C19_27 
REMARK   11  A    between atoms: C20_28  and  O4_29 
REMARK   12  A    between atoms: C20_28  and  C21_30 
REMARK   13  A    between atoms: C21_30  and  C22_31 
REMARK       I    between atoms: C22_31  and  N4_33 
REMARK   14  A    between atoms: N4_33  and  O6_34 
ROOT
ATOM      1  C4  NON d   1     -39.773  20.721  -1.941  0.00  0.00     0.069 C 
ATOM      2  N1  NON d   1     -39.660  21.142  -0.570  0.00  0.00    -0.065 NA
ATOM      3  C5  NON d   1     -39.931  22.461  -0.240  0.00  0.00     0.738 C 
ATOM      4  N3  NON d   1     -40.299  23.330  -1.197  0.00  0.00    -0.060 NA
ATOM      5  C8  NON d   1     -40.377  22.916  -2.543  0.00  0.00     0.098 C 
ATOM      6  C15 NON d   1     -40.245  21.564  -2.963  0.00  0.00     0.020 C 
ENDROOT
BRANCH   6   7
ATOM      7  C16 NON d   1     -40.052  21.050  -4.373  0.00  0.00     0.014 C 
BRANCH   7   8
ATOM      8  C17 NON d   1     -40.661  20.279  -5.412  0.00  0.00     0.006 C 
BRANCH   8   9
ATOM      9  C18 NON d   1     -41.611  18.771  -4.913  0.00  0.00     0.143 C 
BRANCH   9  10
ATOM     10  O3  NON d   1     -41.328  17.857  -6.087  0.00  0.00    -0.392 OA
ATOM     11  H21 NON d   1     -41.359  16.951  -5.737  0.00  0.00     0.210 HD
ENDBRANCH   9  10
BRANCH   9  12
ATOM     12  C19 NON d   1     -43.142  18.618  -4.996  0.00  0.00     0.068 C 
BRANCH  12  13
ATOM     13  C20 NON d   1     -43.778  17.338  -4.361  0.00  0.00     0.129 C 
BRANCH  13  14
ATOM     14  O4  NON d   1     -43.302  16.184  -5.056  0.00  0.00    -0.395 OA
ATOM     15  H25 NON d   1     -42.889  16.479  -5.897  0.00  0.00     0.210 HD
ENDBRANCH  13  14
BRANCH  13  16
ATOM     16  C21 NON d   1     -45.289  17.261  -4.092  0.00  0.00     0.136 C 
BRANCH  16  17
ATOM     17  C22 NON d   1     -46.166  16.872  -5.268  0.00  0.00     0.243 C 
ATOM     18  O5  NON d   1     -46.403  17.638  -6.200  0.00  0.00    -0.271 OA
ATOM     19  N4  NON d   1     -46.694  15.602  -5.126  0.00  0.00    -0.237 N 
ATOM     20  H28 NON d   1     -46.356  14.925  -4.452  0.00  0.00     0.197 HD
BRANCH  19  21
ATOM     21  O6  NON d   1     -47.478  15.105  -6.183  0.00  0.00    -0.287 OA
ATOM     22  H29 NON d   1     -47.251  15.698  -6.924  0.00  0.00     0.244 HD
ENDBRANCH  19  21
ENDBRANCH  16  17
ENDBRANCH  13  16
ENDBRANCH  12  13
ENDBRANCH   9  12
ENDBRANCH   8   9
ENDBRANCH   7   8
ENDBRANCH   6   7
BRANCH   5  23
ATOM     23  C9  NON d   1     -40.410  24.092  -3.505  0.00  0.00    -0.006 A 
ATOM     24  C10 NON d   1     -39.675  24.046  -4.714  0.00  0.00     0.017 A 
ATOM     25  C11 NON d   1     -39.767  25.045  -5.696  0.00  0.00     0.043 A 
ATOM     26  C12 NON d   1     -40.615  26.121  -5.502  0.00  0.00     0.116 A 
ATOM     27  F1  NON d   1     -40.741  27.057  -6.451  0.00  0.00    -0.206 F 
ATOM     28  C13 NON d   1     -41.335  26.233  -4.327  0.00  0.00     0.043 A 
ATOM     29  C14 NON d   1     -41.206  25.248  -3.335  0.00  0.00     0.017 A 
ENDBRANCH   5  23
BRANCH   1  30
ATOM     30  C2  NON d   1     -39.428  19.182  -2.445  0.00  0.00     0.031 C 
ATOM     31  C1  NON d   1     -38.222  18.810  -3.328  0.00  0.00     0.016 C 
ATOM     32  C3  NON d   1     -40.497  18.124  -2.114  0.00  0.00     0.016 C 
ENDBRANCH   1  30
BRANCH   3  33
ATOM     33  N2  NON d   1     -39.960  23.006   1.237  0.00  0.00    -0.109 N 
ATOM     34  C6  NON d   1     -38.610  23.020   1.977  0.00  0.00     0.189 C 
BRANCH  33  35
ATOM     35  S1  NON d   1     -40.953  24.341   1.494  0.00  0.00     0.242 S 
ATOM     36  C7  NON d   1     -39.855  25.639   0.985  0.00  0.00     0.186 C 
ATOM     37  O1  NON d   1     -42.019  24.295   0.509  0.00  0.00    -0.205 OA
ATOM     38  O2  NON d   1     -41.268  24.500   2.898  0.00  0.00    -0.205 OA
ENDBRANCH  33  35
ENDBRANCH   3  33
TORSDOF 14
ENDMDL
MODEL 4
REMARK VINA RESULT:   -14.471      2.116      2.757
REMARK INTER + INTRA:         -20.960
REMARK INTER:                 -18.647
REMARK INTRA:                  -2.313
REMARK CONF_INDEPENDENT:        4.176
REMARK UNBOUND:                -2.313
REMARK  14 active torsions:
REMARK  status: ('A' for Active; 'I' for Inactive)
REMARK    1  A    between atoms: C2_2  and  C4_4 
REMARK    2  A    between atoms: C5_6  and  N2_7 
REMARK    3  A    between atoms: N2_7  and  S1_9 
REMARK    4  A    between atoms: C8_14  and  C9_15 
REMARK    5  A    between atoms: C15_22  and  C16_23 
REMARK    6  A    between atoms: C16_23  and  C17_24 
REMARK    7  A    between atoms: C18_25  and  C17_24 
REMARK    8  A    between atoms: C18_25  and  O3_26 
REMARK    9  A    between atoms: C18_25  and  C19_27 
REMARK   10  A    between atoms: C20_28  and  C19_27 
REMARK   11  A    between atoms: C20_28  and  O4_29 
REMARK   12  A    between atoms: C20_28  and  C21_30 
REMARK   13  A    between atoms: C21_30  and  C22_31 
REMARK       I    between atoms: C22_31  and  N4_33 
REMARK   14  A    between atoms: N4_33  and  O6_34 
ROOT
ATOM      1  C4  NON d   1     -40.196  20.304  -2.227  0.00  0.00     0.069 C 
ATOM      2  N1  NON d   1     -39.774  20.844  -0.963  0.00  0.00    -0.065 NA
ATOM      3  C5  NON d   1     -39.756  22.217  -0.781  0.00  0.00     0.738 C 
ATOM      4  N3  NON d   1     -40.135  23.031  -1.782  0.00  0.00    -0.060 NA
ATOM      5  C8  NON d   1     -40.519  22.495  -3.028  0.00  0.00     0.098 C 
ATOM      6  C15 NON d   1     -40.694  21.105  -3.271  0.00  0.00     0.020 C 
ENDROOT
BRANCH   6   7
ATOM      7  C16 NON d   1     -40.843  20.413  -4.608  0.00  0.00     0.014 C 
BRANCH   7   8
ATOM      8  C17 NON d   1     -41.402  19.269  -5.258  0.00  0.00     0.006 C 
BRANCH   8   9
ATOM      9  C18 NON d   1     -42.996  18.603  -4.593  0.00  0.00     0.143 C 
BRANCH   9  10
ATOM     10  O3  NON d   1     -42.929  17.171  -5.084  0.00  0.00    -0.392 OA
ATOM     11  H21 NON d   1     -43.435  16.642  -4.444  0.00  0.00     0.210 HD
ENDBRANCH   9  10
BRANCH   9  12
ATOM     12  C19 NON d   1     -44.390  18.879  -5.186  0.00  0.00     0.068 C 
BRANCH  12  13
ATOM     13  C20 NON d   1     -45.328  17.651  -5.435  0.00  0.00     0.129 C 
BRANCH  13  14
ATOM     14  O4  NON d   1     -46.311  18.003  -6.409  0.00  0.00    -0.395 OA
ATOM     15  H25 NON d   1     -47.014  17.317  -6.400  0.00  0.00     0.210 HD
ENDBRANCH  13  14
BRANCH  13  16
ATOM     16  C21 NON d   1     -45.941  16.878  -4.257  0.00  0.00     0.136 C 
BRANCH  16  17
ATOM     17  C22 NON d   1     -47.062  15.911  -4.593  0.00  0.00     0.243 C 
ATOM     18  O5  NON d   1     -47.392  15.655  -5.749  0.00  0.00    -0.271 OA
ATOM     19  N4  NON d   1     -47.682  15.419  -3.459  0.00  0.00    -0.237 N 
ATOM     20  H28 NON d   1     -47.293  15.498  -2.526  0.00  0.00     0.197 HD
BRANCH  19  21
ATOM     21  O6  NON d   1     -48.700  14.465  -3.641  0.00  0.00    -0.287 OA
ATOM     22  H29 NON d   1     -48.699  14.323  -4.606  0.00  0.00     0.244 HD
ENDBRANCH  19  21
ENDBRANCH  16  17
ENDBRANCH  13  16
ENDBRANCH  12  13
ENDBRANCH   9  12
ENDBRANCH   8   9
ENDBRANCH   7   8
ENDBRANCH   6   7
BRANCH   5  23
ATOM     23  C9  NON d   1     -40.523  23.545  -4.128  0.00  0.00    -0.006 A 
ATOM     24  C10 NON d   1     -41.115  24.810  -3.904  0.00  0.00     0.017 A 
ATOM     25  C11 NON d   1     -41.038  25.859  -4.835  0.00  0.00     0.043 A 
ATOM     26  C12 NON d   1     -40.348  25.675  -6.020  0.00  0.00     0.116 A 
ATOM     27  F1  NON d   1     -40.232  26.682  -6.894  0.00  0.00    -0.206 F 
ATOM     28  C13 NON d   1     -39.774  24.450  -6.304  0.00  0.00     0.043 A 
ATOM     29  C14 NON d   1     -39.891  23.396  -5.384  0.00  0.00     0.017 A 
ENDBRANCH   5  23
BRANCH   1  30
ATOM     30  C2  NON d   1     -40.211  18.683  -2.560  0.00  0.00     0.031 C 
ATOM     31  C1  NON d   1     -39.169  17.970  -3.442  0.00  0.00     0.016 C 
ATOM     32  C3  NON d   1     -41.451  17.917  -2.061  0.00  0.00     0.016 C 
ENDBRANCH   1  30
BRANCH   3  33
ATOM     33  N2  NON d   1     -39.430  22.916   0.592  0.00  0.00    -0.109 N 
ATOM     34  C6  NON d   1     -40.500  22.774   1.691  0.00  0.00     0.189 C 
BRANCH  33  35
ATOM     35  S1  NON d   1     -37.831  22.791   1.103  0.00  0.00     0.242 S 
ATOM     36  C7  NON d   1     -37.596  21.039   0.944  0.00  0.00     0.186 C 
ATOM     37  O1  NON d   1     -36.994  23.412   0.093  0.00  0.00    -0.205 OA
ATOM     38  O2  NON d   1     -37.692  23.170   2.494  0.00  0.00    -0.205 OA
ENDBRANCH  33  35
ENDBRANCH   3  33
TORSDOF 14
ENDMDL
MODEL 5
REMARK VINA RESULT:   -14.395      2.025      2.864
REMARK INTER + INTRA:         -21.440
REMARK INTER:                 -18.571
REMARK INTRA:                  -2.868
REMARK CONF_INDEPENDENT:        4.176
REMARK UNBOUND:                -2.868
REMARK  14 active torsions:
REMARK  status: ('A' for Active; 'I' for Inactive)
REMARK    1  A    between atoms: C2_2  and  C4_4 
REMARK    2  A    between atoms: C5_6  and  N2_7 
REMARK    3  A    between atoms: N2_7  and  S1_9 
REMARK    4  A    between atoms: C8_14  and  C9_15 
REMARK    5  A    between atoms: C15_22  and  C16_23 
REMARK    6  A    between atoms: C16_23  and  C17_24 
REMARK    7  A    between atoms: C18_25  and  C17_24 
REMARK    8  A    between atoms: C18_25  and  O3_26 
REMARK    9  A    between atoms: C18_25  and  C19_27 
REMARK   10  A    between atoms: C20_28  and  C19_27 
REMARK   11  A    between atoms: C20_28  and  O4_29 
REMARK   12  A    between atoms: C20_28  and  C21_30 
REMARK   13  A    between atoms: C21_30  and  C22_31 
REMARK       I    between atoms: C22_31  and  N4_33 
REMARK   14  A    between atoms: N4_33  and  O6_34 
ROOT
ATOM      1  C4  NON d   1     -40.108  21.240  -2.079  0.00  0.00     0.069 C 
ATOM      2  N1  NON d   1     -40.110  21.973  -0.842  0.00  0.00    -0.065 NA
ATOM      3  C5  NON d   1     -40.172  23.358  -0.872  0.00  0.00     0.738 C 
ATOM      4  N3  NON d   1     -40.231  24.001  -2.051  0.00  0.00    -0.060 NA
ATOM      5  C8  NON d   1     -40.197  23.276  -3.260  0.00  0.00     0.098 C 
ATOM      6  C15 NON d   1     -40.265  21.858  -3.334  0.00  0.00     0.020 C 
ENDROOT
BRANCH   6   7
ATOM      7  C16 NON d   1     -39.978  20.981  -4.532  0.00  0.00     0.014 C 
BRANCH   7   8
ATOM      8  C17 NON d   1     -40.570  20.074  -5.466  0.00  0.00     0.006 C 
BRANCH   8   9
ATOM      9  C18 NON d   1     -41.598  18.695  -4.784  0.00  0.00     0.143 C 
BRANCH   9  10
ATOM     10  O3  NON d   1     -41.376  17.629  -5.837  0.00  0.00    -0.392 OA
ATOM     11  H21 NON d   1     -41.164  16.812  -5.354  0.00  0.00     0.210 HD
ENDBRANCH   9  10
BRANCH   9  12
ATOM     12  C19 NON d   1     -43.135  18.619  -4.845  0.00  0.00     0.068 C 
BRANCH  12  13
ATOM     13  C20 NON d   1     -43.819  17.319  -4.304  0.00  0.00     0.129 C 
BRANCH  13  14
ATOM     14  O4  NON d   1     -43.362  16.199  -5.063  0.00  0.00    -0.395 OA
ATOM     15  H25 NON d   1     -42.719  16.521  -5.731  0.00  0.00     0.210 HD
ENDBRANCH  13  14
BRANCH  13  16
ATOM     16  C21 NON d   1     -45.336  17.269  -4.066  0.00  0.00     0.136 C 
BRANCH  16  17
ATOM     17  C22 NON d   1     -46.194  16.871  -5.254  0.00  0.00     0.243 C 
ATOM     18  O5  NON d   1     -46.426  17.635  -6.189  0.00  0.00    -0.271 OA
ATOM     19  N4  NON d   1     -46.712  15.597  -5.118  0.00  0.00    -0.237 N 
ATOM     20  H28 NON d   1     -46.376  14.923  -4.440  0.00  0.00     0.197 HD
BRANCH  19  21
ATOM     21  O6  NON d   1     -47.476  15.091  -6.185  0.00  0.00    -0.287 OA
ATOM     22  H29 NON d   1     -47.950  15.880  -6.510  0.00  0.00     0.244 HD
ENDBRANCH  19  21
ENDBRANCH  16  17
ENDBRANCH  13  16
ENDBRANCH  12  13
ENDBRANCH   9  12
ENDBRANCH   8   9
ENDBRANCH   7   8
ENDBRANCH   6   7
BRANCH   5  23
ATOM     23  C9  NON d   1     -39.873  24.162  -4.452  0.00  0.00    -0.006 A 
ATOM     24  C10 NON d   1     -40.703  25.263  -4.769  0.00  0.00     0.017 A 
ATOM     25  C11 NON d   1     -40.386  26.186  -5.778  0.00  0.00     0.043 A 
ATOM     26  C12 NON d   1     -39.210  26.043  -6.494  0.00  0.00     0.116 A 
ATOM     27  F1  NON d   1     -38.878  26.943  -7.428  0.00  0.00    -0.206 F 
ATOM     28  C13 NON d   1     -38.375  24.969  -6.246  0.00  0.00     0.043 A 
ATOM     29  C14 NON d   1     -38.722  24.030  -5.263  0.00  0.00     0.017 A 
ENDBRANCH   5  23
BRANCH   1  30
ATOM     30  C2  NON d   1     -39.992  19.591  -2.153  0.00  0.00     0.031 C 
ATOM     31  C1  NON d   1     -41.065  18.622  -1.620  0.00  0.00     0.016 C 
ATOM     32  C3  NON d   1     -38.642  19.045  -2.653  0.00  0.00     0.016 C 
ENDBRANCH   1  30
BRANCH   3  33
ATOM     33  N2  NON d   1     -40.304  24.257   0.414  0.00  0.00    -0.109 N 
ATOM     34  C6  NON d   1     -41.335  25.398   0.336  0.00  0.00     0.189 C 
BRANCH  33  35
ATOM     35  S1  NON d   1     -40.228  23.434   1.880  0.00  0.00     0.242 S 
ATOM     36  C7  NON d   1     -38.917  24.333   2.668  0.00  0.00     0.186 C 
ATOM     37  O1  NON d   1     -41.439  23.738   2.621  0.00  0.00    -0.205 OA
ATOM     38  O2  NON d   1     -39.821  22.058   1.691  0.00  0.00    -0.205 OA
ENDBRANCH  33  35
ENDBRANCH   3  33
TORSDOF 14
ENDMDL
MODEL 6
REMARK VINA RESULT:   -14.342      2.661      3.336
REMARK INTER + INTRA:         -21.410
REMARK INTER:                 -18.518
REMARK INTRA:                  -2.892
REMARK CONF_INDEPENDENT:        4.176
REMARK UNBOUND:                -2.892
REMARK  14 active torsions:
REMARK  status: ('A' for Active; 'I' for Inactive)
REMARK    1  A    between atoms: C2_2  and  C4_4 
REMARK    2  A    between atoms: C5_6  and  N2_7 
REMARK    3  A    between atoms: N2_7  and  S1_9 
REMARK    4  A    between atoms: C8_14  and  C9_15 
REMARK    5  A    between atoms: C15_22  and  C16_23 
REMARK    6  A    between atoms: C16_23  and  C17_24 
REMARK    7  A    between atoms: C18_25  and  C17_24 
REMARK    8  A    between atoms: C18_25  and  O3_26 
REMARK    9  A    between atoms: C18_25  and  C19_27 
REMARK   10  A    between atoms: C20_28  and  C19_27 
REMARK   11  A    between atoms: C20_28  and  O4_29 
REMARK   12  A    between atoms: C20_28  and  C21_30 
REMARK   13  A    between atoms: C21_30  and  C22_31 
REMARK       I    between atoms: C22_31  and  N4_33 
REMARK   14  A    between atoms: N4_33  and  O6_34 
ROOT
ATOM      1  C4  NON d   1     -39.976  22.070  -2.202  0.00  0.00     0.069 C 
ATOM      2  N1  NON d   1     -40.269  23.453  -2.465  0.00  0.00    -0.065 NA
ATOM      3  C5  NON d   1     -40.608  23.845  -3.750  0.00  0.00     0.738 C 
ATOM      4  N3  NON d   1     -40.662  22.932  -4.737  0.00  0.00    -0.060 NA
ATOM      5  C8  NON d   1     -40.343  21.583  -4.477  0.00  0.00     0.098 C 
ATOM      6  C15 NON d   1     -40.112  21.062  -3.174  0.00  0.00     0.020 C 
ENDROOT
BRANCH   6   7
ATOM      7  C16 NON d   1     -39.516  19.721  -2.808  0.00  0.00     0.014 C 
BRANCH   7   8
ATOM      8  C17 NON d   1     -39.699  18.307  -2.927  0.00  0.00     0.006 C 
BRANCH   8   9
ATOM      9  C18 NON d   1     -41.265  17.711  -3.712  0.00  0.00     0.143 C 
BRANCH   9  10
ATOM     10  O3  NON d   1     -41.078  18.211  -5.130  0.00  0.00    -0.392 OA
ATOM     11  H21 NON d   1     -40.760  17.450  -5.645  0.00  0.00     0.210 HD
ENDBRANCH   9  10
BRANCH   9  12
ATOM     12  C19 NON d   1     -42.651  18.356  -3.529  0.00  0.00     0.068 C 
BRANCH  12  13
ATOM     13  C20 NON d   1     -43.749  18.029  -4.595  0.00  0.00     0.129 C 
BRANCH  13  14
ATOM     14  O4  NON d   1     -44.254  19.250  -5.137  0.00  0.00    -0.395 OA
ATOM     15  H25 NON d   1     -45.230  19.174  -5.213  0.00  0.00     0.210 HD
ENDBRANCH  13  14
BRANCH  13  16
ATOM     16  C21 NON d   1     -44.876  17.032  -4.283  0.00  0.00     0.136 C 
BRANCH  16  17
ATOM     17  C22 NON d   1     -45.947  16.868  -5.346  0.00  0.00     0.243 C 
ATOM     18  O5  NON d   1     -46.188  17.735  -6.183  0.00  0.00    -0.271 OA
ATOM     19  N4  NON d   1     -46.634  15.676  -5.214  0.00  0.00    -0.237 N 
ATOM     20  H28 NON d   1     -46.314  14.903  -4.640  0.00  0.00     0.197 HD
BRANCH  19  21
ATOM     21  O6  NON d   1     -47.614  15.381  -6.180  0.00  0.00    -0.287 OA
ATOM     22  H29 NON d   1     -47.298  15.863  -6.967  0.00  0.00     0.244 HD
ENDBRANCH  19  21
ENDBRANCH  16  17
ENDBRANCH  13  16
ENDBRANCH  12  13
ENDBRANCH   9  12
ENDBRANCH   8   9
ENDBRANCH   7   8
ENDBRANCH   6   7
BRANCH   5  23
ATOM     23  C9  NON d   1     -40.072  20.801  -5.752  0.00  0.00    -0.006 A 
ATOM     24  C10 NON d   1     -38.922  19.983  -5.855  0.00  0.00     0.017 A 
ATOM     25  C11 NON d   1     -38.685  19.143  -6.955  0.00  0.00     0.043 A 
ATOM     26  C12 NON d   1     -39.608  19.085  -7.985  0.00  0.00     0.116 A 
ATOM     27  F1  NON d   1     -39.413  18.255  -9.017  0.00  0.00    -0.206 F 
ATOM     28  C13 NON d   1     -40.735  19.884  -7.950  0.00  0.00     0.043 A 
ATOM     29  C14 NON d   1     -40.942  20.750  -6.864  0.00  0.00     0.017 A 
ENDBRANCH   5  23
BRANCH   1  30
ATOM     30  C2  NON d   1     -39.519  21.509  -0.713  0.00  0.00     0.031 C 
ATOM     31  C1  NON d   1     -40.392  21.600   0.552  0.00  0.00     0.016 C 
ATOM     32  C3  NON d   1     -38.063  21.019  -0.610  0.00  0.00     0.016 C 
ENDBRANCH   1  30
BRANCH   3  33
ATOM     33  N2  NON d   1     -41.066  25.302  -4.131  0.00  0.00    -0.109 N 
ATOM     34  C6  NON d   1     -41.276  26.272  -2.953  0.00  0.00     0.189 C 
BRANCH  33  35
ATOM     35  S1  NON d   1     -40.333  25.954  -5.499  0.00  0.00     0.242 S 
ATOM     36  C7  NON d   1     -39.265  27.146  -4.734  0.00  0.00     0.186 C 
ATOM     37  O1  NON d   1     -39.471  24.934  -6.068  0.00  0.00    -0.205 OA
ATOM     38  O2  NON d   1     -41.296  26.639  -6.336  0.00  0.00    -0.205 OA
ENDBRANCH  33  35
ENDBRANCH   3  33
TORSDOF 14
ENDMDL
MODEL 7
REMARK VINA RESULT:   -14.285      3.758      5.333
REMARK INTER + INTRA:         -21.808
REMARK INTER:                 -18.461
REMARK INTRA:                  -3.347
REMARK CONF_INDEPENDENT:        4.176
REMARK UNBOUND:                -3.347
REMARK  14 active torsions:
REMARK  status: ('A' for Active; 'I' for Inactive)
REMARK    1  A    between atoms: C2_2  and  C4_4 
REMARK    2  A    between atoms: C5_6  and  N2_7 
REMARK    3  A    between atoms: N2_7  and  S1_9 
REMARK    4  A    between atoms: C8_14  and  C9_15 
REMARK    5  A    between atoms: C15_22  and  C16_23 
REMARK    6  A    between atoms: C16_23  and  C17_24 
REMARK    7  A    between atoms: C18_25  and  C17_24 
REMARK    8  A    between atoms: C18_25  and  O3_26 
REMARK    9  A    between atoms: C18_25  and  C19_27 
REMARK   10  A    between atoms: C20_28  and  C19_27 
REMARK   11  A    between atoms: C20_28  and  O4_29 
REMARK   12  A    between atoms: C20_28  and  C21_30 
REMARK   13  A    between atoms: C21_30  and  C22_31 
REMARK       I    between atoms: C22_31  and  N4_33 
REMARK   14  A    between atoms: N4_33  and  O6_34 
ROOT
ATOM      1  C4  NON d   1     -39.933  21.245  -6.809  0.00  0.00     0.069 C 
ATOM      2  N1  NON d   1     -39.493  22.504  -7.346  0.00  0.00    -0.065 NA
ATOM      3  C5  NON d   1     -39.179  23.541  -6.481  0.00  0.00     0.738 C 
ATOM      4  N3  NON d   1     -39.285  23.361  -5.153  0.00  0.00    -0.060 NA
ATOM      5  C8  NON d   1     -39.745  22.133  -4.636  0.00  0.00     0.098 C 
ATOM      6  C15 NON d   1     -39.967  20.974  -5.429  0.00  0.00     0.020 C 
ENDROOT
BRANCH   6   7
ATOM      7  C16 NON d   1     -40.696  19.708  -5.032  0.00  0.00     0.014 C 
BRANCH   7   8
ATOM      8  C17 NON d   1     -41.702  19.182  -4.163  0.00  0.00     0.006 C 
BRANCH   8   9
ATOM      9  C18 NON d   1     -43.144  18.327  -4.945  0.00  0.00     0.143 C 
BRANCH   9  10
ATOM     10  O3  NON d   1     -43.714  19.449  -5.789  0.00  0.00    -0.392 OA
ATOM     11  H21 NON d   1     -44.659  19.248  -5.903  0.00  0.00     0.210 HD
ENDBRANCH   9  10
BRANCH   9  12
ATOM     12  C19 NON d   1     -44.476  18.006  -4.240  0.00  0.00     0.068 C 
BRANCH  12  13
ATOM     13  C20 NON d   1     -45.459  17.024  -4.960  0.00  0.00     0.129 C 
BRANCH  13  14
ATOM     14  O4  NON d   1     -45.971  17.651  -6.136  0.00  0.00    -0.395 OA
ATOM     15  H25 NON d   1     -46.262  16.949  -6.758  0.00  0.00     0.210 HD
ENDBRANCH  13  14
BRANCH  13  16
ATOM     16  C21 NON d   1     -46.560  16.297  -4.173  0.00  0.00     0.136 C 
BRANCH  16  17
ATOM     17  C22 NON d   1     -47.597  15.551  -4.993  0.00  0.00     0.243 C 
ATOM     18  O5  NON d   1     -47.425  15.264  -6.175  0.00  0.00    -0.271 OA
ATOM     19  N4  NON d   1     -48.749  15.299  -4.271  0.00  0.00    -0.237 N 
ATOM     20  H28 NON d   1     -48.810  15.381  -3.262  0.00  0.00     0.197 HD
BRANCH  19  21
ATOM     21  O6  NON d   1     -49.762  14.558  -4.906  0.00  0.00    -0.287 OA
ATOM     22  H29 NON d   1     -49.523  14.622  -5.850  0.00  0.00     0.244 HD
ENDBRANCH  19  21
ENDBRANCH  16  17
ENDBRANCH  13  16
ENDBRANCH  12  13
ENDBRANCH   9  12
ENDBRANCH   8   9
ENDBRANCH   7   8
ENDBRANCH   6   7
BRANCH   5  23
ATOM     23  C9  NON d   1     -40.173  22.246  -3.181  0.00  0.00    -0.006 A 
ATOM     24  C10 NON d   1     -39.761  21.275  -2.238  0.00  0.00     0.017 A 
ATOM     25  C11 NON d   1     -40.019  21.395  -0.864  0.00  0.00     0.043 A 
ATOM     26  C12 NON d   1     -40.689  22.507  -0.386  0.00  0.00     0.116 A 
ATOM     27  F1  NON d   1     -40.902  22.652   0.928  0.00  0.00    -0.206 F 
ATOM     28  C13 NON d   1     -41.141  23.474  -1.265  0.00  0.00     0.043 A 
ATOM     29  C14 NON d   1     -40.912  23.324  -2.642  0.00  0.00     0.017 A 
ENDBRANCH   5  23
BRANCH   1  30
ATOM     30  C2  NON d   1     -40.373  19.961  -7.756  0.00  0.00     0.031 C 
ATOM     31  C1  NON d   1     -39.680  18.585  -7.729  0.00  0.00     0.016 C 
ATOM     32  C3  NON d   1     -41.443  20.262  -8.822  0.00  0.00     0.016 C 
ENDBRANCH   1  30
BRANCH   3  33
ATOM     33  N2  NON d   1     -38.574  24.918  -6.947  0.00  0.00    -0.109 N 
ATOM     34  C6  NON d   1     -37.066  25.108  -6.702  0.00  0.00     0.189 C 
BRANCH  33  35
ATOM     35  S1  NON d   1     -39.161  25.505  -8.411  0.00  0.00     0.242 S 
ATOM     36  C7  NON d   1     -40.657  26.278  -7.852  0.00  0.00     0.186 C 
ATOM     37  O1  NON d   1     -38.281  26.577  -8.842  0.00  0.00    -0.205 OA
ATOM     38  O2  NON d   1     -39.487  24.426  -9.319  0.00  0.00    -0.205 OA
ENDBRANCH  33  35
ENDBRANCH   3  33
TORSDOF 14
ENDMDL
MODEL 8
REMARK VINA RESULT:   -14.283      3.701      5.392
REMARK INTER + INTRA:         -21.533
REMARK INTER:                 -18.459
REMARK INTRA:                  -3.074
REMARK CONF_INDEPENDENT:        4.176
REMARK UNBOUND:                -3.074
REMARK  14 active torsions:
REMARK  status: ('A' for Active; 'I' for Inactive)
REMARK    1  A    between atoms: C2_2  and  C4_4 
REMARK    2  A    between atoms: C5_6  and  N2_7 
REMARK    3  A    between atoms: N2_7  and  S1_9 
REMARK    4  A    between atoms: C8_14  and  C9_15 
REMARK    5  A    between atoms: C15_22  and  C16_23 
REMARK    6  A    between atoms: C16_23  and  C17_24 
REMARK    7  A    between atoms: C18_25  and  C17_24 
REMARK    8  A    between atoms: C18_25  and  O3_26 
REMARK    9  A    between atoms: C18_25  and  C19_27 
REMARK   10  A    between atoms: C20_28  and  C19_27 
REMARK   11  A    between atoms: C20_28  and  O4_29 
REMARK   12  A    between atoms: C20_28  and  C21_30 
REMARK   13  A    between atoms: C21_30  and  C22_31 
REMARK       I    between atoms: C22_31  and  N4_33 
REMARK   14  A    between atoms: N4_33  and  O6_34 
ROOT
ATOM      1  C4  NON d   1     -40.052  21.635  -6.274  0.00  0.00     0.069 C 
ATOM      2  N1  NON d   1     -40.076  22.981  -6.780  0.00  0.00    -0.065 NA
ATOM      3  C5  NON d   1     -40.007  24.043  -5.893  0.00  0.00     0.738 C 
ATOM      4  N3  NON d   1     -39.915  23.809  -4.572  0.00  0.00    -0.060 NA
ATOM      5  C8  NON d   1     -39.923  22.486  -4.082  0.00  0.00     0.098 C 
ATOM      6  C15 NON d   1     -39.860  21.335  -4.913  0.00  0.00     0.020 C 
ENDROOT
BRANCH   6   7
ATOM      7  C16 NON d   1     -40.123  19.897  -4.521  0.00  0.00     0.014 C 
BRANCH   7   8
ATOM      8  C17 NON d   1     -40.303  19.021  -3.405  0.00  0.00     0.006 C 
BRANCH   8   9
ATOM      9  C18 NON d   1     -41.523  17.642  -3.591  0.00  0.00     0.143 C 
BRANCH   9  10
ATOM     10  O3  NON d   1     -41.828  17.732  -5.072  0.00  0.00    -0.392 OA
ATOM     11  H21 NON d   1     -42.253  18.596  -5.208  0.00  0.00     0.210 HD
ENDBRANCH   9  10
BRANCH   9  12
ATOM     12  C19 NON d   1     -42.998  17.695  -3.151  0.00  0.00     0.068 C 
BRANCH  12  13
ATOM     13  C20 NON d   1     -44.091  17.597  -4.266  0.00  0.00     0.129 C 
BRANCH  13  14
ATOM     14  O4  NON d   1     -44.265  18.882  -4.866  0.00  0.00    -0.395 OA
ATOM     15  H25 NON d   1     -45.200  18.964  -5.154  0.00  0.00     0.210 HD
ENDBRANCH  13  14
BRANCH  13  16
ATOM     16  C21 NON d   1     -45.436  16.908  -3.991  0.00  0.00     0.136 C 
BRANCH  16  17
ATOM     17  C22 NON d   1     -46.323  16.649  -5.196  0.00  0.00     0.243 C 
ATOM     18  O5  NON d   1     -46.448  17.459  -6.112  0.00  0.00    -0.271 OA
ATOM     19  N4  NON d   1     -46.995  15.445  -5.099  0.00  0.00    -0.237 N 
ATOM     20  H28 NON d   1     -46.753  14.718  -4.436  0.00  0.00     0.197 HD
BRANCH  19  21
ATOM     21  O6  NON d   1     -47.804  15.066  -6.186  0.00  0.00    -0.287 OA
ATOM     22  H29 NON d   1     -48.146  15.919  -6.514  0.00  0.00     0.244 HD
ENDBRANCH  19  21
ENDBRANCH  16  17
ENDBRANCH  13  16
ENDBRANCH  12  13
ENDBRANCH   9  12
ENDBRANCH   8   9
ENDBRANCH   7   8
ENDBRANCH   6   7
BRANCH   5  23
ATOM     23  C9  NON d   1     -40.214  22.428  -2.591  0.00  0.00    -0.006 A 
ATOM     24  C10 NON d   1     -39.487  21.545  -1.757  0.00  0.00     0.017 A 
ATOM     25  C11 NON d   1     -39.624  21.538  -0.359  0.00  0.00     0.043 A 
ATOM     26  C12 NON d   1     -40.486  22.432   0.251  0.00  0.00     0.116 A 
ATOM     27  F1  NON d   1     -40.591  22.462   1.585  0.00  0.00    -0.206 F 
ATOM     28  C13 NON d   1     -41.243  23.297  -0.517  0.00  0.00     0.043 A 
ATOM     29  C14 NON d   1     -41.128  23.269  -1.916  0.00  0.00     0.017 A 
ENDBRANCH   5  23
BRANCH   1  30
ATOM     30  C2  NON d   1     -40.173  20.301  -7.245  0.00  0.00     0.031 C 
ATOM     31  C1  NON d   1     -39.082  19.222  -7.376  0.00  0.00     0.016 C 
ATOM     32  C3  NON d   1     -41.405  20.266  -8.170  0.00  0.00     0.016 C 
ENDBRANCH   1  30
BRANCH   3  33
ATOM     33  N2  NON d   1     -39.903  25.551  -6.336  0.00  0.00    -0.109 N 
ATOM     34  C6  NON d   1     -38.990  26.444  -5.476  0.00  0.00     0.189 C 
BRANCH  33  35
ATOM     35  S1  NON d   1     -39.831  25.810  -7.997  0.00  0.00     0.242 S 
ATOM     36  C7  NON d   1     -38.079  25.690  -8.250  0.00  0.00     0.186 C 
ATOM     37  O1  NON d   1     -40.421  24.656  -8.651  0.00  0.00    -0.205 OA
ATOM     38  O2  NON d   1     -40.277  27.144  -8.341  0.00  0.00    -0.205 OA
ENDBRANCH  33  35
ENDBRANCH   3  33
TORSDOF 14
ENDMDL
MODEL 9
REMARK VINA RESULT:   -13.914      4.320      5.950
REMARK INTER + INTRA:         -21.566
REMARK INTER:                 -18.090
REMARK INTRA:                  -3.476
REMARK CONF_INDEPENDENT:        4.176
REMARK UNBOUND:                -3.476
REMARK  14 active torsions:
REMARK  status: ('A' for Active; 'I' for Inactive)
REMARK    1  A    between atoms: C2_2  and  C4_4 
REMARK    2  A    between atoms: C5_6  and  N2_7 
REMARK    3  A    between atoms: N2_7  and  S1_9 
REMARK    4  A    between atoms: C8_14  and  C9_15 
REMARK    5  A    between atoms: C15_22  and  C16_23 
REMARK    6  A    between atoms: C16_23  and  C17_24 
REMARK    7  A    between atoms: C18_25  and  C17_24 
REMARK    8  A    between atoms: C18_25  and  O3_26 
REMARK    9  A    between atoms: C18_25  and  C19_27 
REMARK   10  A    between atoms: C20_28  and  C19_27 
REMARK   11  A    between atoms: C20_28  and  O4_29 
REMARK   12  A    between atoms: C20_28  and  C21_30 
REMARK   13  A    between atoms: C21_30  and  C22_31 
REMARK       I    between atoms: C22_31  and  N4_33 
REMARK   14  A    between atoms: N4_33  and  O6_34 
ROOT
ATOM      1  C4  NON d   1     -39.026  20.673  -7.869  0.00  0.00     0.069 C 
ATOM      2  N1  NON d   1     -39.404  21.585  -8.915  0.00  0.00    -0.065 NA
ATOM      3  C5  NON d   1     -39.776  22.879  -8.589  0.00  0.00     0.738 C 
ATOM      4  N3  NON d   1     -39.779  23.272  -7.303  0.00  0.00    -0.060 NA
ATOM      5  C8  NON d   1     -39.436  22.363  -6.280  0.00  0.00     0.098 C 
ATOM      6  C15 NON d   1     -38.918  21.061  -6.521  0.00  0.00     0.020 C 
ENDROOT
BRANCH   6   7
ATOM      7  C16 NON d   1     -38.768  19.929  -5.528  0.00  0.00     0.014 C 
BRANCH   7   8
ATOM      8  C17 NON d   1     -39.487  19.084  -4.626  0.00  0.00     0.006 C 
BRANCH   8   9
ATOM      9  C18 NON d   1     -41.109  18.404  -5.201  0.00  0.00     0.143 C 
BRANCH   9  10
ATOM     10  O3  NON d   1     -41.684  19.611  -5.913  0.00  0.00    -0.392 OA
ATOM     11  H21 NON d   1     -42.395  19.949  -5.342  0.00  0.00     0.210 HD
ENDBRANCH   9  10
BRANCH   9  12
ATOM     12  C19 NON d   1     -42.344  18.180  -4.308  0.00  0.00     0.068 C 
BRANCH  12  13
ATOM     13  C20 NON d   1     -43.735  18.050  -5.014  0.00  0.00     0.129 C 
BRANCH  13  14
ATOM     14  O4  NON d   1     -44.271  19.355  -5.237  0.00  0.00    -0.395 OA
ATOM     15  H25 NON d   1     -45.250  19.300  -5.184  0.00  0.00     0.210 HD
ENDBRANCH  13  14
BRANCH  13  16
ATOM     16  C21 NON d   1     -44.799  17.078  -4.483  0.00  0.00     0.136 C 
BRANCH  16  17
ATOM     17  C22 NON d   1     -46.024  16.872  -5.356  0.00  0.00     0.243 C 
ATOM     18  O5  NON d   1     -46.383  17.693  -6.197  0.00  0.00    -0.271 OA
ATOM     19  N4  NON d   1     -46.693  15.703  -5.047  0.00  0.00    -0.237 N 
ATOM     20  H28 NON d   1     -46.296  14.959  -4.484  0.00  0.00     0.197 HD
BRANCH  19  21
ATOM     21  O6  NON d   1     -47.813  15.371  -5.831  0.00  0.00    -0.287 OA
ATOM     22  H29 NON d   1     -48.173  16.243  -6.081  0.00  0.00     0.244 HD
ENDBRANCH  19  21
ENDBRANCH  16  17
ENDBRANCH  13  16
ENDBRANCH  12  13
ENDBRANCH   9  12
ENDBRANCH   8   9
ENDBRANCH   7   8
ENDBRANCH   6   7
BRANCH   5  23
ATOM     23  C9  NON d   1     -39.875  22.850  -4.908  0.00  0.00    -0.006 A 
ATOM     24  C10 NON d   1     -39.714  24.209  -4.549  0.00  0.00     0.017 A 
ATOM     25  C11 NON d   1     -40.212  24.740  -3.349  0.00  0.00     0.043 A 
ATOM     26  C12 NON d   1     -40.906  23.923  -2.473  0.00  0.00     0.116 A 
ATOM     27  F1  NON d   1     -41.423  24.430  -1.347  0.00  0.00    -0.206 F 
ATOM     28  C13 NON d   1     -41.068  22.580  -2.760  0.00  0.00     0.043 A 
ATOM     29  C14 NON d   1     -40.531  22.051  -3.944  0.00  0.00     0.017 A 
ENDBRANCH   5  23
BRANCH   1  30
ATOM     30  C2  NON d   1     -38.608  19.097  -8.150  0.00  0.00     0.031 C 
ATOM     31  C1  NON d   1     -39.621  17.954  -8.349  0.00  0.00     0.016 C 
ATOM     32  C3  NON d   1     -37.105  18.782  -8.039  0.00  0.00     0.016 C 
ENDBRANCH   1  30
BRANCH   3  33
ATOM     33  N2  NON d   1     -40.091  23.996  -9.653  0.00  0.00    -0.109 N 
ATOM     34  C6  NON d   1     -40.468  25.378  -9.088  0.00  0.00     0.189 C 
BRANCH  33  35
ATOM     35  S1  NON d   1     -39.091  24.003 -11.007  0.00  0.00     0.242 S 
ATOM     36  C7  NON d   1     -39.562  22.459 -11.743  0.00  0.00     0.186 C 
ATOM     37  O1  NON d   1     -39.563  25.046 -11.901  0.00  0.00    -0.205 OA
ATOM     38  O2  NON d   1     -37.694  23.950 -10.630  0.00  0.00    -0.205 OA
ENDBRANCH  33  35
ENDBRANCH   3  33
TORSDOF 14
ENDMDL
