MODEL 1
REMARK VINA RESULT:   -14.837      0.000      0.000
REMARK INTER + INTRA:         -18.088
REMARK INTER:                 -16.925
REMARK INTRA:                  -1.162
REMARK CONF_INDEPENDENT:        2.088
REMARK UNBOUND:                -1.162
REMARK  7 active torsions:
REMARK  status: ('A' for Active; 'I' for Inactive)
REMARK    1  A    between atoms: C2_2  and  C3_3 
REMARK    2  A    between atoms: C3_3  and  C4_4 
REMARK    3  A    between atoms: C4_4  and  S1_5 
REMARK    4  A    between atoms: S1_5  and  N1_8 
REMARK    5  A    between atoms: C9_13  and  C10_14 
REMARK    6  A    between atoms: C11_15  and  C12_16 
REMARK       I    between atoms: C12_16  and  N2_18 
REMARK    7  A    between atoms: N2_18  and  O4_19 
ROOT
ATOM      1  N1  NON d   1     -45.321  17.300  -4.898  0.00  0.00    -0.302 N 
ATOM      2  C5  NON d   1     -44.754  18.564  -5.430  0.00  0.00     0.174 C 
ATOM      3  C6  NON d   1     -43.393  18.653  -4.784  0.00  0.00    -0.032 A 
ATOM      4  C7  NON d   1     -42.496  19.704  -4.776  0.00  0.00     0.010 A 
ATOM      5  C8  NON d   1     -41.295  19.550  -4.066  0.00  0.00     0.012 A 
ATOM      6  C9  NON d   1     -40.983  18.357  -3.371  0.00  0.00    -0.035 A 
ATOM      7  C13 NON d   1     -41.911  17.304  -3.405  0.00  0.00     0.021 A 
ATOM      8  C14 NON d   1     -43.101  17.467  -4.109  0.00  0.00    -0.031 A 
ATOM      9  C15 NON d   1     -44.241  16.507  -4.271  0.00  0.00     0.174 C 
ENDROOT
BRANCH   6  10
ATOM     10  C10 NON d   1     -39.701  18.300  -2.632  0.00  0.00     0.017 C 
ATOM     11  C11 NON d   1     -38.466  18.255  -3.162  0.00  0.00     0.077 C 
BRANCH  11  12
ATOM     12  C12 NON d   1     -37.257  18.182  -2.288  0.00  0.00     0.264 C 
ATOM     13  O3  NON d   1     -36.374  17.346  -2.444  0.00  0.00    -0.266 OA
ATOM     14  N2  NON d   1     -37.256  19.147  -1.310  0.00  0.00    -0.234 N 
ATOM     15  H16 NON d   1     -38.077  19.687  -1.066  0.00  0.00     0.197 HD
BRANCH  14  16
ATOM     16  O4  NON d   1     -36.301  19.007  -0.281  0.00  0.00    -0.287 OA
ATOM     17  H17 NON d   1     -36.207  18.038  -0.213  0.00  0.00     0.244 HD
ENDBRANCH  14  16
ENDBRANCH  11  12
ENDBRANCH   6  10
BRANCH   1  18
ATOM     18  S1  NON d   1     -46.665  16.656  -5.286  0.00  0.00     0.229 S 
ATOM     19  O1  NON d   1     -46.965  17.788  -6.185  0.00  0.00    -0.206 OA
ATOM     20  O2  NON d   1     -45.945  15.479  -5.813  0.00  0.00    -0.206 OA
BRANCH  18  21
ATOM     21  C4  NON d   1     -48.009  16.013  -5.674  0.00  0.00     0.163 C 
BRANCH  21  22
ATOM     22  C3  NON d   1     -48.699  15.157  -4.599  0.00  0.00     0.016 C 
BRANCH  22  23
ATOM     23  C2  NON d   1     -49.351  15.990  -3.490  0.00  0.00    -0.004 C 
ATOM     24  C1  NON d   1     -48.369  16.514  -2.452  0.00  0.00     0.005 C 
ENDBRANCH  22  23
ENDBRANCH  21  22
ENDBRANCH  18  21
ENDBRANCH   1  18
TORSDOF 7
ENDMDL
MODEL 2
REMARK VINA RESULT:   -14.260      2.605      3.185
REMARK INTER + INTRA:         -17.708
REMARK INTER:                 -16.349
REMARK INTRA:                  -1.359
REMARK CONF_INDEPENDENT:        2.088
REMARK UNBOUND:                -1.359
REMARK  7 active torsions:
REMARK  status: ('A' for Active; 'I' for Inactive)
REMARK    1  A    between atoms: C2_2  and  C3_3 
REMARK    2  A    between atoms: C3_3  and  C4_4 
REMARK    3  A    between atoms: C4_4  and  S1_5 
REMARK    4  A    between atoms: S1_5  and  N1_8 
REMARK    5  A    between atoms: C9_13  and  C10_14 
REMARK    6  A    between atoms: C11_15  and  C12_16 
REMARK       I    between atoms: C12_16  and  N2_18 
REMARK    7  A    between atoms: N2_18  and  O4_19 
ROOT
ATOM      1  N1  NON d   1     -45.181  16.942  -4.981  0.00  0.00    -0.302 N 
ATOM      2  C5  NON d   1     -44.226  16.509  -3.932  0.00  0.00     0.174 C 
ATOM      3  C6  NON d   1     -43.097  17.505  -4.032  0.00  0.00    -0.032 A 
ATOM      4  C7  NON d   1     -41.858  17.487  -3.421  0.00  0.00     0.010 A 
ATOM      5  C8  NON d   1     -40.959  18.527  -3.707  0.00  0.00     0.012 A 
ATOM      6  C9  NON d   1     -41.289  19.582  -4.590  0.00  0.00    -0.035 A 
ATOM      7  C13 NON d   1     -42.560  19.577  -5.188  0.00  0.00     0.021 A 
ATOM      8  C14 NON d   1     -43.443  18.539  -4.903  0.00  0.00    -0.031 A 
ATOM      9  C15 NON d   1     -44.828  18.307  -5.428  0.00  0.00     0.174 C 
ENDROOT
BRANCH   6  10
ATOM     10  C10 NON d   1     -40.265  20.620  -4.845  0.00  0.00     0.017 C 
ATOM     11  C11 NON d   1     -40.436  21.953  -4.784  0.00  0.00     0.077 C 
BRANCH  11  12
ATOM     12  C12 NON d   1     -39.308  22.886  -5.085  0.00  0.00     0.264 C 
ATOM     13  O3  NON d   1     -39.208  23.484  -6.152  0.00  0.00    -0.266 OA
ATOM     14  N2  NON d   1     -38.419  22.991  -4.043  0.00  0.00    -0.234 N 
ATOM     15  H16 NON d   1     -38.402  22.344  -3.265  0.00  0.00     0.197 HD
BRANCH  14  16
ATOM     16  O4  NON d   1     -37.195  23.637  -4.316  0.00  0.00    -0.287 OA
ATOM     17  H17 NON d   1     -37.402  24.146  -5.122  0.00  0.00     0.244 HD
ENDBRANCH  14  16
ENDBRANCH  11  12
ENDBRANCH   6  10
BRANCH   1  18
ATOM     18  S1  NON d   1     -46.566  16.336  -5.275  0.00  0.00     0.229 S 
ATOM     19  O1  NON d   1     -47.034  17.630  -5.811  0.00  0.00    -0.206 OA
ATOM     20  O2  NON d   1     -45.940  15.356  -6.185  0.00  0.00    -0.206 OA
BRANCH  18  21
ATOM     21  C4  NON d   1     -47.951  15.731  -5.570  0.00  0.00     0.163 C 
BRANCH  21  22
ATOM     22  C3  NON d   1     -48.686  15.084  -4.384  0.00  0.00     0.016 C 
BRANCH  22  23
ATOM     23  C2  NON d   1     -49.194  16.103  -3.359  0.00  0.00    -0.004 C 
ATOM     24  C1  NON d   1     -48.138  16.557  -2.361  0.00  0.00     0.005 C 
ENDBRANCH  22  23
ENDBRANCH  21  22
ENDBRANCH  18  21
ENDBRANCH   1  18
TORSDOF 7
ENDMDL
MODEL 3
REMARK VINA RESULT:   -12.838      4.099      8.912
REMARK INTER + INTRA:         -16.143
REMARK INTER:                 -14.926
REMARK INTRA:                  -1.217
REMARK CONF_INDEPENDENT:        2.088
REMARK UNBOUND:                -1.217
REMARK  7 active torsions:
REMARK  status: ('A' for Active; 'I' for Inactive)
REMARK    1  A    between atoms: C2_2  and  C3_3 
REMARK    2  A    between atoms: C3_3  and  C4_4 
REMARK    3  A    between atoms: C4_4  and  S1_5 
REMARK    4  A    between atoms: S1_5  and  N1_8 
REMARK    5  A    between atoms: C9_13  and  C10_14 
REMARK    6  A    between atoms: C11_15  and  C12_16 
REMARK       I    between atoms: C12_16  and  N2_18 
REMARK    7  A    between atoms: N2_18  and  O4_19 
ROOT
ATOM      1  N1  NON d   1     -40.090  21.424  -3.114  0.00  0.00    -0.302 N 
ATOM      2  C5  NON d   1     -39.882  20.166  -2.355  0.00  0.00     0.174 C 
ATOM      3  C6  NON d   1     -40.903  19.218  -2.933  0.00  0.00    -0.032 A 
ATOM      4  C7  NON d   1     -41.283  17.965  -2.492  0.00  0.00     0.010 A 
ATOM      5  C8  NON d   1     -42.294  17.289  -3.193  0.00  0.00     0.012 A 
ATOM      6  C9  NON d   1     -42.921  17.850  -4.330  0.00  0.00    -0.035 A 
ATOM      7  C13 NON d   1     -42.508  19.122  -4.760  0.00  0.00     0.021 A 
ATOM      8  C14 NON d   1     -41.508  19.787  -4.056  0.00  0.00    -0.031 A 
ATOM      9  C15 NON d   1     -40.920  21.143  -4.306  0.00  0.00     0.174 C 
ENDROOT
BRANCH   6  10
ATOM     10  C10 NON d   1     -43.994  17.069  -4.987  0.00  0.00     0.017 C 
ATOM     11  C11 NON d   1     -45.318  17.193  -4.788  0.00  0.00     0.077 C 
BRANCH  11  12
ATOM     12  C12 NON d   1     -46.289  16.319  -5.515  0.00  0.00     0.264 C 
ATOM     13  O3  NON d   1     -45.940  15.353  -6.185  0.00  0.00    -0.266 OA
ATOM     14  N2  NON d   1     -47.591  16.723  -5.342  0.00  0.00    -0.234 N 
ATOM     15  H16 NON d   1     -47.843  17.628  -4.966  0.00  0.00     0.197 HD
BRANCH  14  16
ATOM     16  O4  NON d   1     -48.556  16.131  -6.184  0.00  0.00    -0.287 OA
ATOM     17  H17 NON d   1     -48.022  15.858  -6.954  0.00  0.00     0.244 HD
ENDBRANCH  14  16
ENDBRANCH  11  12
ENDBRANCH   6  10
BRANCH   1  18
ATOM     18  S1  NON d   1     -39.261  22.717  -3.002  0.00  0.00     0.229 S 
ATOM     19  O1  NON d   1     -38.847  22.591  -4.414  0.00  0.00    -0.206 OA
ATOM     20  O2  NON d   1     -40.486  23.470  -2.667  0.00  0.00    -0.206 OA
BRANCH  18  21
ATOM     21  C4  NON d   1     -38.432  24.010  -2.891  0.00  0.00     0.163 C 
BRANCH  21  22
ATOM     22  C3  NON d   1     -38.775  24.950  -1.723  0.00  0.00     0.016 C 
BRANCH  22  23
ATOM     23  C2  NON d   1     -38.626  24.287  -0.350  0.00  0.00    -0.004 C 
ATOM     24  C1  NON d   1     -39.932  23.764   0.231  0.00  0.00     0.005 C 
ENDBRANCH  22  23
ENDBRANCH  21  22
ENDBRANCH  18  21
ENDBRANCH   1  18
TORSDOF 7
ENDMDL
MODEL 4
REMARK VINA RESULT:   -12.747      4.152      8.952
REMARK INTER + INTRA:         -16.094
REMARK INTER:                 -14.835
REMARK INTRA:                  -1.260
REMARK CONF_INDEPENDENT:        2.088
REMARK UNBOUND:                -1.260
REMARK  7 active torsions:
REMARK  status: ('A' for Active; 'I' for Inactive)
REMARK    1  A    between atoms: C2_2  and  C3_3 
REMARK    2  A    between atoms: C3_3  and  C4_4 
REMARK    3  A    between atoms: C4_4  and  S1_5 
REMARK    4  A    between atoms: S1_5  and  N1_8 
REMARK    5  A    between atoms: C9_13  and  C10_14 
REMARK    6  A    between atoms: C11_15  and  C12_16 
REMARK       I    between atoms: C12_16  and  N2_18 
REMARK    7  A    between atoms: N2_18  and  O4_19 
ROOT
ATOM      1  N1  NON d   1     -40.049  21.385  -3.019  0.00  0.00    -0.302 N 
ATOM      2  C5  NON d   1     -39.821  20.098  -2.316  0.00  0.00     0.174 C 
ATOM      3  C6  NON d   1     -40.850  19.169  -2.914  0.00  0.00    -0.032 A 
ATOM      4  C7  NON d   1     -41.217  17.898  -2.517  0.00  0.00     0.010 A 
ATOM      5  C8  NON d   1     -42.238  17.246  -3.226  0.00  0.00     0.012 A 
ATOM      6  C9  NON d   1     -42.889  17.851  -4.327  0.00  0.00    -0.035 A 
ATOM      7  C13 NON d   1     -42.488  19.140  -4.713  0.00  0.00     0.021 A 
ATOM      8  C14 NON d   1     -41.477  19.781  -4.001  0.00  0.00    -0.031 A 
ATOM      9  C15 NON d   1     -40.899  21.149  -4.206  0.00  0.00     0.174 C 
ENDROOT
BRANCH   6  10
ATOM     10  C10 NON d   1     -43.970  17.092  -4.996  0.00  0.00     0.017 C 
ATOM     11  C11 NON d   1     -45.288  17.172  -4.739  0.00  0.00     0.077 C 
BRANCH  11  12
ATOM     12  C12 NON d   1     -46.269  16.328  -5.487  0.00  0.00     0.264 C 
ATOM     13  O3  NON d   1     -45.931  15.376  -6.183  0.00  0.00    -0.266 OA
ATOM     14  N2  NON d   1     -47.566  16.740  -5.301  0.00  0.00    -0.234 N 
ATOM     15  H16 NON d   1     -47.808  17.637  -4.900  0.00  0.00     0.197 HD
BRANCH  14  16
ATOM     16  O4  NON d   1     -48.538  16.181  -6.157  0.00  0.00    -0.287 OA
ATOM     17  H17 NON d   1     -48.057  15.434  -6.561  0.00  0.00     0.244 HD
ENDBRANCH  14  16
ENDBRANCH  11  12
ENDBRANCH   6  10
BRANCH   1  18
ATOM     18  S1  NON d   1     -39.222  22.676  -2.870  0.00  0.00     0.229 S 
ATOM     19  O1  NON d   1     -40.183  23.406  -3.721  0.00  0.00    -0.206 OA
ATOM     20  O2  NON d   1     -39.428  22.635  -1.408  0.00  0.00    -0.206 OA
BRANCH  18  21
ATOM     21  C4  NON d   1     -38.396  23.967  -2.721  0.00  0.00     0.163 C 
BRANCH  21  22
ATOM     22  C3  NON d   1     -39.134  25.291  -2.982  0.00  0.00     0.016 C 
BRANCH  22  23
ATOM     23  C2  NON d   1     -40.088  25.684  -1.849  0.00  0.00    -0.004 C 
ATOM     24  C1  NON d   1     -40.947  26.901  -2.159  0.00  0.00     0.005 C 
ENDBRANCH  22  23
ENDBRANCH  21  22
ENDBRANCH  18  21
ENDBRANCH   1  18
TORSDOF 7
ENDMDL
MODEL 5
REMARK VINA RESULT:   -12.649      3.651      9.182
REMARK INTER + INTRA:         -16.094
REMARK INTER:                 -14.738
REMARK INTRA:                  -1.357
REMARK CONF_INDEPENDENT:        2.088
REMARK UNBOUND:                -1.357
REMARK  7 active torsions:
REMARK  status: ('A' for Active; 'I' for Inactive)
REMARK    1  A    between atoms: C2_2  and  C3_3 
REMARK    2  A    between atoms: C3_3  and  C4_4 
REMARK    3  A    between atoms: C4_4  and  S1_5 
REMARK    4  A    between atoms: S1_5  and  N1_8 
REMARK    5  A    between atoms: C9_13  and  C10_14 
REMARK    6  A    between atoms: C11_15  and  C12_16 
REMARK       I    between atoms: C12_16  and  N2_18 
REMARK    7  A    between atoms: N2_18  and  O4_19 
ROOT
ATOM      1  N1  NON d   1     -39.164  20.872  -2.417  0.00  0.00    -0.302 N 
ATOM      2  C5  NON d   1     -39.141  19.432  -2.060  0.00  0.00     0.174 C 
ATOM      3  C6  NON d   1     -40.336  18.858  -2.783  0.00  0.00    -0.032 A 
ATOM      4  C7  NON d   1     -40.905  17.605  -2.674  0.00  0.00     0.010 A 
ATOM      5  C8  NON d   1     -42.047  17.322  -3.439  0.00  0.00     0.012 A 
ATOM      6  C9  NON d   1     -42.619  18.277  -4.313  0.00  0.00    -0.035 A 
ATOM      7  C13 NON d   1     -42.012  19.540  -4.409  0.00  0.00     0.021 A 
ATOM      8  C14 NON d   1     -40.882  19.813  -3.642  0.00  0.00    -0.031 A 
ATOM      9  C15 NON d   1     -40.082  21.077  -3.559  0.00  0.00     0.174 C 
ENDROOT
BRANCH   6  10
ATOM     10  C10 NON d   1     -43.838  17.892  -5.060  0.00  0.00     0.017 C 
ATOM     11  C11 NON d   1     -44.967  17.372  -4.546  0.00  0.00     0.077 C 
BRANCH  11  12
ATOM     12  C12 NON d   1     -46.118  17.014  -5.429  0.00  0.00     0.264 C 
ATOM     13  O3  NON d   1     -46.599  17.795  -6.244  0.00  0.00    -0.266 OA
ATOM     14  N2  NON d   1     -46.561  15.730  -5.221  0.00  0.00    -0.234 N 
ATOM     15  H16 NON d   1     -46.296  15.179  -4.414  0.00  0.00     0.197 HD
BRANCH  14  16
ATOM     16  O4  NON d   1     -47.794  15.381  -5.810  0.00  0.00    -0.287 OA
ATOM     17  H17 NON d   1     -47.877  16.037  -6.527  0.00  0.00     0.244 HD
ENDBRANCH  14  16
ENDBRANCH  11  12
ENDBRANCH   6  10
BRANCH   1  18
ATOM     18  S1  NON d   1     -38.120  21.936  -2.027  0.00  0.00     0.229 S 
ATOM     19  O1  NON d   1     -37.273  21.545  -3.171  0.00  0.00    -0.206 OA
ATOM     20  O2  NON d   1     -39.137  22.992  -2.201  0.00  0.00    -0.206 OA
BRANCH  18  21
ATOM     21  C4  NON d   1     -37.077  22.999  -1.637  0.00  0.00     0.163 C 
BRANCH  21  22
ATOM     22  C3  NON d   1     -37.103  23.488  -0.180  0.00  0.00     0.016 C 
BRANCH  22  23
ATOM     23  C2  NON d   1     -38.006  22.643   0.725  0.00  0.00    -0.004 C 
ATOM     24  C1  NON d   1     -37.426  21.282   1.081  0.00  0.00     0.005 C 
ENDBRANCH  22  23
ENDBRANCH  21  22
ENDBRANCH  18  21
ENDBRANCH   1  18
TORSDOF 7
ENDMDL
MODEL 6
REMARK VINA RESULT:   -12.542      3.833      8.952
REMARK INTER + INTRA:         -16.022
REMARK INTER:                 -14.630
REMARK INTRA:                  -1.392
REMARK CONF_INDEPENDENT:        2.088
REMARK UNBOUND:                -1.392
REMARK  7 active torsions:
REMARK  status: ('A' for Active; 'I' for Inactive)
REMARK    1  A    between atoms: C2_2  and  C3_3 
REMARK    2  A    between atoms: C3_3  and  C4_4 
REMARK    3  A    between atoms: C4_4  and  S1_5 
REMARK    4  A    between atoms: S1_5  and  N1_8 
REMARK    5  A    between atoms: C9_13  and  C10_14 
REMARK    6  A    between atoms: C11_15  and  C12_16 
REMARK       I    between atoms: C12_16  and  N2_18 
REMARK    7  A    between atoms: N2_18  and  O4_19 
ROOT
ATOM      1  N1  NON d   1     -40.108  21.469  -3.166  0.00  0.00    -0.302 N 
ATOM      2  C5  NON d   1     -39.868  20.220  -2.403  0.00  0.00     0.174 C 
ATOM      3  C6  NON d   1     -40.887  19.253  -2.955  0.00  0.00    -0.032 A 
ATOM      4  C7  NON d   1     -41.240  17.999  -2.498  0.00  0.00     0.010 A 
ATOM      5  C8  NON d   1     -42.254  17.303  -3.175  0.00  0.00     0.012 A 
ATOM      6  C9  NON d   1     -42.911  17.847  -4.304  0.00  0.00    -0.035 A 
ATOM      7  C13 NON d   1     -42.523  19.121  -4.751  0.00  0.00     0.021 A 
ATOM      8  C14 NON d   1     -41.520  19.806  -4.070  0.00  0.00    -0.031 A 
ATOM      9  C15 NON d   1     -40.956  21.168  -4.340  0.00  0.00     0.174 C 
ENDROOT
BRANCH   6  10
ATOM     10  C10 NON d   1     -43.984  17.047  -4.936  0.00  0.00     0.017 C 
ATOM     11  C11 NON d   1     -45.307  17.280  -4.872  0.00  0.00     0.077 C 
BRANCH  11  12
ATOM     12  C12 NON d   1     -46.281  16.371  -5.550  0.00  0.00     0.264 C 
ATOM     13  O3  NON d   1     -45.933  15.380  -6.184  0.00  0.00    -0.266 OA
ATOM     14  N2  NON d   1     -47.583  16.774  -5.379  0.00  0.00    -0.234 N 
ATOM     15  H16 NON d   1     -47.836  17.693  -5.038  0.00  0.00     0.197 HD
BRANCH  14  16
ATOM     16  O4  NON d   1     -48.554  16.142  -6.185  0.00  0.00    -0.287 OA
ATOM     17  H17 NON d   1     -48.010  15.558  -6.747  0.00  0.00     0.244 HD
ENDBRANCH  14  16
ENDBRANCH  11  12
ENDBRANCH   6  10
BRANCH   1  18
ATOM     18  S1  NON d   1     -39.296  22.774  -3.079  0.00  0.00     0.229 S 
ATOM     19  O1  NON d   1     -40.193  23.280  -2.021  0.00  0.00    -0.206 OA
ATOM     20  O2  NON d   1     -38.096  21.999  -2.706  0.00  0.00    -0.206 OA
BRANCH  18  21
ATOM     21  C4  NON d   1     -38.483  24.079  -2.991  0.00  0.00     0.163 C 
BRANCH  21  22
ATOM     22  C3  NON d   1     -38.276  24.852  -4.305  0.00  0.00     0.016 C 
BRANCH  22  23
ATOM     23  C2  NON d   1     -39.530  24.892  -5.186  0.00  0.00    -0.004 C 
ATOM     24  C1  NON d   1     -39.439  24.024  -6.432  0.00  0.00     0.005 C 
ENDBRANCH  22  23
ENDBRANCH  21  22
ENDBRANCH  18  21
ENDBRANCH   1  18
TORSDOF 7
ENDMDL
MODEL 7
REMARK VINA RESULT:   -12.414      3.038      9.054
REMARK INTER + INTRA:         -15.801
REMARK INTER:                 -14.502
REMARK INTRA:                  -1.298
REMARK CONF_INDEPENDENT:        2.088
REMARK UNBOUND:                -1.298
REMARK  7 active torsions:
REMARK  status: ('A' for Active; 'I' for Inactive)
REMARK    1  A    between atoms: C2_2  and  C3_3 
REMARK    2  A    between atoms: C3_3  and  C4_4 
REMARK    3  A    between atoms: C4_4  and  S1_5 
REMARK    4  A    between atoms: S1_5  and  N1_8 
REMARK    5  A    between atoms: C9_13  and  C10_14 
REMARK    6  A    between atoms: C11_15  and  C12_16 
REMARK       I    between atoms: C12_16  and  N2_18 
REMARK    7  A    between atoms: N2_18  and  O4_19 
ROOT
ATOM      1  N1  NON d   1     -38.819  19.286  -2.501  0.00  0.00    -0.302 N 
ATOM      2  C5  NON d   1     -39.599  20.371  -3.146  0.00  0.00     0.174 C 
ATOM      3  C6  NON d   1     -40.806  19.665  -3.714  0.00  0.00    -0.032 A 
ATOM      4  C7  NON d   1     -41.780  20.146  -4.567  0.00  0.00     0.010 A 
ATOM      5  C8  NON d   1     -42.794  19.270  -4.984  0.00  0.00     0.012 A 
ATOM      6  C9  NON d   1     -42.846  17.924  -4.550  0.00  0.00    -0.035 A 
ATOM      7  C13 NON d   1     -41.847  17.467  -3.675  0.00  0.00     0.021 A 
ATOM      8  C14 NON d   1     -40.842  18.342  -3.272  0.00  0.00    -0.031 A 
ATOM      9  C15 NON d   1     -39.671  18.084  -2.371  0.00  0.00     0.174 C 
ENDROOT
BRANCH   6  10
ATOM     10  C10 NON d   1     -43.942  17.071  -5.063  0.00  0.00     0.017 C 
ATOM     11  C11 NON d   1     -45.256  17.356  -5.052  0.00  0.00     0.077 C 
BRANCH  11  12
ATOM     12  C12 NON d   1     -46.257  16.387  -5.593  0.00  0.00     0.264 C 
ATOM     13  O3  NON d   1     -45.939  15.307  -6.080  0.00  0.00    -0.266 OA
ATOM     14  N2  NON d   1     -47.547  16.844  -5.478  0.00  0.00    -0.234 N 
ATOM     15  H16 NON d   1     -47.775  17.808  -5.271  0.00  0.00     0.197 HD
BRANCH  14  16
ATOM     16  O4  NON d   1     -48.538  16.130  -6.185  0.00  0.00    -0.287 OA
ATOM     17  H17 NON d   1     -48.158  15.233  -6.229  0.00  0.00     0.244 HD
ENDBRANCH  14  16
ENDBRANCH  11  12
ENDBRANCH   6  10
BRANCH   1  18
ATOM     18  S1  NON d   1     -37.524  19.442  -1.682  0.00  0.00     0.229 S 
ATOM     19  O1  NON d   1     -36.951  18.248  -2.334  0.00  0.00    -0.206 OA
ATOM     20  O2  NON d   1     -37.308  20.773  -2.282  0.00  0.00    -0.206 OA
BRANCH  18  21
ATOM     21  C4  NON d   1     -36.230  19.597  -0.863  0.00  0.00     0.163 C 
BRANCH  21  22
ATOM     22  C3  NON d   1     -36.393  19.964   0.622  0.00  0.00     0.016 C 
BRANCH  22  23
ATOM     23  C2  NON d   1     -36.682  21.452   0.848  0.00  0.00    -0.004 C 
ATOM     24  C1  NON d   1     -38.163  21.802   0.847  0.00  0.00     0.005 C 
ENDBRANCH  22  23
ENDBRANCH  21  22
ENDBRANCH  18  21
ENDBRANCH   1  18
TORSDOF 7
ENDMDL
MODEL 8
REMARK VINA RESULT:   -11.858      3.735      4.454
REMARK INTER + INTRA:         -15.181
REMARK INTER:                 -13.946
REMARK INTRA:                  -1.235
REMARK CONF_INDEPENDENT:        2.088
REMARK UNBOUND:                -1.235
REMARK  7 active torsions:
REMARK  status: ('A' for Active; 'I' for Inactive)
REMARK    1  A    between atoms: C2_2  and  C3_3 
REMARK    2  A    between atoms: C3_3  and  C4_4 
REMARK    3  A    between atoms: C4_4  and  S1_5 
REMARK    4  A    between atoms: S1_5  and  N1_8 
REMARK    5  A    between atoms: C9_13  and  C10_14 
REMARK    6  A    between atoms: C11_15  and  C12_16 
REMARK       I    between atoms: C12_16  and  N2_18 
REMARK    7  A    between atoms: N2_18  and  O4_19 
ROOT
ATOM      1  N1  NON d   1     -44.916  16.966  -4.306  0.00  0.00    -0.302 N 
ATOM      2  C5  NON d   1     -43.657  16.717  -3.561  0.00  0.00     0.174 C 
ATOM      3  C6  NON d   1     -42.669  17.673  -4.185  0.00  0.00    -0.032 A 
ATOM      4  C7  NON d   1     -41.302  17.755  -4.010  0.00  0.00     0.010 A 
ATOM      5  C8  NON d   1     -40.593  18.723  -4.739  0.00  0.00     0.012 A 
ATOM      6  C9  NON d   1     -41.239  19.610  -5.633  0.00  0.00    -0.035 A 
ATOM      7  C13 NON d   1     -42.632  19.508  -5.782  0.00  0.00     0.021 A 
ATOM      8  C14 NON d   1     -43.326  18.542  -5.058  0.00  0.00    -0.031 A 
ATOM      9  C15 NON d   1     -44.792  18.230  -5.064  0.00  0.00     0.174 C 
ENDROOT
BRANCH   6  10
ATOM     10  C10 NON d   1     -40.402  20.581  -6.374  0.00  0.00     0.017 C 
ATOM     11  C11 NON d   1     -40.241  20.652  -7.707  0.00  0.00     0.077 C 
BRANCH  11  12
ATOM     12  C12 NON d   1     -39.346  21.681  -8.318  0.00  0.00     0.264 C 
ATOM     13  O3  NON d   1     -38.362  22.133  -7.740  0.00  0.00    -0.266 OA
ATOM     14  N2  NON d   1     -39.751  22.049  -9.578  0.00  0.00    -0.234 N 
ATOM     15  H16 NON d   1     -40.666  21.827  -9.951  0.00  0.00     0.197 HD
BRANCH  14  16
ATOM     16  O4  NON d   1     -39.134  23.189 -10.135  0.00  0.00    -0.287 OA
ATOM     17  H17 NON d   1     -38.310  23.255  -9.617  0.00  0.00     0.244 HD
ENDBRANCH  14  16
ENDBRANCH  11  12
ENDBRANCH   6  10
BRANCH   1  18
ATOM     18  S1  NON d   1     -46.290  16.327  -4.033  0.00  0.00     0.229 S 
ATOM     19  O1  NON d   1     -46.604  17.383  -3.050  0.00  0.00    -0.206 OA
ATOM     20  O2  NON d   1     -46.657  16.520  -5.451  0.00  0.00    -0.206 OA
BRANCH  18  21
ATOM     21  C4  NON d   1     -47.665  15.688  -3.761  0.00  0.00     0.163 C 
BRANCH  21  22
ATOM     22  C3  NON d   1     -48.587  16.430  -2.780  0.00  0.00     0.016 C 
BRANCH  22  23
ATOM     23  C2  NON d   1     -49.998  15.835  -2.709  0.00  0.00    -0.004 C 
ATOM     24  C1  NON d   1     -50.203  14.622  -3.605  0.00  0.00     0.005 C 
ENDBRANCH  22  23
ENDBRANCH  21  22
ENDBRANCH  18  21
ENDBRANCH   1  18
TORSDOF 7
ENDMDL
