MODEL 1
REMARK VINA RESULT:   -30.532      0.000      0.000
REMARK INTER + INTRA:         -35.927
REMARK INTER:                 -33.813
REMARK INTRA:                  -2.113
REMARK CONF_INDEPENDENT:        3.281
REMARK UNBOUND:                -2.113
REMARK  11 active torsions:
REMARK  status: ('A' for Active; 'I' for Inactive)
REMARK    1  A    between atoms: C2_2  and  O1_5 
REMARK    2  A    between atoms: O1_5  and  C5_6 
REMARK       I    between atoms: C5_6  and  N1_8 
REMARK    3  A    between atoms: C6_9  and  N1_8 
REMARK    4  A    between atoms: C6_9  and  C7_10 
REMARK    5  A    between atoms: C6_9  and  C12_16 
REMARK    6  A    between atoms: C7_10  and  C8_11 
REMARK    7  A    between atoms: C8_11  and  C9_12 
REMARK    8  A    between atoms: C9_12  and  C10_13 
REMARK    9  A    between atoms: C10_13  and  C11_14 
REMARK   10  A    between atoms: C11_14  and  S1_15 
REMARK       I    between atoms: C12_16  and  N2_18 
REMARK   11  A    between atoms: N2_18  and  C13_19 
ROOT
ATOM      1  C6  NON d   1     -41.830  18.522  -4.040  0.00  0.00     0.179 C 
ENDROOT
BRANCH   1   2
ATOM      2  N1  NON d   1     -40.687  18.246  -5.276  0.00  0.00    -0.324 N 
ATOM      3  C5  NON d   1     -40.466  19.060  -6.568  0.00  0.00     0.362 C 
ATOM      4  O2  NON d   1     -40.097  18.403  -7.546  0.00  0.00    -0.238 OA
ATOM      5  H10 NON d   1     -40.528  17.270  -5.482  0.00  0.00     0.165 HD
BRANCH   3   6
ATOM      6  O1  NON d   1     -40.601  20.519  -6.683  0.00  0.00    -0.294 OA
BRANCH   6   7
ATOM      7  C2  NON d   1     -39.932  21.731  -7.714  0.00  0.00     0.061 C 
ATOM      8  C1  NON d   1     -38.574  22.056  -8.364  0.00  0.00     0.046 C 
ATOM      9  C3  NON d   1     -40.341  20.935  -8.968  0.00  0.00     0.046 C 
ATOM     10  C4  NON d   1     -39.522  22.527  -6.461  0.00  0.00     0.046 C 
ENDBRANCH   6   7
ENDBRANCH   3   6
ENDBRANCH   1   2
BRANCH   1  11
ATOM     11  C7  NON d   1     -41.074  17.955  -2.665  0.00  0.00     0.035 C 
BRANCH  11  12
ATOM     12  C8  NON d   1     -39.585  17.661  -2.419  0.00  0.00     0.002 C 
BRANCH  12  13
ATOM     13  C9  NON d   1     -38.587  18.766  -2.791  0.00  0.00     0.001 C 
BRANCH  13  14
ATOM     14  C10 NON d   1     -37.712  18.426  -3.990  0.00  0.00     0.010 C 
BRANCH  14  15
ATOM     15  C11 NON d   1     -37.564  19.545  -5.017  0.00  0.00     0.070 C 
BRANCH  15  16
ATOM     16  S1  NON d   1     -37.280  18.899  -6.696  0.00  0.00    -0.182 SA
ATOM     17  H22 NON d   1     -38.278  19.570  -7.289  0.00  0.00     0.101 HD
ENDBRANCH  15  16
ENDBRANCH  14  15
ENDBRANCH  13  14
ENDBRANCH  12  13
ENDBRANCH  11  12
ENDBRANCH   1  11
BRANCH   1  18
ATOM     18  C12 NON d   1     -43.107  17.661  -4.061  0.00  0.00     0.245 C 
ATOM     19  O3  NON d   1     -43.218  16.808  -3.171  0.00  0.00    -0.271 OA
ATOM     20  N2  NON d   1     -44.224  18.086  -4.754  0.00  0.00    -0.324 N 
ATOM     21  H23 NON d   1     -44.259  19.050  -5.056  0.00  0.00     0.169 HD
BRANCH  20  22
ATOM     22  C13 NON d   1     -45.469  17.376  -4.678  0.00  0.00     0.053 A 
ATOM     23  C14 NON d   1     -46.035  16.788  -5.800  0.00  0.00     0.146 A 
ATOM     24  N3  NON d   1     -47.229  16.130  -5.811  0.00  0.00    -0.258 NA
ATOM     25  C15 NON d   1     -47.911  16.018  -4.650  0.00  0.00     0.066 A 
ATOM     26  C16 NON d   1     -49.139  15.365  -4.597  0.00  0.00     0.032 A 
ATOM     27  C20 NON d   1     -47.415  16.548  -3.452  0.00  0.00    -0.005 A 
ATOM     28  C17 NON d   1     -49.851  15.216  -3.396  0.00  0.00     0.002 A 
ATOM     29  C18 NON d   1     -49.334  15.726  -2.213  0.00  0.00     0.001 A 
ATOM     30  C19 NON d   1     -48.117  16.398  -2.240  0.00  0.00     0.014 A 
ATOM     31  C21 NON d   1     -46.193  17.235  -3.493  0.00  0.00     0.044 A 
ENDBRANCH  20  22
ENDBRANCH   1  18
TORSDOF 11
ENDMDL
MODEL 2
REMARK VINA RESULT:   -30.076      1.870      2.186
REMARK INTER + INTRA:         -34.570
REMARK INTER:                 -33.357
REMARK INTRA:                  -1.213
REMARK CONF_INDEPENDENT:        3.281
REMARK UNBOUND:                -1.213
REMARK  11 active torsions:
REMARK  status: ('A' for Active; 'I' for Inactive)
REMARK    1  A    between atoms: C2_2  and  O1_5 
REMARK    2  A    between atoms: O1_5  and  C5_6 
REMARK       I    between atoms: C5_6  and  N1_8 
REMARK    3  A    between atoms: C6_9  and  N1_8 
REMARK    4  A    between atoms: C6_9  and  C7_10 
REMARK    5  A    between atoms: C6_9  and  C12_16 
REMARK    6  A    between atoms: C7_10  and  C8_11 
REMARK    7  A    between atoms: C8_11  and  C9_12 
REMARK    8  A    between atoms: C9_12  and  C10_13 
REMARK    9  A    between atoms: C10_13  and  C11_14 
REMARK   10  A    between atoms: C11_14  and  S1_15 
REMARK       I    between atoms: C12_16  and  N2_18 
REMARK   11  A    between atoms: N2_18  and  C13_19 
ROOT
ATOM      1  C6  NON d   1     -41.857  18.485  -4.600  0.00  0.00     0.179 C 
ENDROOT
BRANCH   1   2
ATOM      2  N1  NON d   1     -40.668  18.239  -5.798  0.00  0.00    -0.324 N 
ATOM      3  C5  NON d   1     -40.349  19.126  -7.020  0.00  0.00     0.362 C 
ATOM      4  O2  NON d   1     -39.961  18.519  -8.022  0.00  0.00    -0.238 OA
ATOM      5  H10 NON d   1     -40.540  17.273  -6.062  0.00  0.00     0.165 HD
BRANCH   3   6
ATOM      6  O1  NON d   1     -40.416  20.594  -7.041  0.00  0.00    -0.294 OA
BRANCH   6   7
ATOM      7  C2  NON d   1     -39.595  21.866  -6.212  0.00  0.00     0.061 C 
ATOM      8  C1  NON d   1     -39.582  23.406  -6.207  0.00  0.00     0.046 C 
ATOM      9  C3  NON d   1     -40.660  21.871  -5.099  0.00  0.00     0.046 C 
ATOM     10  C4  NON d   1     -38.529  21.862  -7.325  0.00  0.00     0.046 C 
ENDBRANCH   6   7
ENDBRANCH   3   6
ENDBRANCH   1   2
BRANCH   1  11
ATOM     11  C7  NON d   1     -41.154  17.883  -3.211  0.00  0.00     0.035 C 
BRANCH  11  12
ATOM     12  C8  NON d   1     -40.412  18.627  -2.090  0.00  0.00     0.002 C 
BRANCH  12  13
ATOM     13  C9  NON d   1     -39.914  20.044  -2.405  0.00  0.00     0.001 C 
BRANCH  13  14
ATOM     14  C10 NON d   1     -39.727  20.919  -1.174  0.00  0.00     0.010 C 
BRANCH  14  15
ATOM     15  C11 NON d   1     -38.276  21.152  -0.763  0.00  0.00     0.070 C 
BRANCH  15  16
ATOM     16  S1  NON d   1     -37.967  22.883  -0.290  0.00  0.00    -0.182 SA
ATOM     17  H22 NON d   1     -36.672  22.908  -0.638  0.00  0.00     0.101 HD
ENDBRANCH  15  16
ENDBRANCH  14  15
ENDBRANCH  13  14
ENDBRANCH  12  13
ENDBRANCH  11  12
ENDBRANCH   1  11
BRANCH   1  18
ATOM     18  C12 NON d   1     -43.132  17.627  -4.691  0.00  0.00     0.245 C 
ATOM     19  O3  NON d   1     -43.025  16.434  -4.377  0.00  0.00    -0.271 OA
ATOM     20  N2  NON d   1     -44.377  18.226  -4.712  0.00  0.00    -0.324 N 
ATOM     21  H23 NON d   1     -44.441  19.201  -4.453  0.00  0.00     0.169 HD
BRANCH  20  22
ATOM     22  C13 NON d   1     -45.584  17.451  -4.658  0.00  0.00     0.053 A 
ATOM     23  C14 NON d   1     -46.110  16.851  -5.793  0.00  0.00     0.146 A 
ATOM     24  N3  NON d   1     -47.267  16.132  -5.824  0.00  0.00    -0.258 NA
ATOM     25  C15 NON d   1     -47.953  15.967  -4.671  0.00  0.00     0.066 A 
ATOM     26  C16 NON d   1     -49.145  15.251  -4.638  0.00  0.00     0.032 A 
ATOM     27  C20 NON d   1     -47.494  16.505  -3.461  0.00  0.00    -0.005 A 
ATOM     28  C17 NON d   1     -49.859  15.047  -3.446  0.00  0.00     0.002 A 
ATOM     29  C18 NON d   1     -49.378  15.566  -2.251  0.00  0.00     0.001 A 
ATOM     30  C19 NON d   1     -48.197  16.301  -2.258  0.00  0.00     0.014 A 
ATOM     31  C21 NON d   1     -46.310  17.255  -3.481  0.00  0.00     0.044 A 
ENDBRANCH  20  22
ENDBRANCH   1  18
TORSDOF 11
ENDMDL
MODEL 3
REMARK VINA RESULT:   -30.013      1.815      3.290
REMARK INTER + INTRA:         -34.427
REMARK INTER:                 -33.294
REMARK INTRA:                  -1.133
REMARK CONF_INDEPENDENT:        3.281
REMARK UNBOUND:                -1.133
REMARK  11 active torsions:
REMARK  status: ('A' for Active; 'I' for Inactive)
REMARK    1  A    between atoms: C2_2  and  O1_5 
REMARK    2  A    between atoms: O1_5  and  C5_6 
REMARK       I    between atoms: C5_6  and  N1_8 
REMARK    3  A    between atoms: C6_9  and  N1_8 
REMARK    4  A    between atoms: C6_9  and  C7_10 
REMARK    5  A    between atoms: C6_9  and  C12_16 
REMARK    6  A    between atoms: C7_10  and  C8_11 
REMARK    7  A    between atoms: C8_11  and  C9_12 
REMARK    8  A    between atoms: C9_12  and  C10_13 
REMARK    9  A    between atoms: C10_13  and  C11_14 
REMARK   10  A    between atoms: C11_14  and  S1_15 
REMARK       I    between atoms: C12_16  and  N2_18 
REMARK   11  A    between atoms: N2_18  and  C13_19 
ROOT
ATOM      1  C6  NON d   1     -41.707  17.994  -4.745  0.00  0.00     0.179 C 
ENDROOT
BRANCH   1   2
ATOM      2  N1  NON d   1     -41.055  17.928  -3.169  0.00  0.00    -0.324 N 
ATOM      3  C5  NON d   1     -39.578  17.762  -2.756  0.00  0.00     0.362 C 
ATOM      4  O2  NON d   1     -39.393  17.135  -1.709  0.00  0.00    -0.238 OA
ATOM      5  H10 NON d   1     -41.631  17.431  -2.504  0.00  0.00     0.165 HD
BRANCH   3   6
ATOM      6  O1  NON d   1     -38.430  18.338  -3.471  0.00  0.00    -0.294 OA
BRANCH   6   7
ATOM      7  C2  NON d   1     -37.659  19.882  -3.500  0.00  0.00     0.061 C 
ATOM      8  C1  NON d   1     -37.819  21.226  -4.235  0.00  0.00     0.046 C 
ATOM      9  C3  NON d   1     -38.568  20.393  -2.367  0.00  0.00     0.046 C 
ATOM     10  C4  NON d   1     -36.749  19.372  -4.635  0.00  0.00     0.046 C 
ENDBRANCH   6   7
ENDBRANCH   3   6
ENDBRANCH   1   2
BRANCH   1  11
ATOM     11  C7  NON d   1     -42.079  19.607  -4.954  0.00  0.00     0.035 C 
BRANCH  11  12
ATOM     12  C8  NON d   1     -41.251  20.854  -4.601  0.00  0.00     0.002 C 
BRANCH  12  13
ATOM     13  C9  NON d   1     -40.558  21.581  -5.761  0.00  0.00     0.001 C 
BRANCH  13  14
ATOM     14  C10 NON d   1     -39.957  20.647  -6.802  0.00  0.00     0.010 C 
BRANCH  14  15
ATOM     15  C11 NON d   1     -40.684  20.623  -8.143  0.00  0.00     0.070 C 
BRANCH  15  16
ATOM     16  S1  NON d   1     -39.662  21.303  -9.489  0.00  0.00    -0.182 SA
ATOM     17  H22 NON d   1     -40.678  21.673 -10.281  0.00  0.00     0.101 HD
ENDBRANCH  15  16
ENDBRANCH  14  15
ENDBRANCH  13  14
ENDBRANCH  12  13
ENDBRANCH  11  12
ENDBRANCH   1  11
BRANCH   1  18
ATOM     18  C12 NON d   1     -43.082  17.335  -4.963  0.00  0.00     0.245 C 
ATOM     19  O3  NON d   1     -43.081  16.155  -5.336  0.00  0.00    -0.271 OA
ATOM     20  N2  NON d   1     -44.215  17.876  -4.386  0.00  0.00    -0.324 N 
ATOM     21  H23 NON d   1     -44.095  18.568  -3.659  0.00  0.00     0.169 HD
BRANCH  20  22
ATOM     22  C13 NON d   1     -45.484  17.210  -4.457  0.00  0.00     0.053 A 
ATOM     23  C14 NON d   1     -45.988  16.740  -5.660  0.00  0.00     0.146 A 
ATOM     24  N3  NON d   1     -47.198  16.132  -5.810  0.00  0.00    -0.258 NA
ATOM     25  C15 NON d   1     -47.965  15.949  -4.712  0.00  0.00     0.066 A 
ATOM     26  C16 NON d   1     -49.214  15.342  -4.799  0.00  0.00     0.032 A 
ATOM     27  C20 NON d   1     -47.539  16.358  -3.442  0.00  0.00    -0.005 A 
ATOM     28  C17 NON d   1     -50.015  15.121  -3.667  0.00  0.00     0.002 A 
ATOM     29  C18 NON d   1     -49.566  15.510  -2.412  0.00  0.00     0.001 A 
ATOM     30  C19 NON d   1     -48.330  16.135  -2.298  0.00  0.00     0.014 A 
ATOM     31  C21 NON d   1     -46.296  16.999  -3.340  0.00  0.00     0.044 A 
ENDBRANCH  20  22
ENDBRANCH   1  18
TORSDOF 11
ENDMDL
MODEL 4
REMARK VINA RESULT:   -29.812      1.244      1.698
REMARK INTER + INTRA:         -35.339
REMARK INTER:                 -33.094
REMARK INTRA:                  -2.246
REMARK CONF_INDEPENDENT:        3.281
REMARK UNBOUND:                -2.246
REMARK  11 active torsions:
REMARK  status: ('A' for Active; 'I' for Inactive)
REMARK    1  A    between atoms: C2_2  and  O1_5 
REMARK    2  A    between atoms: O1_5  and  C5_6 
REMARK       I    between atoms: C5_6  and  N1_8 
REMARK    3  A    between atoms: C6_9  and  N1_8 
REMARK    4  A    between atoms: C6_9  and  C7_10 
REMARK    5  A    between atoms: C6_9  and  C12_16 
REMARK    6  A    between atoms: C7_10  and  C8_11 
REMARK    7  A    between atoms: C8_11  and  C9_12 
REMARK    8  A    between atoms: C9_12  and  C10_13 
REMARK    9  A    between atoms: C10_13  and  C11_14 
REMARK   10  A    between atoms: C11_14  and  S1_15 
REMARK       I    between atoms: C12_16  and  N2_18 
REMARK   11  A    between atoms: N2_18  and  C13_19 
ROOT
ATOM      1  C6  NON d   1     -42.100  19.385  -5.329  0.00  0.00     0.179 C 
ENDROOT
BRANCH   1   2
ATOM      2  N1  NON d   1     -41.107  18.277  -6.164  0.00  0.00    -0.324 N 
ATOM      3  C5  NON d   1     -40.053  18.574  -7.251  0.00  0.00     0.362 C 
ATOM      4  O2  NON d   1     -39.929  17.701  -8.115  0.00  0.00    -0.238 OA
ATOM      5  H10 NON d   1     -41.560  17.403  -6.389  0.00  0.00     0.165 HD
BRANCH   3   6
ATOM      6  O1  NON d   1     -39.179  19.755  -7.282  0.00  0.00    -0.294 OA
BRANCH   6   7
ATOM      7  C2  NON d   1     -39.359  21.419  -6.861  0.00  0.00     0.061 C 
ATOM      8  C1  NON d   1     -40.210  22.269  -5.898  0.00  0.00     0.046 C 
ATOM      9  C3  NON d   1     -38.263  21.298  -5.785  0.00  0.00     0.046 C 
ATOM     10  C4  NON d   1     -40.455  21.541  -7.936  0.00  0.00     0.046 C 
ENDBRANCH   6   7
ENDBRANCH   3   6
ENDBRANCH   1   2
BRANCH   1  11
ATOM     11  C7  NON d   1     -41.506  19.354  -3.770  0.00  0.00     0.035 C 
BRANCH  11  12
ATOM     12  C8  NON d   1     -41.361  18.168  -2.803  0.00  0.00     0.002 C 
BRANCH  12  13
ATOM     13  C9  NON d   1     -40.022  18.030  -2.066  0.00  0.00     0.001 C 
BRANCH  13  14
ATOM     14  C10 NON d   1     -38.860  18.723  -2.765  0.00  0.00     0.010 C 
BRANCH  14  15
ATOM     15  C11 NON d   1     -37.825  17.785  -3.380  0.00  0.00     0.070 C 
BRANCH  15  16
ATOM     16  S1  NON d   1     -37.259  18.364  -5.011  0.00  0.00    -0.182 SA
ATOM     17  H22 NON d   1     -38.474  18.628  -5.510  0.00  0.00     0.101 HD
ENDBRANCH  15  16
ENDBRANCH  14  15
ENDBRANCH  13  14
ENDBRANCH  12  13
ENDBRANCH  11  12
ENDBRANCH   1  11
BRANCH   1  18
ATOM     18  C12 NON d   1     -43.567  18.979  -5.103  0.00  0.00     0.245 C 
ATOM     19  O3  NON d   1     -44.419  19.569  -5.780  0.00  0.00    -0.271 OA
ATOM     20  N2  NON d   1     -43.874  17.769  -4.510  0.00  0.00    -0.324 N 
ATOM     21  H23 NON d   1     -43.139  17.079  -4.428  0.00  0.00     0.169 HD
BRANCH  20  22
ATOM     22  C13 NON d   1     -45.227  17.303  -4.411  0.00  0.00     0.053 A 
ATOM     23  C14 NON d   1     -45.945  16.922  -5.535  0.00  0.00     0.146 A 
ATOM     24  N3  NON d   1     -47.243  16.505  -5.523  0.00  0.00    -0.258 NA
ATOM     25  C15 NON d   1     -47.883  16.434  -4.334  0.00  0.00     0.066 A 
ATOM     26  C16 NON d   1     -49.210  16.024  -4.255  0.00  0.00     0.032 A 
ATOM     27  C20 NON d   1     -47.242  16.767  -3.134  0.00  0.00    -0.005 A 
ATOM     28  C17 NON d   1     -49.885  15.920  -3.029  0.00  0.00     0.002 A 
ATOM     29  C18 NON d   1     -49.228  16.229  -1.845  0.00  0.00     0.001 A 
ATOM     30  C19 NON d   1     -47.906  16.659  -1.897  0.00  0.00     0.014 A 
ATOM     31  C21 NON d   1     -45.914  17.211  -3.198  0.00  0.00     0.044 A 
ENDBRANCH  20  22
ENDBRANCH   1  18
TORSDOF 11
ENDMDL
MODEL 5
REMARK VINA RESULT:   -29.687      1.693      3.201
REMARK INTER + INTRA:         -34.721
REMARK INTER:                 -32.969
REMARK INTRA:                  -1.752
REMARK CONF_INDEPENDENT:        3.281
REMARK UNBOUND:                -1.752
REMARK  11 active torsions:
REMARK  status: ('A' for Active; 'I' for Inactive)
REMARK    1  A    between atoms: C2_2  and  O1_5 
REMARK    2  A    between atoms: O1_5  and  C5_6 
REMARK       I    between atoms: C5_6  and  N1_8 
REMARK    3  A    between atoms: C6_9  and  N1_8 
REMARK    4  A    between atoms: C6_9  and  C7_10 
REMARK    5  A    between atoms: C6_9  and  C12_16 
REMARK    6  A    between atoms: C7_10  and  C8_11 
REMARK    7  A    between atoms: C8_11  and  C9_12 
REMARK    8  A    between atoms: C9_12  and  C10_13 
REMARK    9  A    between atoms: C10_13  and  C11_14 
REMARK   10  A    between atoms: C11_14  and  S1_15 
REMARK       I    between atoms: C12_16  and  N2_18 
REMARK   11  A    between atoms: N2_18  and  C13_19 
ROOT
ATOM      1  C6  NON d   1     -41.691  18.616  -4.274  0.00  0.00     0.179 C 
ENDROOT
BRANCH   1   2
ATOM      2  N1  NON d   1     -41.907  20.283  -4.566  0.00  0.00    -0.324 N 
ATOM      3  C5  NON d   1     -41.034  21.457  -4.076  0.00  0.00     0.362 C 
ATOM      4  O2  NON d   1     -41.644  22.505  -3.845  0.00  0.00    -0.238 OA
ATOM      5  H10 NON d   1     -42.872  20.581  -4.567  0.00  0.00     0.165 HD
BRANCH   3   6
ATOM      6  O1  NON d   1     -39.571  21.423  -3.934  0.00  0.00    -0.294 OA
BRANCH   6   7
ATOM      7  C2  NON d   1     -38.430  20.281  -3.324  0.00  0.00     0.061 C 
ATOM      8  C1  NON d   1     -38.089  18.791  -3.516  0.00  0.00     0.046 C 
ATOM      9  C3  NON d   1     -37.421  20.653  -4.426  0.00  0.00     0.046 C 
ATOM     10  C4  NON d   1     -39.439  19.907  -2.222  0.00  0.00     0.046 C 
ENDBRANCH   6   7
ENDBRANCH   3   6
ENDBRANCH   1   2
BRANCH   1  11
ATOM     11  C7  NON d   1     -40.878  18.077  -5.628  0.00  0.00     0.035 C 
BRANCH  11  12
ATOM     12  C8  NON d   1     -39.639  18.665  -6.323  0.00  0.00     0.002 C 
BRANCH  12  13
ATOM     13  C9  NON d   1     -39.500  18.413  -7.830  0.00  0.00     0.001 C 
BRANCH  13  14
ATOM     14  C10 NON d   1     -39.267  19.676  -8.646  0.00  0.00     0.010 C 
BRANCH  14  15
ATOM     15  C11 NON d   1     -40.302  20.779  -8.437  0.00  0.00     0.070 C 
BRANCH  15  16
ATOM     16  S1  NON d   1     -39.885  21.849  -7.024  0.00  0.00    -0.182 SA
ATOM     17  H22 NON d   1     -39.409  20.878  -6.231  0.00  0.00     0.101 HD
ENDBRANCH  15  16
ENDBRANCH  14  15
ENDBRANCH  13  14
ENDBRANCH  12  13
ENDBRANCH  11  12
ENDBRANCH   1  11
BRANCH   1  18
ATOM     18  C12 NON d   1     -42.949  17.730  -4.303  0.00  0.00     0.245 C 
ATOM     19  O3  NON d   1     -42.949  16.738  -3.563  0.00  0.00    -0.271 OA
ATOM     20  N2  NON d   1     -44.143  18.228  -4.790  0.00  0.00    -0.324 N 
ATOM     21  H23 NON d   1     -44.224  19.227  -4.920  0.00  0.00     0.169 HD
BRANCH  20  22
ATOM     22  C13 NON d   1     -45.361  17.475  -4.702  0.00  0.00     0.053 A 
ATOM     23  C14 NON d   1     -45.896  16.834  -5.809  0.00  0.00     0.146 A 
ATOM     24  N3  NON d   1     -47.065  16.132  -5.810  0.00  0.00    -0.258 NA
ATOM     25  C15 NON d   1     -47.753  16.030  -4.651  0.00  0.00     0.066 A 
ATOM     26  C16 NON d   1     -48.957  15.335  -4.588  0.00  0.00     0.032 A 
ATOM     27  C20 NON d   1     -47.287  16.615  -3.466  0.00  0.00    -0.005 A 
ATOM     28  C17 NON d   1     -49.674  15.196  -3.389  0.00  0.00     0.002 A 
ATOM     29  C18 NON d   1     -49.186  15.761  -2.218  0.00  0.00     0.001 A 
ATOM     30  C19 NON d   1     -47.994  16.476  -2.256  0.00  0.00     0.014 A 
ATOM     31  C21 NON d   1     -46.091  17.344  -3.519  0.00  0.00     0.044 A 
ENDBRANCH  20  22
ENDBRANCH   1  18
TORSDOF 11
ENDMDL
MODEL 6
REMARK VINA RESULT:   -29.596      2.041      3.066
REMARK INTER + INTRA:         -35.160
REMARK INTER:                 -32.877
REMARK INTRA:                  -2.283
REMARK CONF_INDEPENDENT:        3.281
REMARK UNBOUND:                -2.283
REMARK  11 active torsions:
REMARK  status: ('A' for Active; 'I' for Inactive)
REMARK    1  A    between atoms: C2_2  and  O1_5 
REMARK    2  A    between atoms: O1_5  and  C5_6 
REMARK       I    between atoms: C5_6  and  N1_8 
REMARK    3  A    between atoms: C6_9  and  N1_8 
REMARK    4  A    between atoms: C6_9  and  C7_10 
REMARK    5  A    between atoms: C6_9  and  C12_16 
REMARK    6  A    between atoms: C7_10  and  C8_11 
REMARK    7  A    between atoms: C8_11  and  C9_12 
REMARK    8  A    between atoms: C9_12  and  C10_13 
REMARK    9  A    between atoms: C10_13  and  C11_14 
REMARK   10  A    between atoms: C11_14  and  S1_15 
REMARK       I    between atoms: C12_16  and  N2_18 
REMARK   11  A    between atoms: N2_18  and  C13_19 
ROOT
ATOM      1  C6  NON d   1     -41.612  18.185  -4.149  0.00  0.00     0.179 C 
ENDROOT
BRANCH   1   2
ATOM      2  N1  NON d   1     -41.123  18.858  -2.660  0.00  0.00    -0.324 N 
ATOM      3  C5  NON d   1     -40.464  20.229  -2.404  0.00  0.00     0.362 C 
ATOM      4  O2  NON d   1     -39.664  20.260  -1.465  0.00  0.00    -0.238 OA
ATOM      5  H10 NON d   1     -40.731  18.189  -2.012  0.00  0.00     0.165 HD
BRANCH   3   6
ATOM      6  O1  NON d   1     -40.766  21.464  -3.142  0.00  0.00    -0.294 OA
BRANCH   6   7
ATOM      7  C2  NON d   1     -39.922  22.936  -3.458  0.00  0.00     0.061 C 
ATOM      8  C1  NON d   1     -40.215  24.448  -3.445  0.00  0.00     0.046 C 
ATOM      9  C3  NON d   1     -39.448  23.016  -1.994  0.00  0.00     0.046 C 
ATOM     10  C4  NON d   1     -40.395  22.857  -4.922  0.00  0.00     0.046 C 
ENDBRANCH   6   7
ENDBRANCH   3   6
ENDBRANCH   1   2
BRANCH   1  11
ATOM     11  C7  NON d   1     -42.000  19.515  -5.079  0.00  0.00     0.035 C 
BRANCH  11  12
ATOM     12  C8  NON d   1     -41.322  20.048  -6.352  0.00  0.00     0.002 C 
BRANCH  12  13
ATOM     13  C9  NON d   1     -40.331  19.113  -7.058  0.00  0.00     0.001 C 
BRANCH  13  14
ATOM     14  C10 NON d   1     -38.920  19.170  -6.488  0.00  0.00     0.010 C 
BRANCH  14  15
ATOM     15  C11 NON d   1     -38.836  19.106  -4.966  0.00  0.00     0.070 C 
BRANCH  15  16
ATOM     16  S1  NON d   1     -37.802  20.439  -4.281  0.00  0.00    -0.182 SA
ATOM     17  H22 NON d   1     -38.669  20.836  -3.338  0.00  0.00     0.101 HD
ENDBRANCH  15  16
ENDBRANCH  14  15
ENDBRANCH  13  14
ENDBRANCH  12  13
ENDBRANCH  11  12
ENDBRANCH   1  11
BRANCH   1  18
ATOM     18  C12 NON d   1     -42.940  17.406  -4.165  0.00  0.00     0.245 C 
ATOM     19  O3  NON d   1     -43.071  16.511  -3.320  0.00  0.00    -0.271 OA
ATOM     20  N2  NON d   1     -44.054  17.939  -4.785  0.00  0.00    -0.324 N 
ATOM     21  H23 NON d   1     -44.039  18.919  -5.031  0.00  0.00     0.169 HD
BRANCH  20  22
ATOM     22  C13 NON d   1     -45.337  17.302  -4.697  0.00  0.00     0.053 A 
ATOM     23  C14 NON d   1     -45.942  16.737  -5.810  0.00  0.00     0.146 A 
ATOM     24  N3  NON d   1     -47.172  16.149  -5.810  0.00  0.00    -0.258 NA
ATOM     25  C15 NON d   1     -47.854  16.088  -4.645  0.00  0.00     0.066 A 
ATOM     26  C16 NON d   1     -49.118  15.508  -4.580  0.00  0.00     0.032 A 
ATOM     27  C20 NON d   1     -47.322  16.600  -3.455  0.00  0.00    -0.005 A 
ATOM     28  C17 NON d   1     -49.831  15.411  -3.375  0.00  0.00     0.002 A 
ATOM     29  C18 NON d   1     -49.279  15.902  -2.200  0.00  0.00     0.001 A 
ATOM     30  C19 NON d   1     -48.026  16.503  -2.238  0.00  0.00     0.014 A 
ATOM     31  C21 NON d   1     -46.063  17.215  -3.507  0.00  0.00     0.044 A 
ENDBRANCH  20  22
ENDBRANCH   1  18
TORSDOF 11
ENDMDL
MODEL 7
REMARK VINA RESULT:   -29.208      2.217      3.220
REMARK INTER + INTRA:         -34.853
REMARK INTER:                 -32.489
REMARK INTRA:                  -2.364
REMARK CONF_INDEPENDENT:        3.281
REMARK UNBOUND:                -2.364
REMARK  11 active torsions:
REMARK  status: ('A' for Active; 'I' for Inactive)
REMARK    1  A    between atoms: C2_2  and  O1_5 
REMARK    2  A    between atoms: O1_5  and  C5_6 
REMARK       I    between atoms: C5_6  and  N1_8 
REMARK    3  A    between atoms: C6_9  and  N1_8 
REMARK    4  A    between atoms: C6_9  and  C7_10 
REMARK    5  A    between atoms: C6_9  and  C12_16 
REMARK    6  A    between atoms: C7_10  and  C8_11 
REMARK    7  A    between atoms: C8_11  and  C9_12 
REMARK    8  A    between atoms: C9_12  and  C10_13 
REMARK    9  A    between atoms: C10_13  and  C11_14 
REMARK   10  A    between atoms: C11_14  and  S1_15 
REMARK       I    between atoms: C12_16  and  N2_18 
REMARK   11  A    between atoms: N2_18  and  C13_19 
ROOT
ATOM      1  C6  NON d   1     -41.606  18.141  -4.926  0.00  0.00     0.179 C 
ENDROOT
BRANCH   1   2
ATOM      2  N1  NON d   1     -40.868  18.060  -3.390  0.00  0.00    -0.324 N 
ATOM      3  C5  NON d   1     -39.362  18.007  -3.058  0.00  0.00     0.362 C 
ATOM      4  O2  NON d   1     -39.068  17.351  -2.055  0.00  0.00    -0.238 OA
ATOM      5  H10 NON d   1     -41.362  17.484  -2.724  0.00  0.00     0.165 HD
BRANCH   3   6
ATOM      6  O1  NON d   1     -38.307  18.714  -3.798  0.00  0.00    -0.294 OA
BRANCH   6   7
ATOM      7  C2  NON d   1     -37.454  18.438  -5.273  0.00  0.00     0.061 C 
ATOM      8  C1  NON d   1     -36.431  19.175  -6.157  0.00  0.00     0.046 C 
ATOM      9  C3  NON d   1     -36.304  17.748  -4.516  0.00  0.00     0.046 C 
ATOM     10  C4  NON d   1     -38.605  19.128  -6.031  0.00  0.00     0.046 C 
ENDBRANCH   6   7
ENDBRANCH   3   6
ENDBRANCH   1   2
BRANCH   1  11
ATOM     11  C7  NON d   1     -42.035  19.746  -5.078  0.00  0.00     0.035 C 
BRANCH  11  12
ATOM     12  C8  NON d   1     -41.166  21.007  -4.940  0.00  0.00     0.002 C 
BRANCH  12  13
ATOM     13  C9  NON d   1     -40.038  20.966  -3.901  0.00  0.00     0.001 C 
BRANCH  13  14
ATOM     14  C10 NON d   1     -40.087  22.106  -2.894  0.00  0.00     0.010 C 
BRANCH  14  15
ATOM     15  C11 NON d   1     -39.869  21.693  -1.441  0.00  0.00     0.070 C 
BRANCH  15  16
ATOM     16  S1  NON d   1     -38.334  20.736  -1.224  0.00  0.00    -0.182 SA
ATOM     17  H22 NON d   1     -38.724  19.661  -1.924  0.00  0.00     0.101 HD
ENDBRANCH  15  16
ENDBRANCH  14  15
ENDBRANCH  13  14
ENDBRANCH  12  13
ENDBRANCH  11  12
ENDBRANCH   1  11
BRANCH   1  18
ATOM     18  C12 NON d   1     -42.970  17.446  -5.086  0.00  0.00     0.245 C 
ATOM     19  O3  NON d   1     -42.952  16.244  -5.383  0.00  0.00    -0.271 OA
ATOM     20  N2  NON d   1     -44.107  18.003  -4.532  0.00  0.00    -0.324 N 
ATOM     21  H23 NON d   1     -43.992  18.742  -3.853  0.00  0.00     0.169 HD
BRANCH  20  22
ATOM     22  C13 NON d   1     -45.364  17.312  -4.546  0.00  0.00     0.053 A 
ATOM     23  C14 NON d   1     -45.884  16.778  -5.717  0.00  0.00     0.146 A 
ATOM     24  N3  NON d   1     -47.085  16.142  -5.813  0.00  0.00    -0.258 NA
ATOM     25  C15 NON d   1     -47.826  15.996  -4.691  0.00  0.00     0.066 A 
ATOM     26  C16 NON d   1     -49.065  15.363  -4.724  0.00  0.00     0.032 A 
ATOM     27  C20 NON d   1     -47.381  16.470  -3.450  0.00  0.00    -0.005 A 
ATOM     28  C17 NON d   1     -49.838  15.179  -3.567  0.00  0.00     0.002 A 
ATOM     29  C18 NON d   1     -49.371  15.633  -2.340  0.00  0.00     0.001 A 
ATOM     30  C19 NON d   1     -48.144  16.285  -2.281  0.00  0.00     0.014 A 
ATOM     31  C21 NON d   1     -46.149  17.137  -3.404  0.00  0.00     0.044 A 
ENDBRANCH  20  22
ENDBRANCH   1  18
TORSDOF 11
ENDMDL
MODEL 8
REMARK VINA RESULT:   -29.182      2.332      2.684
REMARK INTER + INTRA:         -33.688
REMARK INTER:                 -32.464
REMARK INTRA:                  -1.225
REMARK CONF_INDEPENDENT:        3.281
REMARK UNBOUND:                -1.225
REMARK  11 active torsions:
REMARK  status: ('A' for Active; 'I' for Inactive)
REMARK    1  A    between atoms: C2_2  and  O1_5 
REMARK    2  A    between atoms: O1_5  and  C5_6 
REMARK       I    between atoms: C5_6  and  N1_8 
REMARK    3  A    between atoms: C6_9  and  N1_8 
REMARK    4  A    between atoms: C6_9  and  C7_10 
REMARK    5  A    between atoms: C6_9  and  C12_16 
REMARK    6  A    between atoms: C7_10  and  C8_11 
REMARK    7  A    between atoms: C8_11  and  C9_12 
REMARK    8  A    between atoms: C9_12  and  C10_13 
REMARK    9  A    between atoms: C10_13  and  C11_14 
REMARK   10  A    between atoms: C11_14  and  S1_15 
REMARK       I    between atoms: C12_16  and  N2_18 
REMARK   11  A    between atoms: N2_18  and  C13_19 
ROOT
ATOM      1  C6  NON d   1     -42.124  19.451  -5.585  0.00  0.00     0.179 C 
ENDROOT
BRANCH   1   2
ATOM      2  N1  NON d   1     -41.075  18.278  -6.244  0.00  0.00    -0.324 N 
ATOM      3  C5  NON d   1     -40.036  18.453  -7.371  0.00  0.00     0.362 C 
ATOM      4  O2  NON d   1     -39.867  17.463  -8.088  0.00  0.00    -0.238 OA
ATOM      5  H10 NON d   1     -41.483  17.357  -6.326  0.00  0.00     0.165 HD
BRANCH   3   6
ATOM      6  O1  NON d   1     -39.224  19.658  -7.593  0.00  0.00    -0.294 OA
BRANCH   6   7
ATOM      7  C2  NON d   1     -39.564  21.331  -7.844  0.00  0.00     0.061 C 
ATOM      8  C1  NON d   1     -38.892  22.547  -8.510  0.00  0.00     0.046 C 
ATOM      9  C3  NON d   1     -40.300  21.017  -9.160  0.00  0.00     0.046 C 
ATOM     10  C4  NON d   1     -38.827  21.647  -6.528  0.00  0.00     0.046 C 
ENDBRANCH   6   7
ENDBRANCH   3   6
ENDBRANCH   1   2
BRANCH   1  11
ATOM     11  C7  NON d   1     -41.563  19.657  -4.027  0.00  0.00     0.035 C 
BRANCH  11  12
ATOM     12  C8  NON d   1     -40.797  20.840  -3.412  0.00  0.00     0.002 C 
BRANCH  12  13
ATOM     13  C9  NON d   1     -40.732  22.131  -4.238  0.00  0.00     0.001 C 
BRANCH  13  14
ATOM     14  C10 NON d   1     -39.997  23.269  -3.543  0.00  0.00     0.010 C 
BRANCH  14  15
ATOM     15  C11 NON d   1     -40.019  24.601  -4.288  0.00  0.00     0.070 C 
BRANCH  15  16
ATOM     16  S1  NON d   1     -41.584  25.499  -4.039  0.00  0.00    -0.182 SA
ATOM     17  H22 NON d   1     -41.563  25.474  -2.698  0.00  0.00     0.101 HD
ENDBRANCH  15  16
ENDBRANCH  14  15
ENDBRANCH  13  14
ENDBRANCH  12  13
ENDBRANCH  11  12
ENDBRANCH   1  11
BRANCH   1  18
ATOM     18  C12 NON d   1     -43.580  19.024  -5.329  0.00  0.00     0.245 C 
ATOM     19  O3  NON d   1     -44.449  19.560  -6.030  0.00  0.00    -0.271 OA
ATOM     20  N2  NON d   1     -43.857  17.840  -4.673  0.00  0.00    -0.324 N 
ATOM     21  H23 NON d   1     -43.106  17.172  -4.561  0.00  0.00     0.169 HD
BRANCH  20  22
ATOM     22  C13 NON d   1     -45.199  17.350  -4.542  0.00  0.00     0.053 A 
ATOM     23  C14 NON d   1     -45.932  16.947  -5.648  0.00  0.00     0.146 A 
ATOM     24  N3  NON d   1     -47.221  16.505  -5.605  0.00  0.00    -0.258 NA
ATOM     25  C15 NON d   1     -47.835  16.432  -4.403  0.00  0.00     0.066 A 
ATOM     26  C16 NON d   1     -49.153  15.998  -4.293  0.00  0.00     0.032 A 
ATOM     27  C20 NON d   1     -47.176  16.787  -3.219  0.00  0.00    -0.005 A 
ATOM     28  C17 NON d   1     -49.800  15.891  -3.051  0.00  0.00     0.002 A 
ATOM     29  C18 NON d   1     -49.124  16.223  -1.885  0.00  0.00     0.001 A 
ATOM     30  C19 NON d   1     -47.812  16.677  -1.967  0.00  0.00     0.014 A 
ATOM     31  C21 NON d   1     -45.858  17.255  -3.315  0.00  0.00     0.044 A 
ENDBRANCH  20  22
ENDBRANCH   1  18
TORSDOF 11
ENDMDL
