MODEL 1
REMARK VINA RESULT:   -34.036      0.000      0.000
REMARK INTER + INTRA:         -38.142
REMARK INTER:                 -36.124
REMARK INTRA:                  -2.018
REMARK CONF_INDEPENDENT:        2.088
REMARK UNBOUND:                -2.018
REMARK  7 active torsions:
REMARK  status: ('A' for Active; 'I' for Inactive)
REMARK    1  A    between atoms: C3_4  and  C4_5 
REMARK       I    between atoms: C4_5  and  N2_7 
REMARK    2  A    between atoms: N2_7  and  C5_8 
REMARK    3  A    between atoms: C11_15  and  C12_16 
REMARK    4  A    between atoms: C15_19  and  C16_20 
REMARK    5  A    between atoms: C17_21  and  C18_22 
REMARK       I    between atoms: C18_22  and  N3_24 
REMARK    6  A    between atoms: N3_24  and  C19_25 
REMARK    7  A    between atoms: C24_30  and  N4_31 
ROOT
ATOM      1  C12 NON d   1     -39.268  20.435  -3.543  0.00  0.00    -0.051 A 
ATOM      2  C13 NON d   1     -40.106  19.861  -2.575  0.00  0.00     0.008 A 
ATOM      3  C14 NON d   1     -41.179  19.019  -2.928  0.00  0.00     0.012 A 
ATOM      4  C15 NON d   1     -41.457  18.714  -4.265  0.00  0.00    -0.036 A 
ATOM      5  C25 NON d   1     -40.602  19.257  -5.229  0.00  0.00     0.012 A 
ATOM      6  C26 NON d   1     -39.531  20.099  -4.879  0.00  0.00     0.008 A 
ENDROOT
BRANCH   1   7
ATOM      7  C11 NON d   1     -38.290  21.551  -3.202  0.00  0.00     0.059 C 
ATOM      8  C3  NON d   1     -38.608  23.002  -3.673  0.00  0.00     0.114 C 
ATOM      9  C2  NON d   1     -37.797  23.922  -2.747  0.00  0.00     0.249 C 
ATOM     10  N1  NON d   1     -37.068  22.991  -1.813  0.00  0.00    -0.073 N 
ATOM     11  C1  NON d   1     -36.309  23.538  -0.590  0.00  0.00     0.269 C 
ATOM     12  C27 NON d   1     -37.930  21.759  -1.718  0.00  0.00     0.244 C 
ATOM     13  H4  NON d   1     -36.263  22.668  -2.374  0.00  0.00     0.279 HD
BRANCH   8  14
ATOM     14  C4  NON d   1     -38.216  23.239  -5.130  0.00  0.00     0.228 C 
ATOM     15  O1  NON d   1     -37.038  23.381  -5.446  0.00  0.00    -0.273 OA
ATOM     16  N2  NON d   1     -39.273  23.275  -6.018  0.00  0.00    -0.327 N 
ATOM     17  H8  NON d   1     -40.199  23.542  -5.705  0.00  0.00     0.169 HD
BRANCH  16  18
ATOM     18  C5  NON d   1     -39.155  23.064  -7.414  0.00  0.00     0.034 A 
ATOM     19  C6  NON d   1     -38.980  21.754  -7.877  0.00  0.00     0.031 A 
ATOM     20  C7  NON d   1     -38.781  21.507  -9.240  0.00  0.00     0.026 A 
ATOM     21  C8  NON d   1     -38.720  22.569 -10.138  0.00  0.00     0.034 A 
ATOM     22 Cl1  NON d   1     -38.427  22.268 -11.805  0.00  0.00    -0.084 Cl
ATOM     23  C9  NON d   1     -38.885  23.876  -9.688  0.00  0.00     0.026 A 
ATOM     24  C10 NON d   1     -39.118  24.121  -8.330  0.00  0.00     0.031 A 
ENDBRANCH  16  18
ENDBRANCH   8  14
ENDBRANCH   1   7
BRANCH   4  25
ATOM     25  C16 NON d   1     -42.680  17.934  -4.593  0.00  0.00     0.017 C 
ATOM     26  C17 NON d   1     -43.905  18.466  -4.740  0.00  0.00     0.075 C 
BRANCH  26  27
ATOM     27  C18 NON d   1     -45.227  17.795  -4.961  0.00  0.00     0.245 C 
ATOM     28  O2  NON d   1     -45.565  17.643  -6.133  0.00  0.00    -0.268 OA
ATOM     29  N3  NON d   1     -45.938  17.428  -3.849  0.00  0.00    -0.322 N 
ATOM     30  H18 NON d   1     -45.581  17.738  -2.959  0.00  0.00     0.169 HD
BRANCH  29  31
ATOM     31  C19 NON d   1     -47.183  16.729  -3.780  0.00  0.00     0.056 A 
ATOM     32  C20 NON d   1     -47.685  16.538  -2.476  0.00  0.00     0.031 A 
ATOM     33  C21 NON d   1     -48.891  15.870  -2.243  0.00  0.00     0.002 A 
ATOM     34  C22 NON d   1     -49.609  15.351  -3.311  0.00  0.00     0.002 A 
ATOM     35  C23 NON d   1     -49.120  15.507  -4.605  0.00  0.00     0.025 A 
ATOM     36  C24 NON d   1     -47.933  16.221  -4.868  0.00  0.00     0.033 A 
BRANCH  36  37
ATOM     37  N4  NON d   1     -47.440  16.130  -6.185  0.00  0.00    -0.301 NA
ATOM     38  H23 NON d   1     -47.060  17.031  -6.500  0.00  0.00     0.124 HD
ATOM     39  H24 NON d   1     -48.128  15.797  -6.851  0.00  0.00     0.124 HD
ENDBRANCH  36  37
ENDBRANCH  29  31
ENDBRANCH  26  27
ENDBRANCH   4  25
TORSDOF 7
ENDMDL
MODEL 2
REMARK VINA RESULT:   -33.721      0.805      1.200
REMARK INTER + INTRA:         -38.446
REMARK INTER:                 -35.809
REMARK INTRA:                  -2.636
REMARK CONF_INDEPENDENT:        2.088
REMARK UNBOUND:                -2.636
REMARK  7 active torsions:
REMARK  status: ('A' for Active; 'I' for Inactive)
REMARK    1  A    between atoms: C3_4  and  C4_5 
REMARK       I    between atoms: C4_5  and  N2_7 
REMARK    2  A    between atoms: N2_7  and  C5_8 
REMARK    3  A    between atoms: C11_15  and  C12_16 
REMARK    4  A    between atoms: C15_19  and  C16_20 
REMARK    5  A    between atoms: C17_21  and  C18_22 
REMARK       I    between atoms: C18_22  and  N3_24 
REMARK    6  A    between atoms: N3_24  and  C19_25 
REMARK    7  A    between atoms: C24_30  and  N4_31 
ROOT
ATOM      1  C12 NON d   1     -39.408  20.220  -2.601  0.00  0.00    -0.051 A 
ATOM      2  C13 NON d   1     -40.229  19.606  -1.642  0.00  0.00     0.008 A 
ATOM      3  C14 NON d   1     -41.253  18.710  -2.008  0.00  0.00     0.012 A 
ATOM      4  C15 NON d   1     -41.498  18.390  -3.348  0.00  0.00    -0.036 A 
ATOM      5  C25 NON d   1     -40.658  18.974  -4.302  0.00  0.00     0.012 A 
ATOM      6  C26 NON d   1     -39.635  19.869  -3.939  0.00  0.00     0.008 A 
ENDROOT
BRANCH   1   7
ATOM      7  C11 NON d   1     -38.493  21.384  -2.248  0.00  0.00     0.059 C 
ATOM      8  C3  NON d   1     -38.890  22.820  -2.705  0.00  0.00     0.114 C 
ATOM      9  C2  NON d   1     -38.130  23.775  -1.771  0.00  0.00     0.249 C 
ATOM     10  N1  NON d   1     -37.351  22.877  -0.845  0.00  0.00    -0.073 N 
ATOM     11  C1  NON d   1     -36.623  23.453   0.383  0.00  0.00     0.269 C 
ATOM     12  C27 NON d   1     -38.144  21.598  -0.762  0.00  0.00     0.244 C 
ATOM     13  H4  NON d   1     -36.530  22.603  -1.409  0.00  0.00     0.279 HD
BRANCH   8  14
ATOM     14  C4  NON d   1     -38.512  23.093  -4.160  0.00  0.00     0.228 C 
ATOM     15  O1  NON d   1     -37.387  23.489  -4.451  0.00  0.00    -0.273 OA
ATOM     16  N2  NON d   1     -39.519  22.858  -5.076  0.00  0.00    -0.327 N 
ATOM     17  H8  NON d   1     -40.491  22.917  -4.798  0.00  0.00     0.169 HD
BRANCH  16  18
ATOM     18  C5  NON d   1     -39.308  22.634  -6.459  0.00  0.00     0.034 A 
ATOM     19  C6  NON d   1     -39.574  23.680  -7.351  0.00  0.00     0.031 A 
ATOM     20  C7  NON d   1     -39.455  23.481  -8.731  0.00  0.00     0.026 A 
ATOM     21  C8  NON d   1     -39.104  22.227  -9.225  0.00  0.00     0.034 A 
ATOM     22 Cl1  NON d   1     -39.006  21.969 -10.921  0.00  0.00    -0.084 Cl
ATOM     23  C9  NON d   1     -38.844  21.178  -8.347  0.00  0.00     0.026 A 
ATOM     24  C10 NON d   1     -38.931  21.386  -6.966  0.00  0.00     0.031 A 
ENDBRANCH  16  18
ENDBRANCH   8  14
ENDBRANCH   1   7
BRANCH   4  25
ATOM     25  C16 NON d   1     -42.675  17.548  -3.692  0.00  0.00     0.017 C 
ATOM     26  C17 NON d   1     -43.755  17.987  -4.358  0.00  0.00     0.075 C 
BRANCH  26  27
ATOM     27  C18 NON d   1     -45.043  17.288  -4.675  0.00  0.00     0.245 C 
ATOM     28  O2  NON d   1     -45.135  16.813  -5.804  0.00  0.00    -0.268 OA
ATOM     29  N3  NON d   1     -45.996  17.254  -3.691  0.00  0.00    -0.322 N 
ATOM     30  H18 NON d   1     -45.815  17.800  -2.864  0.00  0.00     0.169 HD
BRANCH  29  31
ATOM     31  C19 NON d   1     -47.272  16.610  -3.710  0.00  0.00     0.056 A 
ATOM     32  C20 NON d   1     -47.843  16.383  -2.441  0.00  0.00     0.031 A 
ATOM     33  C21 NON d   1     -49.086  15.761  -2.294  0.00  0.00     0.002 A 
ATOM     34  C22 NON d   1     -49.775  15.324  -3.416  0.00  0.00     0.002 A 
ATOM     35  C23 NON d   1     -49.218  15.514  -4.678  0.00  0.00     0.025 A 
ATOM     36  C24 NON d   1     -47.991  16.185  -4.854  0.00  0.00     0.033 A 
BRANCH  36  37
ATOM     37  N4  NON d   1     -47.440  16.131  -6.150  0.00  0.00    -0.301 NA
ATOM     38  H23 NON d   1     -46.637  15.492  -6.184  0.00  0.00     0.124 HD
ATOM     39  H24 NON d   1     -47.171  17.039  -6.512  0.00  0.00     0.124 HD
ENDBRANCH  36  37
ENDBRANCH  29  31
ENDBRANCH  26  27
ENDBRANCH   4  25
TORSDOF 7
ENDMDL
MODEL 3
REMARK VINA RESULT:   -32.066      3.302      5.300
REMARK INTER + INTRA:         -36.107
REMARK INTER:                 -34.155
REMARK INTRA:                  -1.952
REMARK CONF_INDEPENDENT:        2.088
REMARK UNBOUND:                -1.952
REMARK  7 active torsions:
REMARK  status: ('A' for Active; 'I' for Inactive)
REMARK    1  A    between atoms: C3_4  and  C4_5 
REMARK       I    between atoms: C4_5  and  N2_7 
REMARK    2  A    between atoms: N2_7  and  C5_8 
REMARK    3  A    between atoms: C11_15  and  C12_16 
REMARK    4  A    between atoms: C15_19  and  C16_20 
REMARK    5  A    between atoms: C17_21  and  C18_22 
REMARK       I    between atoms: C18_22  and  N3_24 
REMARK    6  A    between atoms: N3_24  and  C19_25 
REMARK    7  A    between atoms: C24_30  and  N4_31 
ROOT
ATOM      1  C12 NON d   1     -39.469  21.391  -4.445  0.00  0.00    -0.051 A 
ATOM      2  C13 NON d   1     -40.841  21.605  -4.241  0.00  0.00     0.008 A 
ATOM      3  C14 NON d   1     -41.779  20.560  -4.353  0.00  0.00     0.012 A 
ATOM      4  C15 NON d   1     -41.384  19.256  -4.673  0.00  0.00    -0.036 A 
ATOM      5  C25 NON d   1     -40.014  19.034  -4.843  0.00  0.00     0.012 A 
ATOM      6  C26 NON d   1     -39.075  20.075  -4.731  0.00  0.00     0.008 A 
ENDROOT
BRANCH   1   7
ATOM      7  C11 NON d   1     -38.489  22.545  -4.597  0.00  0.00     0.059 C 
ATOM      8  C3  NON d   1     -37.191  22.551  -3.735  0.00  0.00     0.114 C 
ATOM      9  C2  NON d   1     -36.206  23.466  -4.479  0.00  0.00     0.249 C 
ATOM     10  N1  NON d   1     -36.955  23.935  -5.700  0.00  0.00    -0.073 N 
ATOM     11  C1  NON d   1     -36.232  24.706  -6.820  0.00  0.00     0.269 C 
ATOM     12  C27 NON d   1     -37.945  22.842  -6.009  0.00  0.00     0.244 C 
ATOM     13  H4  NON d   1     -37.554  24.694  -5.338  0.00  0.00     0.279 HD
BRANCH   8  14
ATOM     14  C4  NON d   1     -37.435  23.076  -2.321  0.00  0.00     0.228 C 
ATOM     15  O1  NON d   1     -36.784  24.021  -1.883  0.00  0.00    -0.273 OA
ATOM     16  N2  NON d   1     -38.419  22.411  -1.616  0.00  0.00    -0.327 N 
ATOM     17  H8  NON d   1     -38.645  21.447  -1.832  0.00  0.00     0.169 HD
BRANCH  16  18
ATOM     18  C5  NON d   1     -39.102  22.946  -0.496  0.00  0.00     0.034 A 
ATOM     19  C6  NON d   1     -38.495  22.850   0.762  0.00  0.00     0.031 A 
ATOM     20  C7  NON d   1     -39.167  23.294   1.907  0.00  0.00     0.026 A 
ATOM     21  C8  NON d   1     -40.460  23.801   1.802  0.00  0.00     0.034 A 
ATOM     22 Cl1  NON d   1     -41.303  24.300   3.214  0.00  0.00    -0.084 Cl
ATOM     23  C9  NON d   1     -41.075  23.894   0.557  0.00  0.00     0.026 A 
ATOM     24  C10 NON d   1     -40.391  23.481  -0.592  0.00  0.00     0.031 A 
ENDBRANCH  16  18
ENDBRANCH   8  14
ENDBRANCH   1   7
BRANCH   4  25
ATOM     25  C16 NON d   1     -42.423  18.220  -4.915  0.00  0.00     0.017 C 
ATOM     26  C17 NON d   1     -43.730  18.377  -4.649  0.00  0.00     0.075 C 
BRANCH  26  27
ATOM     27  C18 NON d   1     -44.858  17.394  -4.739  0.00  0.00     0.245 C 
ATOM     28  O2  NON d   1     -44.698  16.460  -5.523  0.00  0.00    -0.268 OA
ATOM     29  N3  NON d   1     -45.959  17.628  -3.958  0.00  0.00    -0.322 N 
ATOM     30  H18 NON d   1     -45.987  18.507  -3.465  0.00  0.00     0.169 HD
BRANCH  29  31
ATOM     31  C19 NON d   1     -47.133  16.826  -3.812  0.00  0.00     0.056 A 
ATOM     32  C20 NON d   1     -47.559  16.633  -2.482  0.00  0.00     0.031 A 
ATOM     33  C21 NON d   1     -48.689  15.870  -2.174  0.00  0.00     0.002 A 
ATOM     34  C22 NON d   1     -49.404  15.257  -3.193  0.00  0.00     0.002 A 
ATOM     35  C23 NON d   1     -48.987  15.413  -4.512  0.00  0.00     0.025 A 
ATOM     36  C24 NON d   1     -47.881  16.219  -4.849  0.00  0.00     0.033 A 
BRANCH  36  37
ATOM     37  N4  NON d   1     -47.440  16.130  -6.185  0.00  0.00    -0.301 NA
ATOM     38  H23 NON d   1     -46.850  16.934  -6.434  0.00  0.00     0.124 HD
ATOM     39  H24 NON d   1     -48.196  16.041  -6.854  0.00  0.00     0.124 HD
ENDBRANCH  36  37
ENDBRANCH  29  31
ENDBRANCH  26  27
ENDBRANCH   4  25
TORSDOF 7
ENDMDL
MODEL 4
REMARK VINA RESULT:   -31.431      1.752      2.368
REMARK INTER + INTRA:         -35.399
REMARK INTER:                 -33.519
REMARK INTRA:                  -1.880
REMARK CONF_INDEPENDENT:        2.088
REMARK UNBOUND:                -1.880
REMARK  7 active torsions:
REMARK  status: ('A' for Active; 'I' for Inactive)
REMARK    1  A    between atoms: C3_4  and  C4_5 
REMARK       I    between atoms: C4_5  and  N2_7 
REMARK    2  A    between atoms: N2_7  and  C5_8 
REMARK    3  A    between atoms: C11_15  and  C12_16 
REMARK    4  A    between atoms: C15_19  and  C16_20 
REMARK    5  A    between atoms: C17_21  and  C18_22 
REMARK       I    between atoms: C18_22  and  N3_24 
REMARK    6  A    between atoms: N3_24  and  C19_25 
REMARK    7  A    between atoms: C24_30  and  N4_31 
ROOT
ATOM      1  C12 NON d   1     -39.397  21.412  -4.984  0.00  0.00    -0.051 A 
ATOM      2  C13 NON d   1     -39.811  20.868  -3.759  0.00  0.00     0.008 A 
ATOM      3  C14 NON d   1     -40.989  20.103  -3.648  0.00  0.00     0.012 A 
ATOM      4  C15 NON d   1     -41.802  19.850  -4.758  0.00  0.00    -0.036 A 
ATOM      5  C25 NON d   1     -41.372  20.362  -5.987  0.00  0.00     0.012 A 
ATOM      6  C26 NON d   1     -40.197  21.126  -6.100  0.00  0.00     0.008 A 
ENDROOT
BRANCH   1   7
ATOM      7  C11 NON d   1     -38.292  22.455  -5.068  0.00  0.00     0.059 C 
ATOM      8  C3  NON d   1     -38.167  23.319  -6.359  0.00  0.00     0.114 C 
ATOM      9  C2  NON d   1     -37.390  24.577  -5.940  0.00  0.00     0.249 C 
ATOM     10  N1  NON d   1     -37.109  24.391  -4.471  0.00  0.00    -0.073 N 
ATOM     11  C1  NON d   1     -36.530  25.542  -3.627  0.00  0.00     0.269 C 
ATOM     12  C27 NON d   1     -38.224  23.520  -3.954  0.00  0.00     0.244 C 
ATOM     13  H4  NON d   1     -36.295  23.754  -4.460  0.00  0.00     0.279 HD
BRANCH   8  14
ATOM     14  C4  NON d   1     -37.425  22.588  -7.477  0.00  0.00     0.228 C 
ATOM     15  O1  NON d   1     -36.864  21.518  -7.260  0.00  0.00    -0.273 OA
ATOM     16  N2  NON d   1     -37.449  23.224  -8.703  0.00  0.00    -0.327 N 
ATOM     17  H8  NON d   1     -37.563  24.229  -8.759  0.00  0.00     0.169 HD
BRANCH  16  18
ATOM     18  C5  NON d   1     -37.214  22.581  -9.943  0.00  0.00     0.034 A 
ATOM     19  C6  NON d   1     -37.822  23.106 -11.090  0.00  0.00     0.031 A 
ATOM     20  C7  NON d   1     -37.682  22.460 -12.324  0.00  0.00     0.026 A 
ATOM     21  C8  NON d   1     -36.963  21.270 -12.408  0.00  0.00     0.034 A 
ATOM     22 Cl1  NON d   1     -36.832  20.451 -13.913  0.00  0.00    -0.084 Cl
ATOM     23  C9  NON d   1     -36.360  20.736 -11.273  0.00  0.00     0.026 A 
ATOM     24  C10 NON d   1     -36.473  21.399 -10.045  0.00  0.00     0.031 A 
ENDBRANCH  16  18
ENDBRANCH   8  14
ENDBRANCH   1   7
BRANCH   4  25
ATOM     25  C16 NON d   1     -43.103  19.156  -4.565  0.00  0.00     0.017 C 
ATOM     26  C17 NON d   1     -43.384  17.925  -5.022  0.00  0.00     0.075 C 
BRANCH  26  27
ATOM     27  C18 NON d   1     -44.670  17.156  -4.996  0.00  0.00     0.245 C 
ATOM     28  O2  NON d   1     -44.768  16.240  -5.809  0.00  0.00    -0.268 OA
ATOM     29  N3  NON d   1     -45.616  17.547  -4.085  0.00  0.00    -0.322 N 
ATOM     30  H18 NON d   1     -45.432  18.397  -3.576  0.00  0.00     0.169 HD
BRANCH  29  31
ATOM     31  C19 NON d   1     -46.889  16.956  -3.814  0.00  0.00     0.056 A 
ATOM     32  C20 NON d   1     -47.259  16.939  -2.454  0.00  0.00     0.031 A 
ATOM     33  C21 NON d   1     -48.473  16.392  -2.028  0.00  0.00     0.002 A 
ATOM     34  C22 NON d   1     -49.334  15.820  -2.955  0.00  0.00     0.002 A 
ATOM     35  C23 NON d   1     -48.977  15.803  -4.300  0.00  0.00     0.025 A 
ATOM     36  C24 NON d   1     -47.782  16.394  -4.758  0.00  0.00     0.033 A 
BRANCH  36  37
ATOM     37  N4  NON d   1     -47.440  16.130  -6.100  0.00  0.00    -0.301 NA
ATOM     38  H23 NON d   1     -46.476  16.425  -6.301  0.00  0.00     0.124 HD
ATOM     39  H24 NON d   1     -48.073  16.554  -6.768  0.00  0.00     0.124 HD
ENDBRANCH  36  37
ENDBRANCH  29  31
ENDBRANCH  26  27
ENDBRANCH   4  25
TORSDOF 7
ENDMDL
MODEL 5
REMARK VINA RESULT:   -31.173      1.833      2.436
REMARK INTER + INTRA:         -34.910
REMARK INTER:                 -33.261
REMARK INTRA:                  -1.648
REMARK CONF_INDEPENDENT:        2.088
REMARK UNBOUND:                -1.648
REMARK  7 active torsions:
REMARK  status: ('A' for Active; 'I' for Inactive)
REMARK    1  A    between atoms: C3_4  and  C4_5 
REMARK       I    between atoms: C4_5  and  N2_7 
REMARK    2  A    between atoms: N2_7  and  C5_8 
REMARK    3  A    between atoms: C11_15  and  C12_16 
REMARK    4  A    between atoms: C15_19  and  C16_20 
REMARK    5  A    between atoms: C17_21  and  C18_22 
REMARK       I    between atoms: C18_22  and  N3_24 
REMARK    6  A    between atoms: N3_24  and  C19_25 
REMARK    7  A    between atoms: C24_30  and  N4_31 
ROOT
ATOM      1  C12 NON d   1     -39.392  21.468  -4.723  0.00  0.00    -0.051 A 
ATOM      2  C13 NON d   1     -39.729  20.968  -3.457  0.00  0.00     0.008 A 
ATOM      3  C14 NON d   1     -40.646  19.911  -3.297  0.00  0.00     0.012 A 
ATOM      4  C15 NON d   1     -41.264  19.309  -4.399  0.00  0.00    -0.036 A 
ATOM      5  C25 NON d   1     -40.903  19.783  -5.664  0.00  0.00     0.012 A 
ATOM      6  C26 NON d   1     -39.988  20.839  -5.826  0.00  0.00     0.008 A 
ENDROOT
BRANCH   1   7
ATOM      7  C11 NON d   1     -38.627  22.772  -4.895  0.00  0.00     0.059 C 
ATOM      8  C3  NON d   1     -39.343  23.986  -5.560  0.00  0.00     0.114 C 
ATOM      9  C2  NON d   1     -38.566  25.228  -5.098  0.00  0.00     0.249 C 
ATOM     10  N1  NON d   1     -37.468  24.694  -4.214  0.00  0.00    -0.073 N 
ATOM     11  C1  NON d   1     -36.595  25.649  -3.379  0.00  0.00     0.269 C 
ATOM     12  C27 NON d   1     -38.003  23.410  -3.638  0.00  0.00     0.244 C 
ATOM     13  H4  NON d   1     -36.755  24.367  -4.886  0.00  0.00     0.279 HD
BRANCH   8  14
ATOM     14  C4  NON d   1     -39.340  23.898  -7.086  0.00  0.00     0.228 C 
ATOM     15  O1  NON d   1     -39.802  22.914  -7.657  0.00  0.00    -0.273 OA
ATOM     16  N2  NON d   1     -38.791  24.989  -7.730  0.00  0.00    -0.327 N 
ATOM     17  H8  NON d   1     -38.099  25.566  -7.266  0.00  0.00     0.169 HD
BRANCH  16  18
ATOM     18  C5  NON d   1     -39.041  25.332  -9.081  0.00  0.00     0.034 A 
ATOM     19  C6  NON d   1     -39.181  26.686  -9.410  0.00  0.00     0.031 A 
ATOM     20  C7  NON d   1     -39.506  27.066 -10.717  0.00  0.00     0.026 A 
ATOM     21  C8  NON d   1     -39.726  26.094 -11.690  0.00  0.00     0.034 A 
ATOM     22 Cl1  NON d   1     -40.172  26.561 -13.283  0.00  0.00    -0.084 Cl
ATOM     23  C9  NON d   1     -39.596  24.746 -11.373  0.00  0.00     0.026 A 
ATOM     24  C10 NON d   1     -39.239  24.366 -10.074  0.00  0.00     0.031 A 
ENDBRANCH  16  18
ENDBRANCH   8  14
ENDBRANCH   1   7
BRANCH   4  25
ATOM     25  C16 NON d   1     -42.326  18.292  -4.172  0.00  0.00     0.017 C 
ATOM     26  C17 NON d   1     -43.305  18.007  -5.046  0.00  0.00     0.075 C 
BRANCH  26  27
ATOM     27  C18 NON d   1     -44.487  17.096  -4.906  0.00  0.00     0.245 C 
ATOM     28  O2  NON d   1     -44.379  15.988  -5.428  0.00  0.00    -0.268 OA
ATOM     29  N3  NON d   1     -45.575  17.580  -4.228  0.00  0.00    -0.322 N 
ATOM     30  H18 NON d   1     -45.554  18.554  -3.971  0.00  0.00     0.169 HD
BRANCH  29  31
ATOM     31  C19 NON d   1     -46.794  16.907  -3.905  0.00  0.00     0.056 A 
ATOM     32  C20 NON d   1     -47.078  16.819  -2.527  0.00  0.00     0.031 A 
ATOM     33  C21 NON d   1     -48.231  16.188  -2.052  0.00  0.00     0.002 A 
ATOM     34  C22 NON d   1     -49.115  15.602  -2.947  0.00  0.00     0.002 A 
ATOM     35  C23 NON d   1     -48.842  15.654  -4.311  0.00  0.00     0.025 A 
ATOM     36  C24 NON d   1     -47.712  16.330  -4.816  0.00  0.00     0.033 A 
BRANCH  36  37
ATOM     37  N4  NON d   1     -47.439  16.135  -6.185  0.00  0.00    -0.301 NA
ATOM     38  H23 NON d   1     -47.996  15.360  -6.566  0.00  0.00     0.124 HD
ATOM     39  H24 NON d   1     -46.457  15.979  -6.382  0.00  0.00     0.124 HD
ENDBRANCH  36  37
ENDBRANCH  29  31
ENDBRANCH  26  27
ENDBRANCH   4  25
TORSDOF 7
ENDMDL
