MODEL 1
REMARK VINA RESULT:   -16.326      0.000      0.000
REMARK INTER + INTRA:         -21.430
REMARK INTER:                 -19.607
REMARK INTRA:                  -1.822
REMARK CONF_INDEPENDENT:        3.281
REMARK UNBOUND:                -1.822
REMARK  11 active torsions:
REMARK  status: ('A' for Active; 'I' for Inactive)
REMARK    1  A    between atoms: C1_2  and  C2_3 
REMARK       I    between atoms: C1_2  and  N3_27 
REMARK    2  A    between atoms: C3_4  and  C4_5 
REMARK    3  A    between atoms: C7_8  and  C8_9 
REMARK    4  A    between atoms: C8_9  and  N1_10 
REMARK    5  A    between atoms: N1_10  and  C9_11 
REMARK    6  A    between atoms: N1_10  and  C11_14 
REMARK    7  A    between atoms: C9_11  and  C10_12 
REMARK    8  A    between atoms: C10_12  and  O2_13 
REMARK    9  A    between atoms: C11_14  and  C12_15 
REMARK   10  A    between atoms: C12_15  and  C13_16 
REMARK   11  A    between atoms: N3_27  and  O3_28 
ROOT
ATOM      1  N1  NON d   1     -39.020  20.943  -1.297  0.00  0.00    -0.065 N 
ATOM      2  H7  NON d   1     -38.554  19.880  -0.284  0.00  0.00     0.280 HD
ENDROOT
BRANCH   1   3
ATOM      3  C8  NON d   1     -38.792  19.655  -2.119  0.00  0.00     0.273 C 
BRANCH   3   4
ATOM      4  C7  NON d   1     -40.072  19.153  -2.798  0.00  0.00    -0.033 A 
ATOM      5  C6  NON d   1     -40.303  19.409  -4.151  0.00  0.00     0.009 A 
ATOM      6  C5  NON d   1     -41.439  18.893  -4.799  0.00  0.00     0.012 A 
ATOM      7  C4  NON d   1     -42.377  18.085  -4.134  0.00  0.00    -0.036 A 
ATOM      8  C22 NON d   1     -42.173  17.868  -2.770  0.00  0.00     0.012 A 
ATOM      9  C21 NON d   1     -41.047  18.400  -2.113  0.00  0.00     0.009 A 
BRANCH   7  10
ATOM     10  C3  NON d   1     -43.525  17.550  -4.896  0.00  0.00     0.017 C 
ATOM     11  C2  NON d   1     -44.826  17.851  -4.699  0.00  0.00     0.077 C 
BRANCH  11  12
ATOM     12  C1  NON d   1     -45.973  17.241  -5.440  0.00  0.00     0.264 C 
ATOM     13  O1  NON d   1     -46.456  17.832  -6.402  0.00  0.00    -0.266 OA
ATOM     14  N3  NON d   1     -46.385  16.012  -5.003  0.00  0.00    -0.234 N 
ATOM     15  H25 NON d   1     -45.843  15.442  -4.368  0.00  0.00     0.197 HD
BRANCH  14  16
ATOM     16  O3  NON d   1     -47.313  15.318  -5.810  0.00  0.00    -0.287 OA
ATOM     17  H26 NON d   1     -47.844  16.045  -6.193  0.00  0.00     0.244 HD
ENDBRANCH  14  16
ENDBRANCH  11  12
ENDBRANCH   7  10
ENDBRANCH   3   4
ENDBRANCH   1   3
BRANCH   1  18
ATOM     18  C9  NON d   1     -38.228  21.682  -0.184  0.00  0.00     0.261 C 
BRANCH  18  19
ATOM     19  C10 NON d   1     -36.796  21.089  -0.210  0.00  0.00     0.192 C 
BRANCH  19  20
ATOM     20  O2  NON d   1     -36.758  20.176   0.902  0.00  0.00    -0.399 OA
ATOM     21  H12 NON d   1     -37.665  19.808   0.999  0.00  0.00     0.209 HD
ENDBRANCH  19  20
ENDBRANCH  18  19
ENDBRANCH   1  18
BRANCH   1  22
ATOM     22  C11 NON d   1     -39.485  22.006  -2.310  0.00  0.00     0.241 C 
BRANCH  22  23
ATOM     23  C12 NON d   1     -40.669  22.944  -2.035  0.00  0.00     0.084 C 
BRANCH  23  24
ATOM     24  C13 NON d   1     -40.786  23.519  -0.666  0.00  0.00     0.012 A 
ATOM     25  C14 NON d   1     -41.029  22.958   0.570  0.00  0.00     0.038 A 
ATOM     26  C15 NON d   1     -41.011  23.994   1.543  0.00  0.00    -0.008 A 
ATOM     27  C16 NON d   1     -41.138  24.025   2.944  0.00  0.00     0.014 A 
ATOM     28  C20 NON d   1     -40.847  25.194   0.857  0.00  0.00     0.042 A 
ATOM     29  C17 NON d   1     -41.095  25.258   3.607  0.00  0.00     0.001 A 
ATOM     30  C18 NON d   1     -40.946  26.444   2.891  0.00  0.00     0.002 A 
ATOM     31  C19 NON d   1     -40.825  26.437   1.497  0.00  0.00     0.030 A 
ATOM     32  N2  NON d   1     -40.744  24.884  -0.479  0.00  0.00    -0.359 N 
ATOM     33  H22 NON d   1     -40.658  25.580  -1.208  0.00  0.00     0.166 HD
ENDBRANCH  23  24
ENDBRANCH  22  23
ENDBRANCH   1  22
TORSDOF 11
ENDMDL
MODEL 2
REMARK VINA RESULT:   -16.059      1.114      1.717
REMARK INTER + INTRA:         -22.379
REMARK INTER:                 -19.340
REMARK INTRA:                  -3.039
REMARK CONF_INDEPENDENT:        3.281
REMARK UNBOUND:                -3.039
REMARK  11 active torsions:
REMARK  status: ('A' for Active; 'I' for Inactive)
REMARK    1  A    between atoms: C1_2  and  C2_3 
REMARK       I    between atoms: C1_2  and  N3_27 
REMARK    2  A    between atoms: C3_4  and  C4_5 
REMARK    3  A    between atoms: C7_8  and  C8_9 
REMARK    4  A    between atoms: C8_9  and  N1_10 
REMARK    5  A    between atoms: N1_10  and  C9_11 
REMARK    6  A    between atoms: N1_10  and  C11_14 
REMARK    7  A    between atoms: C9_11  and  C10_12 
REMARK    8  A    between atoms: C10_12  and  O2_13 
REMARK    9  A    between atoms: C11_14  and  C12_15 
REMARK   10  A    between atoms: C12_15  and  C13_16 
REMARK   11  A    between atoms: N3_27  and  O3_28 
ROOT
ATOM      1  N1  NON d   1     -38.754  20.618  -1.698  0.00  0.00    -0.065 N 
ATOM      2  H7  NON d   1     -38.402  19.621  -0.579  0.00  0.00     0.280 HD
ENDROOT
BRANCH   1   3
ATOM      3  C8  NON d   1     -38.655  19.239  -2.385  0.00  0.00     0.273 C 
BRANCH   3   4
ATOM      4  C7  NON d   1     -39.980  18.798  -3.018  0.00  0.00    -0.033 A 
ATOM      5  C6  NON d   1     -40.158  18.856  -4.402  0.00  0.00     0.009 A 
ATOM      6  C5  NON d   1     -41.342  18.387  -4.998  0.00  0.00     0.012 A 
ATOM      7  C4  NON d   1     -42.386  17.823  -4.245  0.00  0.00    -0.036 A 
ATOM      8  C22 NON d   1     -42.230  17.809  -2.857  0.00  0.00     0.012 A 
ATOM      9  C21 NON d   1     -41.054  18.296  -2.255  0.00  0.00     0.009 A 
BRANCH   7  10
ATOM     10  C3  NON d   1     -43.584  17.320  -4.950  0.00  0.00     0.017 C 
ATOM     11  C2  NON d   1     -44.833  17.826  -4.867  0.00  0.00     0.077 C 
BRANCH  11  12
ATOM     12  C1  NON d   1     -46.040  17.253  -5.539  0.00  0.00     0.264 C 
ATOM     13  O1  NON d   1     -46.550  17.851  -6.481  0.00  0.00    -0.266 OA
ATOM     14  N3  NON d   1     -46.475  16.046  -5.063  0.00  0.00    -0.234 N 
ATOM     15  H25 NON d   1     -45.923  15.463  -4.450  0.00  0.00     0.197 HD
BRANCH  14  16
ATOM     16  O3  NON d   1     -47.471  15.380  -5.810  0.00  0.00    -0.287 OA
ATOM     17  H26 NON d   1     -47.858  16.105  -6.339  0.00  0.00     0.244 HD
ENDBRANCH  14  16
ENDBRANCH  11  12
ENDBRANCH   7  10
ENDBRANCH   3   4
ENDBRANCH   1   3
BRANCH   1  18
ATOM     18  C9  NON d   1     -37.895  21.381  -0.653  0.00  0.00     0.261 C 
BRANCH  18  19
ATOM     19  C10 NON d   1     -38.806  21.585   0.585  0.00  0.00     0.192 C 
BRANCH  19  20
ATOM     20  O2  NON d   1     -40.003  20.845   0.282  0.00  0.00    -0.399 OA
ATOM     21  H12 NON d   1     -39.769  19.892   0.335  0.00  0.00     0.209 HD
ENDBRANCH  19  20
ENDBRANCH  18  19
ENDBRANCH   1  18
BRANCH   1  22
ATOM     22  C11 NON d   1     -39.105  21.616  -2.818  0.00  0.00     0.241 C 
BRANCH  22  23
ATOM     23  C12 NON d   1     -40.446  22.363  -2.866  0.00  0.00     0.084 C 
BRANCH  23  24
ATOM     24  C13 NON d   1     -40.609  23.540  -1.967  0.00  0.00     0.012 A 
ATOM     25  C14 NON d   1     -40.418  24.894  -2.148  0.00  0.00     0.038 A 
ATOM     26  C15 NON d   1     -40.751  25.559  -0.937  0.00  0.00    -0.008 A 
ATOM     27  C16 NON d   1     -40.806  26.908  -0.543  0.00  0.00     0.014 A 
ATOM     28  C20 NON d   1     -41.054  24.573  -0.002  0.00  0.00     0.042 A 
ATOM     29  C17 NON d   1     -41.164  27.221   0.774  0.00  0.00     0.001 A 
ATOM     30  C18 NON d   1     -41.445  26.212   1.692  0.00  0.00     0.002 A 
ATOM     31  C19 NON d   1     -41.391  24.864   1.324  0.00  0.00     0.030 A 
ATOM     32  N2  NON d   1     -40.932  23.361  -0.639  0.00  0.00    -0.359 N 
ATOM     33  H22 NON d   1     -41.057  22.471  -0.175  0.00  0.00     0.166 HD
ENDBRANCH  23  24
ENDBRANCH  22  23
ENDBRANCH   1  22
TORSDOF 11
ENDMDL
MODEL 3
REMARK VINA RESULT:   -15.754      2.377      5.886
REMARK INTER + INTRA:         -21.755
REMARK INTER:                 -19.036
REMARK INTRA:                  -2.720
REMARK CONF_INDEPENDENT:        3.281
REMARK UNBOUND:                -2.720
REMARK  11 active torsions:
REMARK  status: ('A' for Active; 'I' for Inactive)
REMARK    1  A    between atoms: C1_2  and  C2_3 
REMARK       I    between atoms: C1_2  and  N3_27 
REMARK    2  A    between atoms: C3_4  and  C4_5 
REMARK    3  A    between atoms: C7_8  and  C8_9 
REMARK    4  A    between atoms: C8_9  and  N1_10 
REMARK    5  A    between atoms: N1_10  and  C9_11 
REMARK    6  A    between atoms: N1_10  and  C11_14 
REMARK    7  A    between atoms: C9_11  and  C10_12 
REMARK    8  A    between atoms: C10_12  and  O2_13 
REMARK    9  A    between atoms: C11_14  and  C12_15 
REMARK   10  A    between atoms: C12_15  and  C13_16 
REMARK   11  A    between atoms: N3_27  and  O3_28 
ROOT
ATOM      1  N1  NON d   1     -38.917  20.923  -1.369  0.00  0.00    -0.065 N 
ATOM      2  H7  NON d   1     -39.172  19.880  -0.265  0.00  0.00     0.280 HD
ENDROOT
BRANCH   1   3
ATOM      3  C8  NON d   1     -38.847  19.548  -2.070  0.00  0.00     0.273 C 
BRANCH   3   4
ATOM      4  C7  NON d   1     -40.158  19.176  -2.772  0.00  0.00    -0.033 A 
ATOM      5  C6  NON d   1     -40.663  19.975  -3.799  0.00  0.00     0.009 A 
ATOM      6  C5  NON d   1     -41.826  19.604  -4.497  0.00  0.00     0.012 A 
ATOM      7  C4  NON d   1     -42.519  18.414  -4.217  0.00  0.00    -0.036 A 
ATOM      8  C22 NON d   1     -42.043  17.638  -3.158  0.00  0.00     0.012 A 
ATOM      9  C21 NON d   1     -40.890  18.017  -2.444  0.00  0.00     0.009 A 
BRANCH   7  10
ATOM     10  C3  NON d   1     -43.713  18.077  -5.021  0.00  0.00     0.017 C 
ATOM     11  C2  NON d   1     -44.826  17.454  -4.579  0.00  0.00     0.077 C 
BRANCH  11  12
ATOM     12  C1  NON d   1     -45.990  17.064  -5.431  0.00  0.00     0.264 C 
ATOM     13  O1  NON d   1     -46.333  17.790  -6.359  0.00  0.00    -0.266 OA
ATOM     14  N3  NON d   1     -46.581  15.867  -5.129  0.00  0.00    -0.234 N 
ATOM     15  H25 NON d   1     -46.157  15.180  -4.521  0.00  0.00     0.197 HD
BRANCH  14  16
ATOM     16  O3  NON d   1     -47.536  15.370  -6.043  0.00  0.00    -0.287 OA
ATOM     17  H26 NON d   1     -47.728  16.155  -6.594  0.00  0.00     0.244 HD
ENDBRANCH  14  16
ENDBRANCH  11  12
ENDBRANCH   7  10
ENDBRANCH   3   4
ENDBRANCH   1   3
BRANCH   1  18
ATOM     18  C9  NON d   1     -38.349  21.504  -0.045  0.00  0.00     0.261 C 
BRANCH  18  19
ATOM     19  C10 NON d   1     -39.541  22.190   0.669  0.00  0.00     0.192 C 
BRANCH  19  20
ATOM     20  O2  NON d   1     -40.633  21.262   0.530  0.00  0.00    -0.399 OA
ATOM     21  H12 NON d   1     -40.566  20.629   1.279  0.00  0.00     0.209 HD
ENDBRANCH  19  20
ENDBRANCH  18  19
ENDBRANCH   1  18
BRANCH   1  22
ATOM     22  C11 NON d   1     -38.662  21.966  -2.473  0.00  0.00     0.241 C 
BRANCH  22  23
ATOM     23  C12 NON d   1     -37.625  21.753  -3.585  0.00  0.00     0.084 C 
BRANCH  23  24
ATOM     24  C13 NON d   1     -38.091  21.108  -4.844  0.00  0.00     0.012 A 
ATOM     25  C14 NON d   1     -37.925  19.842  -5.368  0.00  0.00     0.038 A 
ATOM     26  C15 NON d   1     -38.616  19.778  -6.609  0.00  0.00    -0.008 A 
ATOM     27  C16 NON d   1     -38.846  18.758  -7.551  0.00  0.00     0.014 A 
ATOM     28  C20 NON d   1     -39.117  21.052  -6.862  0.00  0.00     0.042 A 
ATOM     29  C17 NON d   1     -39.571  19.052  -8.712  0.00  0.00     0.001 A 
ATOM     30  C18 NON d   1     -40.046  20.341  -8.946  0.00  0.00     0.002 A 
ATOM     31  C19 NON d   1     -39.823  21.371  -8.026  0.00  0.00     0.030 A 
ATOM     32  N2  NON d   1     -38.761  21.845  -5.797  0.00  0.00    -0.359 N 
ATOM     33  H22 NON d   1     -38.965  22.834  -5.744  0.00  0.00     0.166 HD
ENDBRANCH  23  24
ENDBRANCH  22  23
ENDBRANCH   1  22
TORSDOF 11
ENDMDL
MODEL 4
REMARK VINA RESULT:   -15.584      2.475      6.231
REMARK INTER + INTRA:         -21.884
REMARK INTER:                 -18.865
REMARK INTRA:                  -3.018
REMARK CONF_INDEPENDENT:        3.281
REMARK UNBOUND:                -3.018
REMARK  11 active torsions:
REMARK  status: ('A' for Active; 'I' for Inactive)
REMARK    1  A    between atoms: C1_2  and  C2_3 
REMARK       I    between atoms: C1_2  and  N3_27 
REMARK    2  A    between atoms: C3_4  and  C4_5 
REMARK    3  A    between atoms: C7_8  and  C8_9 
REMARK    4  A    between atoms: C8_9  and  N1_10 
REMARK    5  A    between atoms: N1_10  and  C9_11 
REMARK    6  A    between atoms: N1_10  and  C11_14 
REMARK    7  A    between atoms: C9_11  and  C10_12 
REMARK    8  A    between atoms: C10_12  and  O2_13 
REMARK    9  A    between atoms: C11_14  and  C12_15 
REMARK   10  A    between atoms: C12_15  and  C13_16 
REMARK   11  A    between atoms: N3_27  and  O3_28 
ROOT
ATOM      1  N1  NON d   1     -39.524  20.616  -1.777  0.00  0.00    -0.065 N 
ATOM      2  H7  NON d   1     -38.759  19.876  -0.662  0.00  0.00     0.280 HD
ENDROOT
BRANCH   1   3
ATOM      3  C8  NON d   1     -39.191  19.222  -2.353  0.00  0.00     0.273 C 
BRANCH   3   4
ATOM      4  C7  NON d   1     -40.385  18.577  -3.067  0.00  0.00    -0.033 A 
ATOM      5  C6  NON d   1     -41.569  18.318  -2.374  0.00  0.00     0.009 A 
ATOM      6  C5  NON d   1     -42.693  17.793  -3.036  0.00  0.00     0.012 A 
ATOM      7  C4  NON d   1     -42.691  17.526  -4.416  0.00  0.00    -0.036 A 
ATOM      8  C22 NON d   1     -41.493  17.739  -5.100  0.00  0.00     0.012 A 
ATOM      9  C21 NON d   1     -40.360  18.246  -4.437  0.00  0.00     0.009 A 
BRANCH   7  10
ATOM     10  C3  NON d   1     -43.926  17.010  -5.044  0.00  0.00     0.017 C 
ATOM     11  C2  NON d   1     -45.145  17.588  -5.007  0.00  0.00     0.077 C 
BRANCH  11  12
ATOM     12  C1  NON d   1     -46.392  17.007  -5.593  0.00  0.00     0.264 C 
ATOM     13  O1  NON d   1     -47.181  17.738  -6.185  0.00  0.00    -0.266 OA
ATOM     14  N3  NON d   1     -46.545  15.654  -5.458  0.00  0.00    -0.234 N 
ATOM     15  H25 NON d   1     -45.795  15.039  -5.176  0.00  0.00     0.197 HD
BRANCH  14  16
ATOM     16  O3  NON d   1     -47.594  15.048  -6.184  0.00  0.00    -0.287 OA
ATOM     17  H26 NON d   1     -48.039  15.817  -6.592  0.00  0.00     0.244 HD
ENDBRANCH  14  16
ENDBRANCH  11  12
ENDBRANCH   7  10
ENDBRANCH   3   4
ENDBRANCH   1   3
BRANCH   1  18
ATOM     18  C9  NON d   1     -38.730  21.683  -0.975  0.00  0.00     0.261 C 
BRANCH  18  19
ATOM     19  C10 NON d   1     -39.578  21.992   0.286  0.00  0.00     0.192 C 
BRANCH  19  20
ATOM     20  O2  NON d   1     -40.283  20.767   0.560  0.00  0.00    -0.399 OA
ATOM     21  H12 NON d   1     -41.143  21.018   0.962  0.00  0.00     0.209 HD
ENDBRANCH  19  20
ENDBRANCH  18  19
ENDBRANCH   1  18
BRANCH   1  22
ATOM     22  C11 NON d   1     -40.288  21.355  -2.891  0.00  0.00     0.241 C 
BRANCH  22  23
ATOM     23  C12 NON d   1     -39.578  22.009  -4.084  0.00  0.00     0.084 C 
BRANCH  23  24
ATOM     24  C13 NON d   1     -39.199  21.129  -5.224  0.00  0.00     0.012 A 
ATOM     25  C14 NON d   1     -39.831  20.795  -6.403  0.00  0.00     0.038 A 
ATOM     26  C15 NON d   1     -38.983  19.919  -7.134  0.00  0.00    -0.008 A 
ATOM     27  C16 NON d   1     -39.062  19.304  -8.397  0.00  0.00     0.014 A 
ATOM     28  C20 NON d   1     -37.875  19.661  -6.329  0.00  0.00     0.042 A 
ATOM     29  C17 NON d   1     -38.028  18.456  -8.810  0.00  0.00     0.001 A 
ATOM     30  C18 NON d   1     -36.940  18.203  -7.976  0.00  0.00     0.002 A 
ATOM     31  C19 NON d   1     -36.844  18.798  -6.714  0.00  0.00     0.030 A 
ATOM     32  N2  NON d   1     -38.043  20.379  -5.170  0.00  0.00    -0.359 N 
ATOM     33  H22 NON d   1     -37.399  20.341  -4.391  0.00  0.00     0.166 HD
ENDBRANCH  23  24
ENDBRANCH  22  23
ENDBRANCH   1  22
TORSDOF 11
ENDMDL
MODEL 5
REMARK VINA RESULT:   -15.252      1.553      1.958
REMARK INTER + INTRA:         -20.752
REMARK INTER:                 -18.533
REMARK INTRA:                  -2.219
REMARK CONF_INDEPENDENT:        3.281
REMARK UNBOUND:                -2.219
REMARK  11 active torsions:
REMARK  status: ('A' for Active; 'I' for Inactive)
REMARK    1  A    between atoms: C1_2  and  C2_3 
REMARK       I    between atoms: C1_2  and  N3_27 
REMARK    2  A    between atoms: C3_4  and  C4_5 
REMARK    3  A    between atoms: C7_8  and  C8_9 
REMARK    4  A    between atoms: C8_9  and  N1_10 
REMARK    5  A    between atoms: N1_10  and  C9_11 
REMARK    6  A    between atoms: N1_10  and  C11_14 
REMARK    7  A    between atoms: C9_11  and  C10_12 
REMARK    8  A    between atoms: C10_12  and  O2_13 
REMARK    9  A    between atoms: C11_14  and  C12_15 
REMARK   10  A    between atoms: C12_15  and  C13_16 
REMARK   11  A    between atoms: N3_27  and  O3_28 
ROOT
ATOM      1  N1  NON d   1     -38.403  20.395  -2.069  0.00  0.00    -0.065 N 
ATOM      2  H7  NON d   1     -37.032  19.801  -2.440  0.00  0.00     0.280 HD
ENDROOT
BRANCH   1   3
ATOM      3  C8  NON d   1     -38.624  18.870  -2.177  0.00  0.00     0.273 C 
BRANCH   3   4
ATOM      4  C7  NON d   1     -39.952  18.512  -2.854  0.00  0.00    -0.033 A 
ATOM      5  C6  NON d   1     -40.092  18.621  -4.240  0.00  0.00     0.009 A 
ATOM      6  C5  NON d   1     -41.282  18.227  -4.878  0.00  0.00     0.012 A 
ATOM      7  C4  NON d   1     -42.369  17.691  -4.168  0.00  0.00    -0.036 A 
ATOM      8  C22 NON d   1     -42.249  17.626  -2.778  0.00  0.00     0.012 A 
ATOM      9  C21 NON d   1     -41.067  18.038  -2.133  0.00  0.00     0.009 A 
BRANCH   7  10
ATOM     10  C3  NON d   1     -43.571  17.266  -4.917  0.00  0.00     0.017 C 
ATOM     11  C2  NON d   1     -44.836  17.686  -4.703  0.00  0.00     0.077 C 
BRANCH  11  12
ATOM     12  C1  NON d   1     -46.043  17.187  -5.432  0.00  0.00     0.264 C 
ATOM     13  O1  NON d   1     -46.502  17.840  -6.364  0.00  0.00    -0.266 OA
ATOM     14  N3  NON d   1     -46.538  15.981  -5.017  0.00  0.00    -0.234 N 
ATOM     15  H25 NON d   1     -46.028  15.353  -4.412  0.00  0.00     0.197 HD
BRANCH  14  16
ATOM     16  O3  NON d   1     -47.535  15.383  -5.819  0.00  0.00    -0.287 OA
ATOM     17  H26 NON d   1     -47.832  16.129  -6.377  0.00  0.00     0.244 HD
ENDBRANCH  14  16
ENDBRANCH  11  12
ENDBRANCH   7  10
ENDBRANCH   3   4
ENDBRANCH   1   3
BRANCH   1  18
ATOM     18  C9  NON d   1     -37.659  21.453  -2.928  0.00  0.00     0.261 C 
BRANCH  18  19
ATOM     19  C10 NON d   1     -37.897  21.051  -4.406  0.00  0.00     0.192 C 
BRANCH  19  20
ATOM     20  O2  NON d   1     -36.904  20.044  -4.674  0.00  0.00    -0.399 OA
ATOM     21  H12 NON d   1     -36.403  20.343  -5.465  0.00  0.00     0.209 HD
ENDBRANCH  19  20
ENDBRANCH  18  19
ENDBRANCH   1  18
BRANCH   1  22
ATOM     22  C11 NON d   1     -39.775  20.989  -1.697  0.00  0.00     0.241 C 
BRANCH  22  23
ATOM     23  C12 NON d   1     -40.285  21.043  -0.250  0.00  0.00     0.084 C 
BRANCH  23  24
ATOM     24  C13 NON d   1     -40.604  22.384   0.315  0.00  0.00     0.012 A 
ATOM     25  C14 NON d   1     -40.913  23.598  -0.263  0.00  0.00     0.038 A 
ATOM     26  C15 NON d   1     -41.148  24.541   0.774  0.00  0.00    -0.008 A 
ATOM     27  C16 NON d   1     -41.543  25.891   0.801  0.00  0.00     0.014 A 
ATOM     28  C20 NON d   1     -40.881  23.895   1.979  0.00  0.00     0.042 A 
ATOM     29  C17 NON d   1     -41.659  26.545   2.033  0.00  0.00     0.001 A 
ATOM     30  C18 NON d   1     -41.370  25.877   3.221  0.00  0.00     0.002 A 
ATOM     31  C19 NON d   1     -40.969  24.537   3.218  0.00  0.00     0.030 A 
ATOM     32  N2  NON d   1     -40.526  22.603   1.674  0.00  0.00    -0.359 N 
ATOM     33  H22 NON d   1     -40.241  21.924   2.367  0.00  0.00     0.166 HD
ENDBRANCH  23  24
ENDBRANCH  22  23
ENDBRANCH   1  22
TORSDOF 11
ENDMDL
MODEL 6
REMARK VINA RESULT:   -15.143      4.129      6.237
REMARK INTER + INTRA:         -21.291
REMARK INTER:                 -18.425
REMARK INTRA:                  -2.867
REMARK CONF_INDEPENDENT:        3.281
REMARK UNBOUND:                -2.867
REMARK  11 active torsions:
REMARK  status: ('A' for Active; 'I' for Inactive)
REMARK    1  A    between atoms: C1_2  and  C2_3 
REMARK       I    between atoms: C1_2  and  N3_27 
REMARK    2  A    between atoms: C3_4  and  C4_5 
REMARK    3  A    between atoms: C7_8  and  C8_9 
REMARK    4  A    between atoms: C8_9  and  N1_10 
REMARK    5  A    between atoms: N1_10  and  C9_11 
REMARK    6  A    between atoms: N1_10  and  C11_14 
REMARK    7  A    between atoms: C9_11  and  C10_12 
REMARK    8  A    between atoms: C10_12  and  O2_13 
REMARK    9  A    between atoms: C11_14  and  C12_15 
REMARK   10  A    between atoms: C12_15  and  C13_16 
REMARK   11  A    between atoms: N3_27  and  O3_28 
ROOT
ATOM      1  N1  NON d   1     -37.611  18.812  -2.321  0.00  0.00    -0.065 N 
ATOM      2  H7  NON d   1     -38.503  18.051  -1.323  0.00  0.00     0.280 HD
ENDROOT
BRANCH   1   3
ATOM      3  C8  NON d   1     -38.824  19.732  -2.061  0.00  0.00     0.273 C 
BRANCH   3   4
ATOM      4  C7  NON d   1     -40.091  19.256  -2.780  0.00  0.00    -0.033 A 
ATOM      5  C6  NON d   1     -40.537  19.905  -3.934  0.00  0.00     0.009 A 
ATOM      6  C5  NON d   1     -41.657  19.433  -4.641  0.00  0.00     0.012 A 
ATOM      7  C4  NON d   1     -42.364  18.286  -4.242  0.00  0.00    -0.036 A 
ATOM      8  C22 NON d   1     -41.949  17.664  -3.063  0.00  0.00     0.012 A 
ATOM      9  C21 NON d   1     -40.840  18.145  -2.341  0.00  0.00     0.009 A 
BRANCH   7  10
ATOM     10  C3  NON d   1     -43.508  17.833  -5.061  0.00  0.00     0.017 C 
ATOM     11  C2  NON d   1     -44.795  17.749  -4.660  0.00  0.00     0.077 C 
BRANCH  11  12
ATOM     12  C1  NON d   1     -45.922  17.221  -5.489  0.00  0.00     0.264 C 
ATOM     13  O1  NON d   1     -46.319  17.867  -6.455  0.00  0.00    -0.266 OA
ATOM     14  N3  NON d   1     -46.415  15.999  -5.123  0.00  0.00    -0.234 N 
ATOM     15  H25 NON d   1     -45.939  15.382  -4.479  0.00  0.00     0.197 HD
BRANCH  14  16
ATOM     16  O3  NON d   1     -47.324  15.379  -6.007  0.00  0.00    -0.287 OA
ATOM     17  H26 NON d   1     -47.076  15.766  -6.870  0.00  0.00     0.244 HD
ENDBRANCH  14  16
ENDBRANCH  11  12
ENDBRANCH   7  10
ENDBRANCH   3   4
ENDBRANCH   1   3
BRANCH   1  18
ATOM     18  C9  NON d   1     -37.432  17.295  -2.605  0.00  0.00     0.261 C 
BRANCH  18  19
ATOM     19  C10 NON d   1     -36.319  16.806  -1.643  0.00  0.00     0.192 C 
BRANCH  19  20
ATOM     20  O2  NON d   1     -36.699  17.322  -0.353  0.00  0.00    -0.399 OA
ATOM     21  H12 NON d   1     -37.593  16.965  -0.157  0.00  0.00     0.209 HD
ENDBRANCH  19  20
ENDBRANCH  18  19
ENDBRANCH   1  18
BRANCH   1  22
ATOM     22  C11 NON d   1     -36.718  19.573  -3.319  0.00  0.00     0.241 C 
BRANCH  22  23
ATOM     23  C12 NON d   1     -36.495  19.091  -4.760  0.00  0.00     0.084 C 
BRANCH  23  24
ATOM     24  C13 NON d   1     -37.516  19.469  -5.776  0.00  0.00     0.012 A 
ATOM     25  C14 NON d   1     -38.504  18.758  -6.425  0.00  0.00     0.038 A 
ATOM     26  C15 NON d   1     -39.203  19.647  -7.286  0.00  0.00    -0.008 A 
ATOM     27  C16 NON d   1     -40.315  19.514  -8.138  0.00  0.00     0.014 A 
ATOM     28  C20 NON d   1     -38.556  20.878  -7.213  0.00  0.00     0.042 A 
ATOM     29  C17 NON d   1     -40.740  20.620  -8.884  0.00  0.00     0.001 A 
ATOM     30  C18 NON d   1     -40.061  21.835  -8.802  0.00  0.00     0.002 A 
ATOM     31  C19 NON d   1     -38.950  21.987  -7.967  0.00  0.00     0.030 A 
ATOM     32  N2  NON d   1     -37.523  20.738  -6.317  0.00  0.00    -0.359 N 
ATOM     33  H22 NON d   1     -36.863  21.474  -6.106  0.00  0.00     0.166 HD
ENDBRANCH  23  24
ENDBRANCH  22  23
ENDBRANCH   1  22
TORSDOF 11
ENDMDL
MODEL 7
REMARK VINA RESULT:   -14.783      3.258      6.027
REMARK INTER + INTRA:         -21.890
REMARK INTER:                 -18.065
REMARK INTRA:                  -3.825
REMARK CONF_INDEPENDENT:        3.281
REMARK UNBOUND:                -3.825
REMARK  11 active torsions:
REMARK  status: ('A' for Active; 'I' for Inactive)
REMARK    1  A    between atoms: C1_2  and  C2_3 
REMARK       I    between atoms: C1_2  and  N3_27 
REMARK    2  A    between atoms: C3_4  and  C4_5 
REMARK    3  A    between atoms: C7_8  and  C8_9 
REMARK    4  A    between atoms: C8_9  and  N1_10 
REMARK    5  A    between atoms: N1_10  and  C9_11 
REMARK    6  A    between atoms: N1_10  and  C11_14 
REMARK    7  A    between atoms: C9_11  and  C10_12 
REMARK    8  A    between atoms: C10_12  and  O2_13 
REMARK    9  A    between atoms: C11_14  and  C12_15 
REMARK   10  A    between atoms: C12_15  and  C13_16 
REMARK   11  A    between atoms: N3_27  and  O3_28 
ROOT
ATOM      1  N1  NON d   1     -37.883  19.433  -2.081  0.00  0.00    -0.065 N 
ATOM      2  H7  NON d   1     -39.182  19.525  -1.258  0.00  0.00     0.280 HD
ENDROOT
BRANCH   1   3
ATOM      3  C8  NON d   1     -38.515  18.024  -2.138  0.00  0.00     0.273 C 
BRANCH   3   4
ATOM      4  C7  NON d   1     -39.878  18.016  -2.839  0.00  0.00    -0.033 A 
ATOM      5  C6  NON d   1     -39.961  18.128  -4.228  0.00  0.00     0.009 A 
ATOM      6  C5  NON d   1     -41.202  18.051  -4.886  0.00  0.00     0.012 A 
ATOM      7  C4  NON d   1     -42.405  17.837  -4.190  0.00  0.00    -0.036 A 
ATOM      8  C22 NON d   1     -42.329  17.773  -2.798  0.00  0.00     0.012 A 
ATOM      9  C21 NON d   1     -41.091  17.871  -2.134  0.00  0.00     0.009 A 
BRANCH   7  10
ATOM     10  C3  NON d   1     -43.663  17.730  -4.958  0.00  0.00     0.017 C 
ATOM     11  C2  NON d   1     -44.768  17.046  -4.593  0.00  0.00     0.077 C 
BRANCH  11  12
ATOM     12  C1  NON d   1     -46.003  16.898  -5.423  0.00  0.00     0.264 C 
ATOM     13  O1  NON d   1     -46.314  17.787  -6.211  0.00  0.00    -0.266 OA
ATOM     14  N3  NON d   1     -46.695  15.729  -5.266  0.00  0.00    -0.234 N 
ATOM     15  H25 NON d   1     -46.314  14.921  -4.793  0.00  0.00     0.197 HD
BRANCH  14  16
ATOM     16  O3  NON d   1     -47.735  15.466  -6.185  0.00  0.00    -0.287 OA
ATOM     17  H26 NON d   1     -47.670  16.224  -6.799  0.00  0.00     0.244 HD
ENDBRANCH  14  16
ENDBRANCH  11  12
ENDBRANCH   7  10
ENDBRANCH   3   4
ENDBRANCH   1   3
BRANCH   1  18
ATOM     18  C9  NON d   1     -37.643  20.476  -0.956  0.00  0.00     0.261 C 
BRANCH  18  19
ATOM     19  C10 NON d   1     -38.613  21.650  -1.246  0.00  0.00     0.192 C 
BRANCH  19  20
ATOM     20  O2  NON d   1     -39.201  21.332  -2.521  0.00  0.00    -0.399 OA
ATOM     21  H12 NON d   1     -39.022  22.095  -3.115  0.00  0.00     0.209 HD
ENDBRANCH  19  20
ENDBRANCH  18  19
ENDBRANCH   1  18
BRANCH   1  22
ATOM     22  C11 NON d   1     -36.584  19.340  -2.904  0.00  0.00     0.241 C 
BRANCH  22  23
ATOM     23  C12 NON d   1     -36.327  20.213  -4.140  0.00  0.00     0.084 C 
BRANCH  23  24
ATOM     24  C13 NON d   1     -37.292  20.106  -5.269  0.00  0.00     0.012 A 
ATOM     25  C14 NON d   1     -37.291  19.377  -6.441  0.00  0.00     0.038 A 
ATOM     26  C15 NON d   1     -38.495  19.655  -7.142  0.00  0.00    -0.008 A 
ATOM     27  C16 NON d   1     -39.065  19.180  -8.338  0.00  0.00     0.014 A 
ATOM     28  C20 NON d   1     -39.172  20.633  -6.418  0.00  0.00     0.042 A 
ATOM     29  C17 NON d   1     -40.294  19.700  -8.763  0.00  0.00     0.001 A 
ATOM     30  C18 NON d   1     -40.939  20.690  -8.025  0.00  0.00     0.002 A 
ATOM     31  C19 NON d   1     -40.388  21.182  -6.837  0.00  0.00     0.030 A 
ATOM     32  N2  NON d   1     -38.412  20.910  -5.306  0.00  0.00    -0.359 N 
ATOM     33  H22 NON d   1     -38.654  21.619  -4.627  0.00  0.00     0.166 HD
ENDBRANCH  23  24
ENDBRANCH  22  23
ENDBRANCH   1  22
TORSDOF 11
ENDMDL
MODEL 8
REMARK VINA RESULT:   -14.137      3.848      5.770
REMARK INTER + INTRA:         -20.564
REMARK INTER:                 -17.418
REMARK INTRA:                  -3.146
REMARK CONF_INDEPENDENT:        3.281
REMARK UNBOUND:                -3.146
REMARK  11 active torsions:
REMARK  status: ('A' for Active; 'I' for Inactive)
REMARK    1  A    between atoms: C1_2  and  C2_3 
REMARK       I    between atoms: C1_2  and  N3_27 
REMARK    2  A    between atoms: C3_4  and  C4_5 
REMARK    3  A    between atoms: C7_8  and  C8_9 
REMARK    4  A    between atoms: C8_9  and  N1_10 
REMARK    5  A    between atoms: N1_10  and  C9_11 
REMARK    6  A    between atoms: N1_10  and  C11_14 
REMARK    7  A    between atoms: C9_11  and  C10_12 
REMARK    8  A    between atoms: C10_12  and  O2_13 
REMARK    9  A    between atoms: C11_14  and  C12_15 
REMARK   10  A    between atoms: C12_15  and  C13_16 
REMARK   11  A    between atoms: N3_27  and  O3_28 
ROOT
ATOM      1  N1  NON d   1     -37.894  19.622  -2.138  0.00  0.00    -0.065 N 
ATOM      2  H7  NON d   1     -38.633  18.552  -1.311  0.00  0.00     0.280 HD
ENDROOT
BRANCH   1   3
ATOM      3  C8  NON d   1     -39.258  20.247  -1.769  0.00  0.00     0.273 C 
BRANCH   3   4
ATOM      4  C7  NON d   1     -40.428  19.596  -2.516  0.00  0.00    -0.033 A 
ATOM      5  C6  NON d   1     -41.003  20.228  -3.620  0.00  0.00     0.009 A 
ATOM      6  C5  NON d   1     -42.029  19.607  -4.354  0.00  0.00     0.012 A 
ATOM      7  C4  NON d   1     -42.507  18.324  -4.034  0.00  0.00    -0.036 A 
ATOM      8  C22 NON d   1     -41.966  17.711  -2.902  0.00  0.00     0.012 A 
ATOM      9  C21 NON d   1     -40.953  18.339  -2.152  0.00  0.00     0.009 A 
BRANCH   7  10
ATOM     10  C3  NON d   1     -43.561  17.724  -4.878  0.00  0.00     0.017 C 
ATOM     11  C2  NON d   1     -44.891  17.934  -4.768  0.00  0.00     0.077 C 
BRANCH  11  12
ATOM     12  C1  NON d   1     -45.940  17.259  -5.592  0.00  0.00     0.264 C 
ATOM     13  O1  NON d   1     -46.436  17.852  -6.545  0.00  0.00    -0.266 OA
ATOM     14  N3  NON d   1     -46.250  15.976  -5.235  0.00  0.00    -0.234 N 
ATOM     15  H25 NON d   1     -45.684  15.426  -4.603  0.00  0.00     0.197 HD
BRANCH  14  16
ATOM     16  O3  NON d   1     -47.072  15.241  -6.118  0.00  0.00    -0.287 OA
ATOM     17  H26 NON d   1     -47.035  15.777  -6.934  0.00  0.00     0.244 HD
ENDBRANCH  14  16
ENDBRANCH  11  12
ENDBRANCH   7  10
ENDBRANCH   3   4
ENDBRANCH   1   3
BRANCH   1  18
ATOM     18  C9  NON d   1     -37.436  18.234  -2.664  0.00  0.00     0.261 C 
BRANCH  18  19
ATOM     19  C10 NON d   1     -37.244  18.398  -4.193  0.00  0.00     0.192 C 
BRANCH  19  20
ATOM     20  O2  NON d   1     -38.580  18.439  -4.727  0.00  0.00    -0.399 OA
ATOM     21  H12 NON d   1     -38.691  17.632  -5.277  0.00  0.00     0.209 HD
ENDBRANCH  19  20
ENDBRANCH  18  19
ENDBRANCH   1  18
BRANCH   1  22
ATOM     22  C11 NON d   1     -37.156  20.692  -2.964  0.00  0.00     0.241 C 
BRANCH  22  23
ATOM     23  C12 NON d   1     -37.807  22.027  -3.354  0.00  0.00     0.084 C 
BRANCH  23  24
ATOM     24  C13 NON d   1     -38.431  22.119  -4.703  0.00  0.00     0.012 A 
ATOM     25  C14 NON d   1     -38.906  23.178  -5.448  0.00  0.00     0.038 A 
ATOM     26  C15 NON d   1     -39.381  22.676  -6.690  0.00  0.00    -0.008 A 
ATOM     27  C16 NON d   1     -39.914  23.269  -7.848  0.00  0.00     0.014 A 
ATOM     28  C20 NON d   1     -39.268  21.288  -6.637  0.00  0.00     0.042 A 
ATOM     29  C17 NON d   1     -40.313  22.452  -8.913  0.00  0.00     0.001 A 
ATOM     30  C18 NON d   1     -40.204  21.066  -8.823  0.00  0.00     0.002 A 
ATOM     31  C19 NON d   1     -39.682  20.454  -7.679  0.00  0.00     0.030 A 
ATOM     32  N2  NON d   1     -38.719  20.974  -5.416  0.00  0.00    -0.359 N 
ATOM     33  H22 NON d   1     -38.566  20.026  -5.099  0.00  0.00     0.166 HD
ENDBRANCH  23  24
ENDBRANCH  22  23
ENDBRANCH   1  22
TORSDOF 11
ENDMDL
