MODEL 1
REMARK VINA RESULT:   -22.687      0.000      0.000
REMARK INTER + INTRA:         -26.268
REMARK INTER:                 -24.775
REMARK INTRA:                  -1.492
REMARK CONF_INDEPENDENT:        2.088
REMARK UNBOUND:                -1.492
REMARK  7 active torsions:
REMARK  status: ('A' for Active; 'I' for Inactive)
REMARK    1  A    between atoms: C2_2  and  C3_3 
REMARK       I    between atoms: C3_3  and  N1_5 
REMARK    2  A    between atoms: N1_5  and  C4_6 
REMARK    3  A    between atoms: C4_6  and  C5_7 
REMARK    4  A    between atoms: C8_10  and  C9_11 
REMARK       I    between atoms: C9_11  and  N2_13 
REMARK    5  A    between atoms: N2_13  and  C10_14 
REMARK    6  A    between atoms: C12_16  and  C13_17 
REMARK    7  A    between atoms: C21_25  and  N3_26 
ROOT
ATOM      1  C9  NON d   1     -44.927  17.356  -4.274  0.00  0.00     0.256 C 
ATOM      2  O2  NON d   1     -45.055  16.918  -5.415  0.00  0.00    -0.267 OA
ATOM      3  N2  NON d   1     -45.921  17.367  -3.309  0.00  0.00    -0.321 N 
ATOM      4  H11 NON d   1     -45.652  17.576  -2.360  0.00  0.00     0.169 HD
ENDROOT
BRANCH   3   5
ATOM      5  C10 NON d   1     -47.294  16.995  -3.483  0.00  0.00     0.057 A 
ATOM      6  C11 NON d   1     -48.177  17.369  -2.435  0.00  0.00     0.043 A 
ATOM      7  C12 NON d   1     -49.564  17.076  -2.439  0.00  0.00    -0.024 A 
ATOM      8  C19 NON d   1     -50.035  16.416  -3.584  0.00  0.00     0.014 A 
ATOM      9  C20 NON d   1     -49.194  16.073  -4.645  0.00  0.00     0.026 A 
ATOM     10  C21 NON d   1     -47.819  16.320  -4.602  0.00  0.00     0.033 A 
BRANCH   7  11
ATOM     11  C13 NON d   1     -50.491  17.447  -1.313  0.00  0.00    -0.026 A 
ATOM     12  C14 NON d   1     -50.032  17.979  -0.093  0.00  0.00     0.012 A 
ATOM     13  C15 NON d   1     -50.905  18.326   0.950  0.00  0.00     0.001 A 
ATOM     14  C16 NON d   1     -52.275  18.151   0.808  0.00  0.00     0.000 A 
ATOM     15  C17 NON d   1     -52.771  17.628  -0.376  0.00  0.00     0.001 A 
ATOM     16  C18 NON d   1     -51.892  17.283  -1.412  0.00  0.00     0.012 A 
ENDBRANCH   7  11
BRANCH  10  17
ATOM     17  N3  NON d   1     -47.116  16.130  -5.810  0.00  0.00    -0.301 NA
ATOM     18  H20 NON d   1     -46.734  17.025  -6.135  0.00  0.00     0.124 HD
ATOM     19  H21 NON d   1     -46.361  15.461  -5.727  0.00  0.00     0.124 HD
ENDBRANCH  10  17
ENDBRANCH   3   5
BRANCH   1  20
ATOM     20  C8  NON d   1     -43.577  17.898  -3.915  0.00  0.00     0.032 A 
ATOM     21  C7  NON d   1     -42.821  17.492  -2.814  0.00  0.00     0.017 A 
ATOM     22  C6  NON d   1     -41.538  18.031  -2.604  0.00  0.00     0.010 A 
ATOM     23  C5  NON d   1     -40.982  18.978  -3.485  0.00  0.00    -0.040 A 
ATOM     24  C23 NON d   1     -41.745  19.373  -4.587  0.00  0.00     0.010 A 
ATOM     25  C22 NON d   1     -43.025  18.847  -4.791  0.00  0.00     0.017 A 
BRANCH  23  26
ATOM     26  C4  NON d   1     -39.574  19.474  -3.227  0.00  0.00     0.161 C 
BRANCH  26  27
ATOM     27  N1  NON d   1     -39.318  19.917  -1.872  0.00  0.00    -0.357 N 
ATOM     28  C3  NON d   1     -39.754  21.159  -1.452  0.00  0.00     0.217 C 
ATOM     29  O1  NON d   1     -40.429  21.907  -2.150  0.00  0.00    -0.274 OA
ATOM     30  H6  NON d   1     -38.529  19.517  -1.384  0.00  0.00     0.162 HD
BRANCH  28  31
ATOM     31  C2  NON d   1     -39.344  21.478  -0.026  0.00  0.00     0.098 C 
ATOM     32  C1  NON d   1     -39.087  22.959   0.188  0.00  0.00     0.014 C 
ENDBRANCH  28  31
ENDBRANCH  26  27
ENDBRANCH  23  26
ENDBRANCH   1  20
TORSDOF 7
ENDMDL
MODEL 2
REMARK VINA RESULT:   -22.359      1.584      2.060
REMARK INTER + INTRA:         -26.012
REMARK INTER:                 -24.447
REMARK INTRA:                  -1.565
REMARK CONF_INDEPENDENT:        2.088
REMARK UNBOUND:                -1.565
REMARK  7 active torsions:
REMARK  status: ('A' for Active; 'I' for Inactive)
REMARK    1  A    between atoms: C2_2  and  C3_3 
REMARK       I    between atoms: C3_3  and  N1_5 
REMARK    2  A    between atoms: N1_5  and  C4_6 
REMARK    3  A    between atoms: C4_6  and  C5_7 
REMARK    4  A    between atoms: C8_10  and  C9_11 
REMARK       I    between atoms: C9_11  and  N2_13 
REMARK    5  A    between atoms: N2_13  and  C10_14 
REMARK    6  A    between atoms: C12_16  and  C13_17 
REMARK    7  A    between atoms: C21_25  and  N3_26 
ROOT
ATOM      1  C9  NON d   1     -44.937  17.511  -4.330  0.00  0.00     0.256 C 
ATOM      2  O2  NON d   1     -45.088  17.140  -5.491  0.00  0.00    -0.267 OA
ATOM      3  N2  NON d   1     -45.902  17.432  -3.338  0.00  0.00    -0.321 N 
ATOM      4  H11 NON d   1     -45.611  17.590  -2.386  0.00  0.00     0.169 HD
ENDROOT
BRANCH   3   5
ATOM      5  C10 NON d   1     -47.269  17.030  -3.497  0.00  0.00     0.057 A 
ATOM      6  C11 NON d   1     -48.152  17.403  -2.448  0.00  0.00     0.043 A 
ATOM      7  C12 NON d   1     -49.533  17.083  -2.438  0.00  0.00    -0.024 A 
ATOM      8  C19 NON d   1     -49.998  16.394  -3.569  0.00  0.00     0.014 A 
ATOM      9  C20 NON d   1     -49.157  16.051  -4.630  0.00  0.00     0.026 A 
ATOM     10  C21 NON d   1     -47.787  16.326  -4.601  0.00  0.00     0.033 A 
BRANCH   7  11
ATOM     11  C13 NON d   1     -50.460  17.453  -1.312  0.00  0.00    -0.026 A 
ATOM     12  C14 NON d   1     -50.000  17.988  -0.093  0.00  0.00     0.012 A 
ATOM     13  C15 NON d   1     -50.873  18.334   0.951  0.00  0.00     0.001 A 
ATOM     14  C16 NON d   1     -52.243  18.156   0.810  0.00  0.00     0.000 A 
ATOM     15  C17 NON d   1     -52.739  17.630  -0.372  0.00  0.00     0.001 A 
ATOM     16  C18 NON d   1     -51.861  17.286  -1.409  0.00  0.00     0.012 A 
ENDBRANCH   7  11
BRANCH  10  17
ATOM     17  N3  NON d   1     -47.089  16.131  -5.810  0.00  0.00    -0.301 NA
ATOM     18  H20 NON d   1     -47.039  17.013  -6.330  0.00  0.00     0.124 HD
ATOM     19  H21 NON d   1     -46.150  15.777  -5.672  0.00  0.00     0.124 HD
ENDBRANCH  10  17
ENDBRANCH   3   5
BRANCH   1  20
ATOM     20  C8  NON d   1     -43.593  18.070  -3.975  0.00  0.00     0.032 A 
ATOM     21  C7  NON d   1     -42.832  17.681  -2.871  0.00  0.00     0.017 A 
ATOM     22  C6  NON d   1     -41.556  18.236  -2.666  0.00  0.00     0.010 A 
ATOM     23  C5  NON d   1     -41.011  19.182  -3.554  0.00  0.00    -0.040 A 
ATOM     24  C23 NON d   1     -41.779  19.560  -4.659  0.00  0.00     0.010 A 
ATOM     25  C22 NON d   1     -43.053  19.019  -4.859  0.00  0.00     0.017 A 
BRANCH  23  26
ATOM     26  C4  NON d   1     -39.608  19.696  -3.301  0.00  0.00     0.161 C 
BRANCH  26  27
ATOM     27  N1  NON d   1     -38.877  18.998  -2.264  0.00  0.00    -0.357 N 
ATOM     28  C3  NON d   1     -37.753  18.261  -2.580  0.00  0.00     0.217 C 
ATOM     29  O1  NON d   1     -37.273  18.216  -3.707  0.00  0.00    -0.274 OA
ATOM     30  H6  NON d   1     -39.378  18.737  -1.425  0.00  0.00     0.162 HD
BRANCH  28  31
ATOM     31  C2  NON d   1     -37.155  17.551  -1.380  0.00  0.00     0.098 C 
ATOM     32  C1  NON d   1     -36.911  16.075  -1.640  0.00  0.00     0.014 C 
ENDBRANCH  28  31
ENDBRANCH  26  27
ENDBRANCH  23  26
ENDBRANCH   1  20
TORSDOF 7
ENDMDL
