MODEL 1
REMARK VINA RESULT:   -36.091      0.000      0.000
REMARK INTER + INTRA:         -39.588
REMARK INTER:                 -38.179
REMARK INTRA:                  -1.408
REMARK CONF_INDEPENDENT:        2.088
REMARK UNBOUND:                -1.408
REMARK  7 active torsions:
REMARK  status: ('A' for Active; 'I' for Inactive)
REMARK    1  A    between atoms: N1_1  and  C1_2 
REMARK    2  A    between atoms: C6_7  and  N2_8 
REMARK       I    between atoms: N2_8  and  C7_9 
REMARK    3  A    between atoms: C7_9  and  C8_11 
REMARK    4  A    between atoms: C11_14  and  C12_15 
REMARK    5  A    between atoms: C12_15  and  S1_16 
REMARK    6  A    between atoms: S1_16  and  C13_17 
REMARK    7  A    between atoms: C14_20  and  C15_21 
ROOT
ATOM      1  C8  NON d   1     -43.864  17.725  -4.888  0.00  0.00     0.032 A 
ATOM      2  C9  NON d   1     -42.698  17.061  -4.475  0.00  0.00     0.017 A 
ATOM      3  C10 NON d   1     -41.468  17.729  -4.391  0.00  0.00     0.009 A 
ATOM      4  C11 NON d   1     -41.359  19.087  -4.723  0.00  0.00    -0.048 A 
ATOM      5  C21 NON d   1     -42.534  19.750  -5.116  0.00  0.00     0.009 A 
ATOM      6  C22 NON d   1     -43.768  19.080  -5.209  0.00  0.00     0.017 A 
ENDROOT
BRANCH   1   7
ATOM      7  C7  NON d   1     -45.147  16.939  -4.902  0.00  0.00     0.256 C 
ATOM      8  N2  NON d   1     -46.087  17.223  -3.926  0.00  0.00    -0.321 N 
ATOM      9  H7  NON d   1     -45.940  18.002  -3.298  0.00  0.00     0.169 HD
ATOM     10  O1  NON d   1     -45.269  16.083  -5.773  0.00  0.00    -0.267 OA
BRANCH   8  11
ATOM     11  C6  NON d   1     -47.354  16.603  -3.745  0.00  0.00     0.056 A 
ATOM     12  C5  NON d   1     -47.965  16.438  -2.498  0.00  0.00     0.031 A 
ATOM     13  C4  NON d   1     -49.179  15.753  -2.380  0.00  0.00     0.002 A 
ATOM     14  C3  NON d   1     -49.792  15.215  -3.506  0.00  0.00     0.002 A 
ATOM     15  C2  NON d   1     -49.202  15.380  -4.759  0.00  0.00     0.025 A 
ATOM     16  C1  NON d   1     -48.011  16.108  -4.895  0.00  0.00     0.033 A 
BRANCH  16  17
ATOM     17  N1  NON d   1     -47.440  16.266  -6.185  0.00  0.00    -0.301 NA
ATOM     18  H1  NON d   1     -47.040  17.195  -6.308  0.00  0.00     0.124 HD
ATOM     19  H2  NON d   1     -46.718  15.564  -6.335  0.00  0.00     0.124 HD
ENDBRANCH  16  17
ENDBRANCH   8  11
ENDBRANCH   1   7
BRANCH   4  20
ATOM     20  C12 NON d   1     -40.004  19.768  -4.564  0.00  0.00     0.121 C 
BRANCH  20  21
ATOM     21  S1  NON d   1     -38.747  19.256  -5.764  0.00  0.00    -0.078 SA
BRANCH  21  22
ATOM     22  C13 NON d   1     -39.439  19.726  -7.281  0.00  0.00     0.231 A 
ATOM     23  N3  NON d   1     -40.443  19.148  -7.908  0.00  0.00    -0.114 NA
ATOM     24  N4  NON d   1     -40.679  19.900  -9.053  0.00  0.00    -0.120 NA
ATOM     25  C14 NON d   1     -39.792  20.876  -9.047  0.00  0.00     0.203 A 
ATOM     26  O2  NON d   1     -38.970  20.821  -7.954  0.00  0.00    -0.263 OA
BRANCH  25  27
ATOM     27  C15 NON d   1     -39.570  21.982  -9.975  0.00  0.00     0.019 A 
ATOM     28  C16 NON d   1     -39.817  23.304  -9.580  0.00  0.00     0.016 A 
ATOM     29  C17 NON d   1     -39.593  24.370 -10.462  0.00  0.00     0.001 A 
ATOM     30  C18 NON d   1     -39.124  24.126 -11.750  0.00  0.00     0.000 A 
ATOM     31  C19 NON d   1     -38.876  22.819 -12.162  0.00  0.00     0.001 A 
ATOM     32  C20 NON d   1     -39.097  21.757 -11.279  0.00  0.00     0.016 A 
ENDBRANCH  25  27
ENDBRANCH  21  22
ENDBRANCH  20  21
ENDBRANCH   4  20
TORSDOF 7
ENDMDL
MODEL 2
REMARK VINA RESULT:   -35.111      3.926      6.069
REMARK INTER + INTRA:         -38.521
REMARK INTER:                 -37.199
REMARK INTRA:                  -1.321
REMARK CONF_INDEPENDENT:        2.088
REMARK UNBOUND:                -1.321
REMARK  7 active torsions:
REMARK  status: ('A' for Active; 'I' for Inactive)
REMARK    1  A    between atoms: N1_1  and  C1_2 
REMARK    2  A    between atoms: C6_7  and  N2_8 
REMARK       I    between atoms: N2_8  and  C7_9 
REMARK    3  A    between atoms: C7_9  and  C8_11 
REMARK    4  A    between atoms: C11_14  and  C12_15 
REMARK    5  A    between atoms: C12_15  and  S1_16 
REMARK    6  A    between atoms: S1_16  and  C13_17 
REMARK    7  A    between atoms: C14_20  and  C15_21 
ROOT
ATOM      1  C8  NON d   1     -43.909  17.651  -4.731  0.00  0.00     0.032 A 
ATOM      2  C9  NON d   1     -42.905  17.190  -3.864  0.00  0.00     0.017 A 
ATOM      3  C10 NON d   1     -41.708  17.899  -3.691  0.00  0.00     0.009 A 
ATOM      4  C11 NON d   1     -41.469  19.094  -4.385  0.00  0.00    -0.048 A 
ATOM      5  C21 NON d   1     -42.486  19.559  -5.236  0.00  0.00     0.009 A 
ATOM      6  C22 NON d   1     -43.685  18.846  -5.417  0.00  0.00     0.017 A 
ENDROOT
BRANCH   1   7
ATOM      7  C7  NON d   1     -45.179  16.850  -4.817  0.00  0.00     0.256 C 
ATOM      8  N2  NON d   1     -46.144  17.065  -3.846  0.00  0.00    -0.321 N 
ATOM      9  H7  NON d   1     -46.021  17.809  -3.173  0.00  0.00     0.169 HD
ATOM     10  O1  NON d   1     -45.270  16.043  -5.737  0.00  0.00    -0.267 OA
BRANCH   8  11
ATOM     11  C6  NON d   1     -47.405  16.418  -3.728  0.00  0.00     0.056 A 
ATOM     12  C5  NON d   1     -48.036  16.169  -2.505  0.00  0.00     0.031 A 
ATOM     13  C4  NON d   1     -49.241  15.462  -2.452  0.00  0.00     0.002 A 
ATOM     14  C3  NON d   1     -49.825  14.985  -3.621  0.00  0.00     0.002 A 
ATOM     15  C2  NON d   1     -49.215  15.233  -4.849  0.00  0.00     0.025 A 
ATOM     16  C1  NON d   1     -48.033  15.984  -4.919  0.00  0.00     0.033 A 
BRANCH  16  17
ATOM     17  N1  NON d   1     -47.440  16.228  -6.185  0.00  0.00    -0.301 NA
ATOM     18  H1  NON d   1     -47.032  17.160  -6.236  0.00  0.00     0.124 HD
ATOM     19  H2  NON d   1     -46.720  15.532  -6.373  0.00  0.00     0.124 HD
ENDBRANCH  16  17
ENDBRANCH   8  11
ENDBRANCH   1   7
BRANCH   4  20
ATOM     20  C12 NON d   1     -40.167  19.843  -4.116  0.00  0.00     0.121 C 
BRANCH  20  21
ATOM     21  S1  NON d   1     -39.940  21.351  -5.093  0.00  0.00    -0.078 SA
BRANCH  21  22
ATOM     22  C13 NON d   1     -40.433  22.603  -4.002  0.00  0.00     0.231 A 
ATOM     23  N3  NON d   1     -40.955  23.770  -4.319  0.00  0.00    -0.114 NA
ATOM     24  N4  NON d   1     -41.237  24.415  -3.120  0.00  0.00    -0.120 NA
ATOM     25  C14 NON d   1     -40.854  23.597  -2.159  0.00  0.00     0.203 A 
ATOM     26  O2  NON d   1     -40.328  22.433  -2.649  0.00  0.00    -0.263 OA
BRANCH  25  27
ATOM     27  C15 NON d   1     -40.921  23.721  -0.705  0.00  0.00     0.019 A 
ATOM     28  C16 NON d   1     -40.510  22.665   0.120  0.00  0.00     0.016 A 
ATOM     29  C17 NON d   1     -40.560  22.783   1.516  0.00  0.00     0.001 A 
ATOM     30  C18 NON d   1     -41.025  23.958   2.102  0.00  0.00     0.000 A 
ATOM     31  C19 NON d   1     -41.441  25.016   1.299  0.00  0.00     0.001 A 
ATOM     32  C20 NON d   1     -41.388  24.898  -0.094  0.00  0.00     0.016 A 
ENDBRANCH  25  27
ENDBRANCH  21  22
ENDBRANCH  20  21
ENDBRANCH   4  20
TORSDOF 7
ENDMDL
MODEL 3
REMARK VINA RESULT:   -34.882      4.260      6.398
REMARK INTER + INTRA:         -38.134
REMARK INTER:                 -36.970
REMARK INTRA:                  -1.165
REMARK CONF_INDEPENDENT:        2.088
REMARK UNBOUND:                -1.165
REMARK  7 active torsions:
REMARK  status: ('A' for Active; 'I' for Inactive)
REMARK    1  A    between atoms: N1_1  and  C1_2 
REMARK    2  A    between atoms: C6_7  and  N2_8 
REMARK       I    between atoms: N2_8  and  C7_9 
REMARK    3  A    between atoms: C7_9  and  C8_11 
REMARK    4  A    between atoms: C11_14  and  C12_15 
REMARK    5  A    between atoms: C12_15  and  S1_16 
REMARK    6  A    between atoms: S1_16  and  C13_17 
REMARK    7  A    between atoms: C14_20  and  C15_21 
ROOT
ATOM      1  C8  NON d   1     -43.735  18.028  -4.667  0.00  0.00     0.032 A 
ATOM      2  C9  NON d   1     -42.934  17.338  -3.743  0.00  0.00     0.017 A 
ATOM      3  C10 NON d   1     -41.572  17.636  -3.592  0.00  0.00     0.009 A 
ATOM      4  C11 NON d   1     -40.960  18.633  -4.366  0.00  0.00    -0.048 A 
ATOM      5  C21 NON d   1     -41.773  19.333  -5.274  0.00  0.00     0.009 A 
ATOM      6  C22 NON d   1     -43.138  19.031  -5.433  0.00  0.00     0.017 A 
ENDROOT
BRANCH   1   7
ATOM      7  C7  NON d   1     -45.196  17.674  -4.725  0.00  0.00     0.256 C 
ATOM      8  N2  NON d   1     -45.777  17.144  -3.585  0.00  0.00    -0.321 N 
ATOM      9  H7  NON d   1     -45.247  17.100  -2.726  0.00  0.00     0.169 HD
ATOM     10  O1  NON d   1     -45.774  17.863  -5.791  0.00  0.00    -0.267 OA
BRANCH   8  11
ATOM     11  C6  NON d   1     -47.128  16.732  -3.420  0.00  0.00     0.056 A 
ATOM     12  C5  NON d   1     -47.815  16.799  -2.204  0.00  0.00     0.031 A 
ATOM     13  C4  NON d   1     -49.120  16.309  -2.091  0.00  0.00     0.002 A 
ATOM     14  C3  NON d   1     -49.750  15.735  -3.190  0.00  0.00     0.002 A 
ATOM     15  C2  NON d   1     -49.084  15.670  -4.412  0.00  0.00     0.025 A 
ATOM     16  C1  NON d   1     -47.795  16.204  -4.550  0.00  0.00     0.033 A 
BRANCH  16  17
ATOM     17  N1  NON d   1     -47.145  16.130  -5.810  0.00  0.00    -0.301 NA
ATOM     18  H1  NON d   1     -47.391  16.919  -6.406  0.00  0.00     0.124 HD
ATOM     19  H2  NON d   1     -46.135  16.105  -5.681  0.00  0.00     0.124 HD
ENDBRANCH  16  17
ENDBRANCH   8  11
ENDBRANCH   1   7
BRANCH   4  20
ATOM     20  C12 NON d   1     -39.487  18.942  -4.120  0.00  0.00     0.121 C 
BRANCH  20  21
ATOM     21  S1  NON d   1     -39.110  20.693  -3.853  0.00  0.00    -0.078 SA
BRANCH  21  22
ATOM     22  C13 NON d   1     -39.674  20.975  -2.239  0.00  0.00     0.231 A 
ATOM     23  N3  NON d   1     -39.943  20.068  -1.324  0.00  0.00    -0.114 NA
ATOM     24  N4  NON d   1     -40.311  20.761  -0.177  0.00  0.00    -0.120 NA
ATOM     25  C14 NON d   1     -40.252  22.043  -0.482  0.00  0.00     0.203 A 
ATOM     26  O2  NON d   1     -39.861  22.249  -1.777  0.00  0.00    -0.263 OA
BRANCH  25  27
ATOM     27  C15 NON d   1     -40.504  23.237   0.321  0.00  0.00     0.019 A 
ATOM     28  C16 NON d   1     -41.248  24.304  -0.203  0.00  0.00     0.016 A 
ATOM     29  C17 NON d   1     -41.503  25.447   0.567  0.00  0.00     0.001 A 
ATOM     30  C18 NON d   1     -41.015  25.537   1.868  0.00  0.00     0.000 A 
ATOM     31  C19 NON d   1     -40.272  24.490   2.405  0.00  0.00     0.001 A 
ATOM     32  C20 NON d   1     -40.020  23.348   1.636  0.00  0.00     0.016 A 
ENDBRANCH  25  27
ENDBRANCH  21  22
ENDBRANCH  20  21
ENDBRANCH   4  20
TORSDOF 7
ENDMDL
MODEL 4
REMARK VINA RESULT:   -34.565      4.216      5.034
REMARK INTER + INTRA:         -37.642
REMARK INTER:                 -36.653
REMARK INTRA:                  -0.990
REMARK CONF_INDEPENDENT:        2.088
REMARK UNBOUND:                -0.990
REMARK  7 active torsions:
REMARK  status: ('A' for Active; 'I' for Inactive)
REMARK    1  A    between atoms: N1_1  and  C1_2 
REMARK    2  A    between atoms: C6_7  and  N2_8 
REMARK       I    between atoms: N2_8  and  C7_9 
REMARK    3  A    between atoms: C7_9  and  C8_11 
REMARK    4  A    between atoms: C11_14  and  C12_15 
REMARK    5  A    between atoms: C12_15  and  S1_16 
REMARK    6  A    between atoms: S1_16  and  C13_17 
REMARK    7  A    between atoms: C14_20  and  C15_21 
ROOT
ATOM      1  C8  NON d   1     -43.893  17.706  -4.666  0.00  0.00     0.032 A 
ATOM      2  C9  NON d   1     -42.798  17.100  -4.030  0.00  0.00     0.017 A 
ATOM      3  C10 NON d   1     -41.572  17.767  -3.895  0.00  0.00     0.009 A 
ATOM      4  C11 NON d   1     -41.397  19.065  -4.395  0.00  0.00    -0.048 A 
ATOM      5  C21 NON d   1     -42.504  19.673  -5.011  0.00  0.00     0.009 A 
ATOM      6  C22 NON d   1     -43.733  19.003  -5.156  0.00  0.00     0.017 A 
ENDROOT
BRANCH   1   7
ATOM      7  C7  NON d   1     -45.182  16.933  -4.723  0.00  0.00     0.256 C 
ATOM      8  N2  NON d   1     -46.140  17.203  -3.759  0.00  0.00    -0.321 N 
ATOM      9  H7  NON d   1     -45.999  17.966  -3.111  0.00  0.00     0.169 HD
ATOM     10  O1  NON d   1     -45.294  16.097  -5.615  0.00  0.00    -0.267 OA
BRANCH   8  11
ATOM     11  C6  NON d   1     -47.415  16.590  -3.617  0.00  0.00     0.056 A 
ATOM     12  C5  NON d   1     -48.059  16.417  -2.388  0.00  0.00     0.031 A 
ATOM     13  C4  NON d   1     -49.280  15.740  -2.309  0.00  0.00     0.002 A 
ATOM     14  C3  NON d   1     -49.867  15.217  -3.456  0.00  0.00     0.002 A 
ATOM     15  C2  NON d   1     -49.244  15.389  -4.691  0.00  0.00     0.025 A 
ATOM     16  C1  NON d   1     -48.046  16.110  -4.789  0.00  0.00     0.033 A 
BRANCH  16  17
ATOM     17  N1  NON d   1     -47.439  16.277  -6.062  0.00  0.00    -0.301 NA
ATOM     18  H1  NON d   1     -46.680  16.955  -6.031  0.00  0.00     0.124 HD
ATOM     19  H2  NON d   1     -47.083  15.384  -6.399  0.00  0.00     0.124 HD
ENDBRANCH  16  17
ENDBRANCH   8  11
ENDBRANCH   1   7
BRANCH   4  20
ATOM     20  C12 NON d   1     -40.055  19.756  -4.172  0.00  0.00     0.121 C 
BRANCH  20  21
ATOM     21  S1  NON d   1     -39.442  19.700  -2.469  0.00  0.00    -0.078 SA
BRANCH  21  22
ATOM     22  C13 NON d   1     -39.979  21.209  -1.809  0.00  0.00     0.231 A 
ATOM     23  N3  NON d   1     -40.178  21.493  -0.538  0.00  0.00    -0.114 NA
ATOM     24  N4  NON d   1     -40.552  22.830  -0.486  0.00  0.00    -0.120 NA
ATOM     25  C14 NON d   1     -40.567  23.261  -1.733  0.00  0.00     0.203 A 
ATOM     26  O2  NON d   1     -40.220  22.282  -2.623  0.00  0.00    -0.263 OA
BRANCH  25  27
ATOM     27  C15 NON d   1     -40.861  24.578  -2.294  0.00  0.00     0.019 A 
ATOM     28  C16 NON d   1     -40.910  25.710  -1.468  0.00  0.00     0.016 A 
ATOM     29  C17 NON d   1     -41.179  26.977  -2.003  0.00  0.00     0.001 A 
ATOM     30  C18 NON d   1     -41.405  27.125  -3.369  0.00  0.00     0.000 A 
ATOM     31  C19 NON d   1     -41.365  26.013  -4.205  0.00  0.00     0.001 A 
ATOM     32  C20 NON d   1     -41.093  24.749  -3.670  0.00  0.00     0.016 A 
ENDBRANCH  25  27
ENDBRANCH  21  22
ENDBRANCH  20  21
ENDBRANCH   4  20
TORSDOF 7
ENDMDL
MODEL 5
REMARK VINA RESULT:   -34.245      1.856      2.050
REMARK INTER + INTRA:         -37.658
REMARK INTER:                 -36.333
REMARK INTRA:                  -1.324
REMARK CONF_INDEPENDENT:        2.088
REMARK UNBOUND:                -1.324
REMARK  7 active torsions:
REMARK  status: ('A' for Active; 'I' for Inactive)
REMARK    1  A    between atoms: N1_1  and  C1_2 
REMARK    2  A    between atoms: C6_7  and  N2_8 
REMARK       I    between atoms: N2_8  and  C7_9 
REMARK    3  A    between atoms: C7_9  and  C8_11 
REMARK    4  A    between atoms: C11_14  and  C12_15 
REMARK    5  A    between atoms: C12_15  and  S1_16 
REMARK    6  A    between atoms: S1_16  and  C13_17 
REMARK    7  A    between atoms: C14_20  and  C15_21 
ROOT
ATOM      1  C8  NON d   1     -43.865  17.737  -4.812  0.00  0.00     0.032 A 
ATOM      2  C9  NON d   1     -42.799  17.209  -4.067  0.00  0.00     0.017 A 
ATOM      3  C10 NON d   1     -41.586  17.900  -3.935  0.00  0.00     0.009 A 
ATOM      4  C11 NON d   1     -41.394  19.146  -4.549  0.00  0.00    -0.048 A 
ATOM      5  C21 NON d   1     -42.473  19.679  -5.276  0.00  0.00     0.009 A 
ATOM      6  C22 NON d   1     -43.688  18.983  -5.417  0.00  0.00     0.017 A 
ENDROOT
BRANCH   1   7
ATOM      7  C7  NON d   1     -45.144  16.947  -4.858  0.00  0.00     0.256 C 
ATOM      8  N2  NON d   1     -46.096  17.204  -3.886  0.00  0.00    -0.321 N 
ATOM      9  H7  NON d   1     -45.959  17.968  -3.239  0.00  0.00     0.169 HD
ATOM     10  O1  NON d   1     -45.252  16.111  -5.750  0.00  0.00    -0.267 OA
BRANCH   8  11
ATOM     11  C6  NON d   1     -47.362  16.574  -3.733  0.00  0.00     0.056 A 
ATOM     12  C5  NON d   1     -47.976  16.357  -2.496  0.00  0.00     0.031 A 
ATOM     13  C4  NON d   1     -49.188  15.666  -2.408  0.00  0.00     0.002 A 
ATOM     14  C3  NON d   1     -49.796  15.171  -3.557  0.00  0.00     0.002 A 
ATOM     15  C2  NON d   1     -49.204  15.387  -4.800  0.00  0.00     0.025 A 
ATOM     16  C1  NON d   1     -48.015  16.123  -4.904  0.00  0.00     0.033 A 
BRANCH  16  17
ATOM     17  N1  NON d   1     -47.440  16.334  -6.185  0.00  0.00    -0.301 NA
ATOM     18  H1  NON d   1     -47.110  17.291  -6.296  0.00  0.00     0.124 HD
ATOM     19  H2  NON d   1     -46.665  15.689  -6.331  0.00  0.00     0.124 HD
ENDBRANCH  16  17
ENDBRANCH   8  11
ENDBRANCH   1   7
BRANCH   4  20
ATOM     20  C12 NON d   1     -40.071  19.870  -4.328  0.00  0.00     0.121 C 
BRANCH  20  21
ATOM     21  S1  NON d   1     -40.213  21.495  -3.540  0.00  0.00    -0.078 SA
BRANCH  21  22
ATOM     22  C13 NON d   1     -40.200  22.586  -4.886  0.00  0.00     0.231 A 
ATOM     23  N3  NON d   1     -40.426  23.883  -4.857  0.00  0.00    -0.114 NA
ATOM     24  N4  NON d   1     -40.257  24.343  -6.158  0.00  0.00    -0.120 NA
ATOM     25  C14 NON d   1     -39.952  23.287  -6.889  0.00  0.00     0.203 A 
ATOM     26  O2  NON d   1     -39.906  22.140  -6.145  0.00  0.00    -0.263 OA
BRANCH  25  27
ATOM     27  C15 NON d   1     -39.642  23.156  -8.310  0.00  0.00     0.019 A 
ATOM     28  C16 NON d   1     -39.483  24.294  -9.113  0.00  0.00     0.016 A 
ATOM     29  C17 NON d   1     -39.174  24.174 -10.475  0.00  0.00     0.001 A 
ATOM     30  C18 NON d   1     -39.024  22.915 -11.049  0.00  0.00     0.000 A 
ATOM     31  C19 NON d   1     -39.182  21.773 -10.270  0.00  0.00     0.001 A 
ATOM     32  C20 NON d   1     -39.488  21.894  -8.910  0.00  0.00     0.016 A 
ENDBRANCH  25  27
ENDBRANCH  21  22
ENDBRANCH  20  21
ENDBRANCH   4  20
TORSDOF 7
ENDMDL
