MODEL 1
REMARK VINA RESULT:   -35.738      0.000      0.000
REMARK INTER + INTRA:         -38.936
REMARK INTER:                 -37.826
REMARK INTRA:                  -1.109
REMARK CONF_INDEPENDENT:        2.088
REMARK UNBOUND:                -1.109
REMARK  7 active torsions:
REMARK  status: ('A' for Active; 'I' for Inactive)
REMARK    1  A    between atoms: N1_1  and  C1_2 
REMARK    2  A    between atoms: C6_7  and  N2_8 
REMARK       I    between atoms: N2_8  and  C7_9 
REMARK    3  A    between atoms: C7_9  and  C8_11 
REMARK    4  A    between atoms: C9_12  and  C10_13 
REMARK    5  A    between atoms: C13_16  and  N3_17 
REMARK    6  A    between atoms: N3_17  and  S1_18 
REMARK    7  A    between atoms: S1_18  and  C14_21 
ROOT
ATOM      1  C10 NON d   1     -41.710  18.356  -3.981  0.00  0.00    -0.036 A 
ATOM      2  C11 NON d   1     -41.094  18.257  -2.721  0.00  0.00     0.013 A 
ATOM      3  C12 NON d   1     -39.848  18.836  -2.471  0.00  0.00     0.025 A 
ATOM      4  C13 NON d   1     -39.192  19.533  -3.479  0.00  0.00     0.022 A 
ATOM      5  C26 NON d   1     -39.799  19.671  -4.729  0.00  0.00     0.025 A 
ATOM      6  C27 NON d   1     -41.050  19.079  -4.980  0.00  0.00     0.013 A 
ENDROOT
BRANCH   4   7
ATOM      7  N3  NON d   1     -37.915  20.133  -3.210  0.00  0.00    -0.181 NA
ATOM      8  H12 NON d   1     -37.187  19.772  -3.829  0.00  0.00     0.146 HD
BRANCH   7   9
ATOM      9  S1  NON d   1     -37.858  21.837  -3.322  0.00  0.00     0.246 S 
ATOM     10  O2  NON d   1     -36.469  22.197  -3.164  0.00  0.00    -0.206 OA
ATOM     11  O3  NON d   1     -38.612  22.291  -4.470  0.00  0.00    -0.206 OA
BRANCH   9  12
ATOM     12  C14 NON d   1     -38.784  22.317  -1.875  0.00  0.00     0.088 A 
ATOM     13  C15 NON d   1     -38.794  21.365  -0.821  0.00  0.00     0.026 A 
ATOM     14  C16 NON d   1     -39.572  21.537   0.320  0.00  0.00     0.004 A 
ATOM     15  C17 NON d   1     -40.390  22.652   0.445  0.00  0.00     0.038 A 
ATOM     16  C18 NON d   1     -40.363  23.581  -0.595  0.00  0.00     0.088 A 
ATOM     17  O4  NON d   1     -41.130  24.698  -0.607  0.00  0.00    -0.309 OA
ATOM     18  C25 NON d   1     -39.574  23.488  -1.749  0.00  0.00     0.034 A 
ATOM     19  C19 NON d   1     -40.832  25.374  -1.742  0.00  0.00     0.087 A 
ATOM     20  C20 NON d   1     -41.424  26.583  -2.110  0.00  0.00     0.038 A 
ATOM     21  C24 NON d   1     -39.852  24.704  -2.472  0.00  0.00     0.012 A 
ATOM     22  C21 NON d   1     -40.972  27.171  -3.290  0.00  0.00     0.003 A 
ATOM     23  C22 NON d   1     -39.967  26.567  -4.043  0.00  0.00     0.001 A 
ATOM     24  C23 NON d   1     -39.399  25.343  -3.647  0.00  0.00     0.015 A 
ENDBRANCH   9  12
ENDBRANCH   7   9
ENDBRANCH   4   7
BRANCH   1  25
ATOM     25  C9  NON d   1     -43.002  17.666  -4.151  0.00  0.00     0.017 C 
ATOM     26  C8  NON d   1     -44.033  17.958  -4.965  0.00  0.00     0.075 C 
BRANCH  26  27
ATOM     27  C7  NON d   1     -45.189  17.004  -4.974  0.00  0.00     0.245 C 
ATOM     28  N2  NON d   1     -46.132  17.271  -4.008  0.00  0.00    -0.322 N 
ATOM     29  H7  NON d   1     -45.961  18.006  -3.332  0.00  0.00     0.169 HD
ATOM     30  O1  NON d   1     -45.238  16.106  -5.807  0.00  0.00    -0.268 OA
BRANCH  28  31
ATOM     31  C6  NON d   1     -47.334  16.558  -3.766  0.00  0.00     0.056 A 
ATOM     32  C5  NON d   1     -47.891  16.383  -2.495  0.00  0.00     0.031 A 
ATOM     33  C4  NON d   1     -49.112  15.720  -2.339  0.00  0.00     0.002 A 
ATOM     34  C3  NON d   1     -49.793  15.235  -3.452  0.00  0.00     0.002 A 
ATOM     35  C2  NON d   1     -49.244  15.393  -4.725  0.00  0.00     0.025 A 
ATOM     36  C1  NON d   1     -48.004  16.022  -4.889  0.00  0.00     0.033 A 
BRANCH  36  37
ATOM     37  N1  NON d   1     -47.440  16.137  -6.185  0.00  0.00    -0.301 NA
ATOM     38  H1  NON d   1     -47.091  17.076  -6.364  0.00  0.00     0.124 HD
ATOM     39  H2  NON d   1     -48.133  15.890  -6.889  0.00  0.00     0.124 HD
ENDBRANCH  36  37
ENDBRANCH  28  31
ENDBRANCH  26  27
ENDBRANCH   1  25
TORSDOF 7
ENDMDL
MODEL 2
REMARK VINA RESULT:   -35.654      1.073      2.637
REMARK INTER + INTRA:         -39.918
REMARK INTER:                 -37.742
REMARK INTRA:                  -2.176
REMARK CONF_INDEPENDENT:        2.088
REMARK UNBOUND:                -2.176
REMARK  7 active torsions:
REMARK  status: ('A' for Active; 'I' for Inactive)
REMARK    1  A    between atoms: N1_1  and  C1_2 
REMARK    2  A    between atoms: C6_7  and  N2_8 
REMARK       I    between atoms: N2_8  and  C7_9 
REMARK    3  A    between atoms: C7_9  and  C8_11 
REMARK    4  A    between atoms: C9_12  and  C10_13 
REMARK    5  A    between atoms: C13_16  and  N3_17 
REMARK    6  A    between atoms: N3_17  and  S1_18 
REMARK    7  A    between atoms: S1_18  and  C14_21 
ROOT
ATOM      1  C10 NON d   1     -41.819  18.503  -3.793  0.00  0.00    -0.036 A 
ATOM      2  C11 NON d   1     -41.330  18.556  -2.476  0.00  0.00     0.013 A 
ATOM      3  C12 NON d   1     -40.112  19.171  -2.174  0.00  0.00     0.025 A 
ATOM      4  C13 NON d   1     -39.359  19.753  -3.188  0.00  0.00     0.022 A 
ATOM      5  C26 NON d   1     -39.840  19.739  -4.499  0.00  0.00     0.025 A 
ATOM      6  C27 NON d   1     -41.062  19.112  -4.800  0.00  0.00     0.013 A 
ENDROOT
BRANCH   4   7
ATOM      7  N3  NON d   1     -38.113  20.391  -2.867  0.00  0.00    -0.181 NA
ATOM      8  H12 NON d   1     -37.340  19.724  -2.842  0.00  0.00     0.146 HD
BRANCH   7   9
ATOM      9  S1  NON d   1     -37.640  21.658  -3.910  0.00  0.00     0.246 S 
ATOM     10  O2  NON d   1     -36.547  22.329  -3.246  0.00  0.00    -0.206 OA
ATOM     11  O3  NON d   1     -37.491  21.168  -5.263  0.00  0.00    -0.206 OA
BRANCH   9  12
ATOM     12  C14 NON d   1     -39.093  22.692  -3.892  0.00  0.00     0.088 A 
ATOM     13  C15 NON d   1     -39.426  23.287  -5.137  0.00  0.00     0.026 A 
ATOM     14  C16 NON d   1     -40.455  24.216  -5.258  0.00  0.00     0.004 A 
ATOM     15  C17 NON d   1     -41.176  24.609  -4.138  0.00  0.00     0.038 A 
ATOM     16  C18 NON d   1     -40.841  24.010  -2.924  0.00  0.00     0.088 A 
ATOM     17  O4  NON d   1     -41.450  24.321  -1.755  0.00  0.00    -0.309 OA
ATOM     18  C25 NON d   1     -39.846  23.041  -2.742  0.00  0.00     0.034 A 
ATOM     19  C19 NON d   1     -40.898  23.540  -0.797  0.00  0.00     0.087 A 
ATOM     20  C20 NON d   1     -41.268  23.573   0.548  0.00  0.00     0.038 A 
ATOM     21  C24 NON d   1     -39.931  22.698  -1.343  0.00  0.00     0.012 A 
ATOM     22  C21 NON d   1     -40.631  22.670   1.398  0.00  0.00     0.003 A 
ATOM     23  C22 NON d   1     -39.682  21.778   0.902  0.00  0.00     0.001 A 
ATOM     24  C23 NON d   1     -39.327  21.779  -0.458  0.00  0.00     0.015 A 
ENDBRANCH   9  12
ENDBRANCH   7   9
ENDBRANCH   4   7
BRANCH   1  25
ATOM     25  C9  NON d   1     -43.089  17.787  -4.007  0.00  0.00     0.017 C 
ATOM     26  C8  NON d   1     -43.981  17.897  -5.008  0.00  0.00     0.075 C 
BRANCH  26  27
ATOM     27  C7  NON d   1     -45.149  16.958  -4.992  0.00  0.00     0.245 C 
ATOM     28  N2  NON d   1     -46.081  17.252  -4.024  0.00  0.00    -0.322 N 
ATOM     29  H7  NON d   1     -45.896  17.997  -3.362  0.00  0.00     0.169 HD
ATOM     30  O1  NON d   1     -45.215  16.046  -5.809  0.00  0.00    -0.268 OA
BRANCH  28  31
ATOM     31  C6  NON d   1     -47.290  16.557  -3.760  0.00  0.00     0.056 A 
ATOM     32  C5  NON d   1     -47.829  16.395  -2.480  0.00  0.00     0.031 A 
ATOM     33  C4  NON d   1     -49.056  15.750  -2.302  0.00  0.00     0.002 A 
ATOM     34  C3  NON d   1     -49.762  15.272  -3.402  0.00  0.00     0.002 A 
ATOM     35  C2  NON d   1     -49.232  15.417  -4.685  0.00  0.00     0.025 A 
ATOM     36  C1  NON d   1     -47.985  16.027  -4.871  0.00  0.00     0.033 A 
BRANCH  36  37
ATOM     37  N1  NON d   1     -47.440  16.130  -6.176  0.00  0.00    -0.301 NA
ATOM     38  H1  NON d   1     -46.770  15.388  -6.366  0.00  0.00     0.124 HD
ATOM     39  H2  NON d   1     -46.990  17.036  -6.294  0.00  0.00     0.124 HD
ENDBRANCH  36  37
ENDBRANCH  28  31
ENDBRANCH  26  27
ENDBRANCH   1  25
TORSDOF 7
ENDMDL
MODEL 3
REMARK VINA RESULT:   -35.472      1.532      2.250
REMARK INTER + INTRA:         -39.461
REMARK INTER:                 -37.560
REMARK INTRA:                  -1.901
REMARK CONF_INDEPENDENT:        2.088
REMARK UNBOUND:                -1.901
REMARK  7 active torsions:
REMARK  status: ('A' for Active; 'I' for Inactive)
REMARK    1  A    between atoms: N1_1  and  C1_2 
REMARK    2  A    between atoms: C6_7  and  N2_8 
REMARK       I    between atoms: N2_8  and  C7_9 
REMARK    3  A    between atoms: C7_9  and  C8_11 
REMARK    4  A    between atoms: C9_12  and  C10_13 
REMARK    5  A    between atoms: C13_16  and  N3_17 
REMARK    6  A    between atoms: N3_17  and  S1_18 
REMARK    7  A    between atoms: S1_18  and  C14_21 
ROOT
ATOM      1  C10 NON d   1     -41.613  18.296  -4.126  0.00  0.00    -0.036 A 
ATOM      2  C11 NON d   1     -40.973  18.227  -2.875  0.00  0.00     0.013 A 
ATOM      3  C12 NON d   1     -39.716  18.800  -2.667  0.00  0.00     0.025 A 
ATOM      4  C13 NON d   1     -39.074  19.462  -3.707  0.00  0.00     0.022 A 
ATOM      5  C26 NON d   1     -39.704  19.570  -4.949  0.00  0.00     0.025 A 
ATOM      6  C27 NON d   1     -40.966  18.984  -5.158  0.00  0.00     0.013 A 
ENDROOT
BRANCH   4   7
ATOM      7  N3  NON d   1     -37.786  20.056  -3.480  0.00  0.00    -0.181 NA
ATOM      8  H12 NON d   1     -37.192  20.004  -4.309  0.00  0.00     0.146 HD
BRANCH   7   9
ATOM      9  S1  NON d   1     -37.802  21.691  -2.984  0.00  0.00     0.246 S 
ATOM     10  O2  NON d   1     -36.663  22.308  -3.621  0.00  0.00    -0.206 OA
ATOM     11  O3  NON d   1     -39.126  22.251  -3.140  0.00  0.00    -0.206 OA
BRANCH   9  12
ATOM     12  C14 NON d   1     -37.512  21.532  -1.232  0.00  0.00     0.088 A 
ATOM     13  C15 NON d   1     -36.474  20.633  -0.871  0.00  0.00     0.026 A 
ATOM     14  C16 NON d   1     -36.211  20.306   0.456  0.00  0.00     0.004 A 
ATOM     15  C17 NON d   1     -36.988  20.841   1.474  0.00  0.00     0.038 A 
ATOM     16  C18 NON d   1     -38.000  21.727   1.104  0.00  0.00     0.088 A 
ATOM     17  O4  NON d   1     -38.843  22.300   1.996  0.00  0.00    -0.309 OA
ATOM     18  C25 NON d   1     -38.289  22.129  -0.207  0.00  0.00     0.034 A 
ATOM     19  C19 NON d   1     -39.671  23.112   1.298  0.00  0.00     0.087 A 
ATOM     20  C20 NON d   1     -40.684  23.878   1.875  0.00  0.00     0.038 A 
ATOM     21  C24 NON d   1     -39.359  23.086  -0.060  0.00  0.00     0.012 A 
ATOM     22  C21 NON d   1     -41.420  24.697   1.019  0.00  0.00     0.003 A 
ATOM     23  C22 NON d   1     -41.128  24.740  -0.343  0.00  0.00     0.001 A 
ATOM     24  C23 NON d   1     -40.105  23.948  -0.892  0.00  0.00     0.015 A 
ENDBRANCH   9  12
ENDBRANCH   7   9
ENDBRANCH   4   7
BRANCH   1  25
ATOM     25  C9  NON d   1     -42.913  17.614  -4.250  0.00  0.00     0.017 C 
ATOM     26  C8  NON d   1     -43.965  17.905  -5.039  0.00  0.00     0.075 C 
BRANCH  26  27
ATOM     27  C7  NON d   1     -45.128  16.961  -5.003  0.00  0.00     0.245 C 
ATOM     28  N2  NON d   1     -46.055  17.262  -4.032  0.00  0.00    -0.322 N 
ATOM     29  H7  NON d   1     -45.868  18.014  -3.379  0.00  0.00     0.169 HD
ATOM     30  O1  NON d   1     -45.197  16.040  -5.810  0.00  0.00    -0.268 OA
BRANCH  28  31
ATOM     31  C6  NON d   1     -47.259  16.565  -3.752  0.00  0.00     0.056 A 
ATOM     32  C5  NON d   1     -47.780  16.403  -2.464  0.00  0.00     0.031 A 
ATOM     33  C4  NON d   1     -49.004  15.756  -2.270  0.00  0.00     0.002 A 
ATOM     34  C3  NON d   1     -49.723  15.275  -3.360  0.00  0.00     0.002 A 
ATOM     35  C2  NON d   1     -49.210  15.420  -4.649  0.00  0.00     0.025 A 
ATOM     36  C1  NON d   1     -47.967  16.033  -4.852  0.00  0.00     0.033 A 
BRANCH  36  37
ATOM     37  N1  NON d   1     -47.440  16.136  -6.165  0.00  0.00    -0.301 NA
ATOM     38  H1  NON d   1     -46.773  15.394  -6.364  0.00  0.00     0.124 HD
ATOM     39  H2  NON d   1     -46.991  17.041  -6.288  0.00  0.00     0.124 HD
ENDBRANCH  36  37
ENDBRANCH  28  31
ENDBRANCH  26  27
ENDBRANCH   1  25
TORSDOF 7
ENDMDL
MODEL 4
REMARK VINA RESULT:   -35.430      1.487      2.796
REMARK INTER + INTRA:         -39.221
REMARK INTER:                 -37.518
REMARK INTRA:                  -1.704
REMARK CONF_INDEPENDENT:        2.088
REMARK UNBOUND:                -1.704
REMARK  7 active torsions:
REMARK  status: ('A' for Active; 'I' for Inactive)
REMARK    1  A    between atoms: N1_1  and  C1_2 
REMARK    2  A    between atoms: C6_7  and  N2_8 
REMARK       I    between atoms: N2_8  and  C7_9 
REMARK    3  A    between atoms: C7_9  and  C8_11 
REMARK    4  A    between atoms: C9_12  and  C10_13 
REMARK    5  A    between atoms: C13_16  and  N3_17 
REMARK    6  A    between atoms: N3_17  and  S1_18 
REMARK    7  A    between atoms: S1_18  and  C14_21 
ROOT
ATOM      1  C10 NON d   1     -41.997  18.746  -3.648  0.00  0.00    -0.036 A 
ATOM      2  C11 NON d   1     -41.652  19.742  -4.577  0.00  0.00     0.013 A 
ATOM      3  C12 NON d   1     -40.516  20.537  -4.406  0.00  0.00     0.025 A 
ATOM      4  C13 NON d   1     -39.697  20.347  -3.299  0.00  0.00     0.022 A 
ATOM      5  C26 NON d   1     -40.003  19.343  -2.379  0.00  0.00     0.025 A 
ATOM      6  C27 NON d   1     -41.152  18.550  -2.549  0.00  0.00     0.013 A 
ENDROOT
BRANCH   4   7
ATOM      7  N3  NON d   1     -38.526  21.164  -3.136  0.00  0.00    -0.181 NA
ATOM      8  H12 NON d   1     -38.385  21.789  -3.930  0.00  0.00     0.146 HD
BRANCH   7   9
ATOM      9  S1  NON d   1     -38.491  22.134  -1.730  0.00  0.00     0.246 S 
ATOM     10  O2  NON d   1     -39.075  21.331  -0.682  0.00  0.00    -0.206 OA
ATOM     11  O3  NON d   1     -37.183  22.728  -1.561  0.00  0.00    -0.206 OA
BRANCH   9  12
ATOM     12  C14 NON d   1     -39.602  23.453  -2.182  0.00  0.00     0.088 A 
ATOM     13  C15 NON d   1     -39.744  23.671  -3.578  0.00  0.00     0.026 A 
ATOM     14  C16 NON d   1     -40.475  24.741  -4.086  0.00  0.00     0.004 A 
ATOM     15  C17 NON d   1     -41.072  25.651  -3.223  0.00  0.00     0.038 A 
ATOM     16  C18 NON d   1     -40.929  25.418  -1.855  0.00  0.00     0.088 A 
ATOM     17  O4  NON d   1     -41.442  26.241  -0.909  0.00  0.00    -0.309 OA
ATOM     18  C25 NON d   1     -40.243  24.341  -1.281  0.00  0.00     0.034 A 
ATOM     19  C19 NON d   1     -41.138  25.703   0.295  0.00  0.00     0.087 A 
ATOM     20  C20 NON d   1     -41.500  26.269   1.518  0.00  0.00     0.038 A 
ATOM     21  C24 NON d   1     -40.435  24.510   0.139  0.00  0.00     0.012 A 
ATOM     22  C21 NON d   1     -41.146  25.563   2.667  0.00  0.00     0.003 A 
ATOM     23  C22 NON d   1     -40.475  24.346   2.572  0.00  0.00     0.001 A 
ATOM     24  C23 NON d   1     -40.119  23.809   1.323  0.00  0.00     0.015 A 
ENDBRANCH   9  12
ENDBRANCH   7   9
ENDBRANCH   4   7
BRANCH   1  25
ATOM     25  C9  NON d   1     -43.243  17.999  -3.899  0.00  0.00     0.017 C 
ATOM     26  C8  NON d   1     -43.900  17.785  -5.054  0.00  0.00     0.075 C 
BRANCH  26  27
ATOM     27  C7  NON d   1     -45.108  16.899  -5.000  0.00  0.00     0.245 C 
ATOM     28  N2  NON d   1     -46.012  17.257  -4.027  0.00  0.00    -0.322 N 
ATOM     29  H7  NON d   1     -45.784  18.007  -3.384  0.00  0.00     0.169 HD
ATOM     30  O1  NON d   1     -45.227  15.974  -5.796  0.00  0.00    -0.268 OA
BRANCH  28  31
ATOM     31  C6  NON d   1     -47.247  16.623  -3.731  0.00  0.00     0.056 A 
ATOM     32  C5  NON d   1     -47.779  16.523  -2.442  0.00  0.00     0.031 A 
ATOM     33  C4  NON d   1     -49.031  15.938  -2.233  0.00  0.00     0.002 A 
ATOM     34  C3  NON d   1     -49.768  15.458  -3.311  0.00  0.00     0.002 A 
ATOM     35  C2  NON d   1     -49.245  15.541  -4.602  0.00  0.00     0.025 A 
ATOM     36  C1  NON d   1     -47.975  16.091  -4.818  0.00  0.00     0.033 A 
BRANCH  36  37
ATOM     37  N1  NON d   1     -47.440  16.131  -6.131  0.00  0.00    -0.301 NA
ATOM     38  H1  NON d   1     -46.722  15.423  -6.269  0.00  0.00     0.124 HD
ATOM     39  H2  NON d   1     -47.052  17.053  -6.320  0.00  0.00     0.124 HD
ENDBRANCH  36  37
ENDBRANCH  28  31
ENDBRANCH  26  27
ENDBRANCH   1  25
TORSDOF 7
ENDMDL
MODEL 5
REMARK VINA RESULT:   -35.197      2.716      4.119
REMARK INTER + INTRA:         -39.530
REMARK INTER:                 -37.285
REMARK INTRA:                  -2.245
REMARK CONF_INDEPENDENT:        2.088
REMARK UNBOUND:                -2.245
REMARK  7 active torsions:
REMARK  status: ('A' for Active; 'I' for Inactive)
REMARK    1  A    between atoms: N1_1  and  C1_2 
REMARK    2  A    between atoms: C6_7  and  N2_8 
REMARK       I    between atoms: N2_8  and  C7_9 
REMARK    3  A    between atoms: C7_9  and  C8_11 
REMARK    4  A    between atoms: C9_12  and  C10_13 
REMARK    5  A    between atoms: C13_16  and  N3_17 
REMARK    6  A    between atoms: N3_17  and  S1_18 
REMARK    7  A    between atoms: S1_18  and  C14_21 
ROOT
ATOM      1  C10 NON d   1     -41.735  18.502  -3.989  0.00  0.00    -0.036 A 
ATOM      2  C11 NON d   1     -41.695  19.833  -4.439  0.00  0.00     0.013 A 
ATOM      3  C12 NON d   1     -40.550  20.619  -4.291  0.00  0.00     0.025 A 
ATOM      4  C13 NON d   1     -39.415  20.086  -3.692  0.00  0.00     0.022 A 
ATOM      5  C26 NON d   1     -39.420  18.756  -3.266  0.00  0.00     0.025 A 
ATOM      6  C27 NON d   1     -40.578  17.970  -3.408  0.00  0.00     0.013 A 
ENDROOT
BRANCH   4   7
ATOM      7  N3  NON d   1     -38.239  20.899  -3.552  0.00  0.00    -0.181 NA
ATOM      8  H12 NON d   1     -37.727  20.683  -2.696  0.00  0.00     0.146 HD
BRANCH   7   9
ATOM      9  S1  NON d   1     -37.116  20.804  -4.837  0.00  0.00     0.246 S 
ATOM     10  O2  NON d   1     -36.536  22.121  -4.952  0.00  0.00    -0.206 OA
ATOM     11  O3  NON d   1     -36.273  19.639  -4.684  0.00  0.00    -0.206 OA
BRANCH   9  12
ATOM     12  C14 NON d   1     -38.192  20.485  -6.224  0.00  0.00     0.088 A 
ATOM     13  C15 NON d   1     -38.246  19.131  -6.647  0.00  0.00     0.026 A 
ATOM     14  C16 NON d   1     -38.939  18.744  -7.789  0.00  0.00     0.004 A 
ATOM     15  C17 NON d   1     -39.584  19.694  -8.571  0.00  0.00     0.038 A 
ATOM     16  C18 NON d   1     -39.526  21.018  -8.138  0.00  0.00     0.088 A 
ATOM     17  O4  NON d   1     -40.093  22.042  -8.820  0.00  0.00    -0.309 OA
ATOM     18  C25 NON d   1     -38.882  21.468  -6.978  0.00  0.00     0.034 A 
ATOM     19  C19 NON d   1     -39.867  23.171  -8.106  0.00  0.00     0.087 A 
ATOM     20  C20 NON d   1     -40.301  24.439  -8.491  0.00  0.00     0.038 A 
ATOM     21  C24 NON d   1     -39.161  22.883  -6.939  0.00  0.00     0.012 A 
ATOM     22  C21 NON d   1     -40.022  25.491  -7.619  0.00  0.00     0.003 A 
ATOM     23  C22 NON d   1     -39.352  25.258  -6.420  0.00  0.00     0.001 A 
ATOM     24  C23 NON d   1     -38.921  23.967  -6.068  0.00  0.00     0.015 A 
ENDBRANCH   9  12
ENDBRANCH   7   9
ENDBRANCH   4   7
BRANCH   1  25
ATOM     25  C9  NON d   1     -43.009  17.779  -4.149  0.00  0.00     0.017 C 
ATOM     26  C8  NON d   1     -43.983  17.943  -5.064  0.00  0.00     0.075 C 
BRANCH  26  27
ATOM     27  C7  NON d   1     -45.132  16.982  -5.019  0.00  0.00     0.245 C 
ATOM     28  N2  NON d   1     -46.069  17.286  -4.059  0.00  0.00    -0.322 N 
ATOM     29  H7  NON d   1     -45.897  18.052  -3.418  0.00  0.00     0.169 HD
ATOM     30  O1  NON d   1     -45.182  16.047  -5.811  0.00  0.00    -0.268 OA
BRANCH  28  31
ATOM     31  C6  NON d   1     -47.264  16.577  -3.775  0.00  0.00     0.056 A 
ATOM     32  C5  NON d   1     -47.784  16.416  -2.486  0.00  0.00     0.031 A 
ATOM     33  C4  NON d   1     -49.000  15.755  -2.288  0.00  0.00     0.002 A 
ATOM     34  C3  NON d   1     -49.713  15.259  -3.375  0.00  0.00     0.002 A 
ATOM     35  C2  NON d   1     -49.202  15.403  -4.665  0.00  0.00     0.025 A 
ATOM     36  C1  NON d   1     -47.966  16.029  -4.872  0.00  0.00     0.033 A 
BRANCH  36  37
ATOM     37  N1  NON d   1     -47.440  16.130  -6.185  0.00  0.00    -0.301 NA
ATOM     38  H1  NON d   1     -47.047  15.247  -6.504  0.00  0.00     0.124 HD
ATOM     39  H2  NON d   1     -46.725  16.854  -6.217  0.00  0.00     0.124 HD
ENDBRANCH  36  37
ENDBRANCH  28  31
ENDBRANCH  26  27
ENDBRANCH   1  25
TORSDOF 7
ENDMDL
MODEL 6
REMARK VINA RESULT:   -34.840      2.356      3.770
REMARK INTER + INTRA:         -39.540
REMARK INTER:                 -36.929
REMARK INTRA:                  -2.611
REMARK CONF_INDEPENDENT:        2.088
REMARK UNBOUND:                -2.611
REMARK  7 active torsions:
REMARK  status: ('A' for Active; 'I' for Inactive)
REMARK    1  A    between atoms: N1_1  and  C1_2 
REMARK    2  A    between atoms: C6_7  and  N2_8 
REMARK       I    between atoms: N2_8  and  C7_9 
REMARK    3  A    between atoms: C7_9  and  C8_11 
REMARK    4  A    between atoms: C9_12  and  C10_13 
REMARK    5  A    between atoms: C13_16  and  N3_17 
REMARK    6  A    between atoms: N3_17  and  S1_18 
REMARK    7  A    between atoms: S1_18  and  C14_21 
ROOT
ATOM      1  C10 NON d   1     -41.742  17.973  -3.588  0.00  0.00    -0.036 A 
ATOM      2  C11 NON d   1     -40.867  17.968  -4.688  0.00  0.00     0.013 A 
ATOM      3  C12 NON d   1     -39.489  18.131  -4.525  0.00  0.00     0.025 A 
ATOM      4  C13 NON d   1     -38.956  18.298  -3.251  0.00  0.00     0.022 A 
ATOM      5  C26 NON d   1     -39.803  18.275  -2.141  0.00  0.00     0.025 A 
ATOM      6  C27 NON d   1     -41.191  18.119  -2.310  0.00  0.00     0.013 A 
ENDROOT
BRANCH   4   7
ATOM      7  N3  NON d   1     -37.537  18.456  -3.093  0.00  0.00    -0.181 NA
ATOM      8  H12 NON d   1     -37.014  17.823  -3.699  0.00  0.00     0.146 HD
BRANCH   7   9
ATOM      9  S1  NON d   1     -36.932  20.028  -3.376  0.00  0.00     0.246 S 
ATOM     10  O2  NON d   1     -36.288  20.430  -2.148  0.00  0.00    -0.206 OA
ATOM     11  O3  NON d   1     -36.216  20.074  -4.632  0.00  0.00    -0.206 OA
BRANCH   9  12
ATOM     12  C14 NON d   1     -38.440  20.952  -3.606  0.00  0.00     0.088 A 
ATOM     13  C15 NON d   1     -38.981  21.529  -2.428  0.00  0.00     0.026 A 
ATOM     14  C16 NON d   1     -40.215  22.172  -2.421  0.00  0.00     0.004 A 
ATOM     15  C17 NON d   1     -40.971  22.242  -3.584  0.00  0.00     0.038 A 
ATOM     16  C18 NON d   1     -40.423  21.676  -4.734  0.00  0.00     0.088 A 
ATOM     17  O4  NON d   1     -41.067  21.656  -5.926  0.00  0.00    -0.309 OA
ATOM     18  C25 NON d   1     -39.171  21.052  -4.817  0.00  0.00     0.034 A 
ATOM     19  C19 NON d   1     -40.241  21.059  -6.817  0.00  0.00     0.087 A 
ATOM     20  C20 NON d   1     -40.556  20.852  -8.160  0.00  0.00     0.038 A 
ATOM     21  C24 NON d   1     -39.039  20.698  -6.209  0.00  0.00     0.012 A 
ATOM     22  C21 NON d   1     -39.574  20.261  -8.953  0.00  0.00     0.003 A 
ATOM     23  C22 NON d   1     -38.339  19.913  -8.410  0.00  0.00     0.001 A 
ATOM     24  C23 NON d   1     -38.059  20.128  -7.049  0.00  0.00     0.015 A 
ENDBRANCH   9  12
ENDBRANCH   7   9
ENDBRANCH   4   7
BRANCH   1  25
ATOM     25  C9  NON d   1     -43.182  17.844  -3.877  0.00  0.00     0.017 C 
ATOM     26  C8  NON d   1     -43.819  17.771  -5.060  0.00  0.00     0.075 C 
BRANCH  26  27
ATOM     27  C7  NON d   1     -45.301  17.552  -5.027  0.00  0.00     0.245 C 
ATOM     28  N2  NON d   1     -45.752  17.004  -3.848  0.00  0.00    -0.322 N 
ATOM     29  H7  NON d   1     -45.084  16.721  -3.141  0.00  0.00     0.169 HD
ATOM     30  O1  NON d   1     -45.991  17.875  -5.988  0.00  0.00    -0.268 OA
BRANCH  28  31
ATOM     31  C6  NON d   1     -47.093  16.685  -3.511  0.00  0.00     0.056 A 
ATOM     32  C5  NON d   1     -47.609  16.773  -2.214  0.00  0.00     0.031 A 
ATOM     33  C4  NON d   1     -48.957  16.499  -1.966  0.00  0.00     0.002 A 
ATOM     34  C3  NON d   1     -49.805  16.147  -3.013  0.00  0.00     0.002 A 
ATOM     35  C2  NON d   1     -49.301  16.045  -4.310  0.00  0.00     0.025 A 
ATOM     36  C1  NON d   1     -47.944  16.279  -4.564  0.00  0.00     0.033 A 
BRANCH  36  37
ATOM     37  N1  NON d   1     -47.438  16.130  -5.880  0.00  0.00    -0.301 NA
ATOM     38  H1  NON d   1     -46.484  15.778  -5.881  0.00  0.00     0.124 HD
ATOM     39  H2  NON d   1     -47.474  17.023  -6.369  0.00  0.00     0.124 HD
ENDBRANCH  36  37
ENDBRANCH  28  31
ENDBRANCH  26  27
ENDBRANCH   1  25
TORSDOF 7
ENDMDL
MODEL 7
REMARK VINA RESULT:   -34.637      1.261      1.665
REMARK INTER + INTRA:         -38.536
REMARK INTER:                 -36.725
REMARK INTRA:                  -1.811
REMARK CONF_INDEPENDENT:        2.088
REMARK UNBOUND:                -1.811
REMARK  7 active torsions:
REMARK  status: ('A' for Active; 'I' for Inactive)
REMARK    1  A    between atoms: N1_1  and  C1_2 
REMARK    2  A    between atoms: C6_7  and  N2_8 
REMARK       I    between atoms: N2_8  and  C7_9 
REMARK    3  A    between atoms: C7_9  and  C8_11 
REMARK    4  A    between atoms: C9_12  and  C10_13 
REMARK    5  A    between atoms: C13_16  and  N3_17 
REMARK    6  A    between atoms: N3_17  and  S1_18 
REMARK    7  A    between atoms: S1_18  and  C14_21 
ROOT
ATOM      1  C10 NON d   1     -41.792  18.750  -4.109  0.00  0.00    -0.036 A 
ATOM      2  C11 NON d   1     -40.674  18.075  -3.588  0.00  0.00     0.013 A 
ATOM      3  C12 NON d   1     -39.431  18.703  -3.473  0.00  0.00     0.025 A 
ATOM      4  C13 NON d   1     -39.282  20.026  -3.874  0.00  0.00     0.022 A 
ATOM      5  C26 NON d   1     -40.386  20.726  -4.366  0.00  0.00     0.025 A 
ATOM      6  C27 NON d   1     -41.634  20.088  -4.488  0.00  0.00     0.013 A 
ENDROOT
BRANCH   4   7
ATOM      7  N3  NON d   1     -38.003  20.666  -3.744  0.00  0.00    -0.181 NA
ATOM      8  H12 NON d   1     -37.923  21.484  -4.349  0.00  0.00     0.146 HD
BRANCH   7   9
ATOM      9  S1  NON d   1     -37.586  21.174  -2.167  0.00  0.00     0.246 S 
ATOM     10  O2  NON d   1     -37.626  19.987  -1.346  0.00  0.00    -0.206 OA
ATOM     11  O3  NON d   1     -36.403  22.006  -2.202  0.00  0.00    -0.206 OA
BRANCH   9  12
ATOM     12  C14 NON d   1     -38.956  22.242  -1.766  0.00  0.00     0.088 A 
ATOM     13  C15 NON d   1     -39.579  21.982  -0.516  0.00  0.00     0.026 A 
ATOM     14  C16 NON d   1     -40.736  22.645  -0.118  0.00  0.00     0.004 A 
ATOM     15  C17 NON d   1     -41.333  23.574  -0.959  0.00  0.00     0.038 A 
ATOM     16  C18 NON d   1     -40.706  23.823  -2.180  0.00  0.00     0.088 A 
ATOM     17  O4  NON d   1     -41.197  24.687  -3.100  0.00  0.00    -0.309 OA
ATOM     18  C25 NON d   1     -39.520  23.222  -2.622  0.00  0.00     0.034 A 
ATOM     19  C19 NON d   1     -40.330  24.700  -4.139  0.00  0.00     0.087 A 
ATOM     20  C20 NON d   1     -40.497  25.474  -5.288  0.00  0.00     0.038 A 
ATOM     21  C24 NON d   1     -39.253  23.849  -3.893  0.00  0.00     0.012 A 
ATOM     22  C21 NON d   1     -39.487  25.403  -6.247  0.00  0.00     0.003 A 
ATOM     23  C22 NON d   1     -38.368  24.600  -6.039  0.00  0.00     0.001 A 
ATOM     24  C23 NON d   1     -38.237  23.825  -4.873  0.00  0.00     0.015 A 
ENDBRANCH   9  12
ENDBRANCH   7   9
ENDBRANCH   4   7
BRANCH   1  25
ATOM     25  C9  NON d   1     -43.042  17.979  -4.232  0.00  0.00     0.017 C 
ATOM     26  C8  NON d   1     -44.042  18.099  -5.125  0.00  0.00     0.075 C 
BRANCH  26  27
ATOM     27  C7  NON d   1     -45.154  17.097  -5.044  0.00  0.00     0.245 C 
ATOM     28  N2  NON d   1     -46.095  17.392  -4.085  0.00  0.00    -0.322 N 
ATOM     29  H7  NON d   1     -45.947  18.181  -3.467  0.00  0.00     0.169 HD
ATOM     30  O1  NON d   1     -45.174  16.139  -5.810  0.00  0.00    -0.268 OA
BRANCH  28  31
ATOM     31  C6  NON d   1     -47.260  16.646  -3.771  0.00  0.00     0.056 A 
ATOM     32  C5  NON d   1     -47.763  16.500  -2.474  0.00  0.00     0.031 A 
ATOM     33  C4  NON d   1     -48.951  15.800  -2.248  0.00  0.00     0.002 A 
ATOM     34  C3  NON d   1     -49.654  15.249  -3.315  0.00  0.00     0.002 A 
ATOM     35  C2  NON d   1     -49.159  15.378  -4.613  0.00  0.00     0.025 A 
ATOM     36  C1  NON d   1     -47.950  16.044  -4.848  0.00  0.00     0.033 A 
BRANCH  36  37
ATOM     37  N1  NON d   1     -47.439  16.130  -6.167  0.00  0.00    -0.301 NA
ATOM     38  H1  NON d   1     -47.012  17.035  -6.350  0.00  0.00     0.124 HD
ATOM     39  H2  NON d   1     -48.184  15.961  -6.840  0.00  0.00     0.124 HD
ENDBRANCH  36  37
ENDBRANCH  28  31
ENDBRANCH  26  27
ENDBRANCH   1  25
TORSDOF 7
ENDMDL
MODEL 8
REMARK VINA RESULT:   -34.621      2.493      4.045
REMARK INTER + INTRA:         -38.427
REMARK INTER:                 -36.709
REMARK INTRA:                  -1.718
REMARK CONF_INDEPENDENT:        2.088
REMARK UNBOUND:                -1.718
REMARK  7 active torsions:
REMARK  status: ('A' for Active; 'I' for Inactive)
REMARK    1  A    between atoms: N1_1  and  C1_2 
REMARK    2  A    between atoms: C6_7  and  N2_8 
REMARK       I    between atoms: N2_8  and  C7_9 
REMARK    3  A    between atoms: C7_9  and  C8_11 
REMARK    4  A    between atoms: C9_12  and  C10_13 
REMARK    5  A    between atoms: C13_16  and  N3_17 
REMARK    6  A    between atoms: N3_17  and  S1_18 
REMARK    7  A    between atoms: S1_18  and  C14_21 
ROOT
ATOM      1  C10 NON d   1     -41.510  18.162  -4.553  0.00  0.00    -0.036 A 
ATOM      2  C11 NON d   1     -41.101  18.819  -5.726  0.00  0.00     0.013 A 
ATOM      3  C12 NON d   1     -39.892  19.517  -5.787  0.00  0.00     0.025 A 
ATOM      4  C13 NON d   1     -39.063  19.568  -4.672  0.00  0.00     0.022 A 
ATOM      5  C26 NON d   1     -39.435  18.897  -3.505  0.00  0.00     0.025 A 
ATOM      6  C27 NON d   1     -40.657  18.202  -3.445  0.00  0.00     0.013 A 
ENDROOT
BRANCH   4   7
ATOM      7  N3  NON d   1     -37.819  20.281  -4.747  0.00  0.00    -0.181 NA
ATOM      8  H12 NON d   1     -37.249  19.971  -5.535  0.00  0.00     0.146 HD
BRANCH   7   9
ATOM      9  S1  NON d   1     -37.946  21.981  -4.866  0.00  0.00     0.246 S 
ATOM     10  O2  NON d   1     -39.058  22.353  -4.024  0.00  0.00    -0.206 OA
ATOM     11  O3  NON d   1     -36.649  22.596  -4.688  0.00  0.00    -0.206 OA
BRANCH   9  12
ATOM     12  C14 NON d   1     -38.382  22.184  -6.583  0.00  0.00     0.088 A 
ATOM     13  C15 NON d   1     -37.907  21.166  -7.451  0.00  0.00     0.026 A 
ATOM     14  C16 NON d   1     -38.057  21.246  -8.832  0.00  0.00     0.004 A 
ATOM     15  C17 NON d   1     -38.662  22.357  -9.405  0.00  0.00     0.038 A 
ATOM     16  C18 NON d   1     -39.129  23.344  -8.538  0.00  0.00     0.088 A 
ATOM     17  O4  NON d   1     -39.718  24.486  -8.969  0.00  0.00    -0.309 OA
ATOM     18  C25 NON d   1     -39.047  23.305  -7.141  0.00  0.00     0.034 A 
ATOM     19  C19 NON d   1     -40.066  25.195  -7.869  0.00  0.00     0.087 A 
ATOM     20  C20 NON d   1     -40.699  26.438  -7.909  0.00  0.00     0.038 A 
ATOM     21  C24 NON d   1     -39.718  24.507  -6.708  0.00  0.00     0.012 A 
ATOM     22  C21 NON d   1     -41.028  27.015  -6.683  0.00  0.00     0.003 A 
ATOM     23  C22 NON d   1     -40.739  26.357  -5.490  0.00  0.00     0.001 A 
ATOM     24  C23 NON d   1     -40.092  25.109  -5.488  0.00  0.00     0.015 A 
ENDBRANCH   9  12
ENDBRANCH   7   9
ENDBRANCH   4   7
BRANCH   1  25
ATOM     25  C9  NON d   1     -42.826  17.497  -4.582  0.00  0.00     0.017 C 
ATOM     26  C8  NON d   1     -44.014  17.959  -5.014  0.00  0.00     0.075 C 
BRANCH  26  27
ATOM     27  C7  NON d   1     -45.168  17.003  -4.996  0.00  0.00     0.245 C 
ATOM     28  N2  NON d   1     -46.106  17.288  -4.031  0.00  0.00    -0.322 N 
ATOM     29  H7  NON d   1     -45.932  18.037  -3.371  0.00  0.00     0.169 HD
ATOM     30  O1  NON d   1     -45.219  16.087  -5.810  0.00  0.00    -0.268 OA
BRANCH  28  31
ATOM     31  C6  NON d   1     -47.305  16.576  -3.766  0.00  0.00     0.056 A 
ATOM     32  C5  NON d   1     -47.846  16.415  -2.487  0.00  0.00     0.031 A 
ATOM     33  C4  NON d   1     -49.064  15.753  -2.309  0.00  0.00     0.002 A 
ATOM     34  C3  NON d   1     -49.758  15.256  -3.408  0.00  0.00     0.002 A 
ATOM     35  C2  NON d   1     -49.225  15.400  -4.689  0.00  0.00     0.025 A 
ATOM     36  C1  NON d   1     -47.987  16.028  -4.876  0.00  0.00     0.033 A 
BRANCH  36  37
ATOM     37  N1  NON d   1     -47.439  16.130  -6.179  0.00  0.00    -0.301 NA
ATOM     38  H1  NON d   1     -46.703  15.446  -6.335  0.00  0.00     0.124 HD
ATOM     39  H2  NON d   1     -47.073  17.068  -6.329  0.00  0.00     0.124 HD
ENDBRANCH  36  37
ENDBRANCH  28  31
ENDBRANCH  26  27
ENDBRANCH   1  25
TORSDOF 7
ENDMDL
MODEL 9
REMARK VINA RESULT:   -34.530      3.965      5.228
REMARK INTER + INTRA:         -38.508
REMARK INTER:                 -36.619
REMARK INTRA:                  -1.889
REMARK CONF_INDEPENDENT:        2.088
REMARK UNBOUND:                -1.889
REMARK  7 active torsions:
REMARK  status: ('A' for Active; 'I' for Inactive)
REMARK    1  A    between atoms: N1_1  and  C1_2 
REMARK    2  A    between atoms: C6_7  and  N2_8 
REMARK       I    between atoms: N2_8  and  C7_9 
REMARK    3  A    between atoms: C7_9  and  C8_11 
REMARK    4  A    between atoms: C9_12  and  C10_13 
REMARK    5  A    between atoms: C13_16  and  N3_17 
REMARK    6  A    between atoms: N3_17  and  S1_18 
REMARK    7  A    between atoms: S1_18  and  C14_21 
ROOT
ATOM      1  C10 NON d   1     -41.788  18.662  -5.271  0.00  0.00    -0.036 A 
ATOM      2  C11 NON d   1     -40.643  18.049  -5.810  0.00  0.00     0.013 A 
ATOM      3  C12 NON d   1     -39.455  18.760  -5.997  0.00  0.00     0.025 A 
ATOM      4  C13 NON d   1     -39.386  20.102  -5.643  0.00  0.00     0.022 A 
ATOM      5  C26 NON d   1     -40.501  20.724  -5.077  0.00  0.00     0.025 A 
ATOM      6  C27 NON d   1     -41.698  20.008  -4.897  0.00  0.00     0.013 A 
ENDROOT
BRANCH   4   7
ATOM      7  N3  NON d   1     -38.157  20.822  -5.831  0.00  0.00    -0.181 NA
ATOM      8  H12 NON d   1     -37.348  20.280  -5.525  0.00  0.00     0.146 HD
BRANCH   7   9
ATOM      9  S1  NON d   1     -37.837  21.333  -7.430  0.00  0.00     0.246 S 
ATOM     10  O2  NON d   1     -36.407  21.521  -7.505  0.00  0.00    -0.206 OA
ATOM     11  O3  NON d   1     -38.518  20.478  -8.377  0.00  0.00    -0.206 OA
BRANCH   9  12
ATOM     12  C14 NON d   1     -38.665  22.912  -7.470  0.00  0.00     0.088 A 
ATOM     13  C15 NON d   1     -38.799  23.555  -6.211  0.00  0.00     0.026 A 
ATOM     14  C16 NON d   1     -39.529  24.730  -6.059  0.00  0.00     0.004 A 
ATOM     15  C17 NON d   1     -40.177  25.296  -7.149  0.00  0.00     0.038 A 
ATOM     16  C18 NON d   1     -40.031  24.655  -8.378  0.00  0.00     0.088 A 
ATOM     17  O4  NON d   1     -40.629  25.090  -9.514  0.00  0.00    -0.309 OA
ATOM     18  C25 NON d   1     -39.277  23.496  -8.607  0.00  0.00     0.034 A 
ATOM     19  C19 NON d   1     -40.251  24.254 -10.509  0.00  0.00     0.087 A 
ATOM     20  C20 NON d   1     -40.668  24.379 -11.835  0.00  0.00     0.038 A 
ATOM     21  C24 NON d   1     -39.386  23.272 -10.028  0.00  0.00     0.012 A 
ATOM     22  C21 NON d   1     -40.151  23.460 -12.746  0.00  0.00     0.003 A 
ATOM     23  C22 NON d   1     -39.252  22.479 -12.331  0.00  0.00     0.001 A 
ATOM     24  C23 NON d   1     -38.861  22.376 -10.984  0.00  0.00     0.015 A 
ENDBRANCH   9  12
ENDBRANCH   7   9
ENDBRANCH   4   7
BRANCH   1  25
ATOM     25  C9  NON d   1     -43.002  17.834  -5.162  0.00  0.00     0.017 C 
ATOM     26  C8  NON d   1     -44.239  18.170  -4.750  0.00  0.00     0.075 C 
BRANCH  26  27
ATOM     27  C7  NON d   1     -45.299  17.114  -4.837  0.00  0.00     0.245 C 
ATOM     28  N2  NON d   1     -46.307  17.267  -3.914  0.00  0.00    -0.322 N 
ATOM     29  H7  NON d   1     -46.237  17.997  -3.213  0.00  0.00     0.169 HD
ATOM     30  O1  NON d   1     -45.225  16.238  -5.692  0.00  0.00    -0.268 OA
BRANCH  28  31
ATOM     31  C6  NON d   1     -47.448  16.440  -3.747  0.00  0.00     0.056 A 
ATOM     32  C5  NON d   1     -48.026  16.155  -2.506  0.00  0.00     0.031 A 
ATOM     33  C4  NON d   1     -49.186  15.380  -2.423  0.00  0.00     0.002 A 
ATOM     34  C3  NON d   1     -49.786  14.892  -3.580  0.00  0.00     0.002 A 
ATOM     35  C2  NON d   1     -49.215  15.159  -4.825  0.00  0.00     0.025 A 
ATOM     36  C1  NON d   1     -48.031  15.902  -4.916  0.00  0.00     0.033 A 
BRANCH  36  37
ATOM     37  N1  NON d   1     -47.440  16.130  -6.185  0.00  0.00    -0.301 NA
ATOM     38  H1  NON d   1     -46.621  15.545  -6.331  0.00  0.00     0.124 HD
ATOM     39  H2  NON d   1     -47.181  17.110  -6.276  0.00  0.00     0.124 HD
ENDBRANCH  36  37
ENDBRANCH  28  31
ENDBRANCH  26  27
ENDBRANCH   1  25
TORSDOF 7
ENDMDL
