MODEL 1
REMARK VINA RESULT:   -18.555      0.000      0.000
REMARK INTER + INTRA:         -23.607
REMARK INTER:                 -22.134
REMARK INTRA:                  -1.473
REMARK CONF_INDEPENDENT:        3.580
REMARK UNBOUND:                -1.473
REMARK  12 active torsions:
REMARK  status: ('A' for Active; 'I' for Inactive)
REMARK    1  A    between atoms: N1_2  and  C3_4 
REMARK    2  A    between atoms: C3_4  and  C4_5 
REMARK    3  A    between atoms: C4_5  and  C7_8 
REMARK    4  A    between atoms: C7_8  and  N2_9 
REMARK    5  A    between atoms: C11_14  and  C12_15 
REMARK       I    between atoms: C12_15  and  N4_17 
REMARK       I    between atoms: N4_17  and  C13_18 
REMARK       I    between atoms: C13_18  and  N5_20 
REMARK    6  A    between atoms: N5_20  and  C14_21 
REMARK    7  A    between atoms: C14_21  and  C15_22 
REMARK    8  A    between atoms: C15_22  and  C16_23 
REMARK    9  A    between atoms: C16_23  and  C17_24 
REMARK   10  A    between atoms: C17_24  and  C18_25 
REMARK   11  A    between atoms: C18_25  and  C19_26 
REMARK       I    between atoms: C19_26  and  N6_28 
REMARK   12  A    between atoms: N6_28  and  O4_29 
ROOT
ATOM      1  C12 NON d   1     -45.554  17.214  -5.098  0.00  0.00     0.259 C 
ATOM      2  O1  NON d   1     -45.939  17.630  -6.185  0.00  0.00    -0.267 OA
ATOM      3  N4  NON d   1     -46.319  16.386  -4.278  0.00  0.00    -0.275 N 
ATOM      4  C13 NON d   1     -47.472  15.735  -4.705  0.00  0.00     0.323 C 
ATOM      5  O2  NON d   1     -47.822  15.602  -5.871  0.00  0.00    -0.247 OA
ATOM      6  N5  NON d   1     -48.195  15.188  -3.644  0.00  0.00    -0.343 N 
ATOM      7  H20 NON d   1     -45.980  16.100  -3.381  0.00  0.00     0.173 HD
ATOM      8  H21 NON d   1     -48.124  15.703  -2.780  0.00  0.00     0.164 HD
ENDROOT
BRANCH   1   9
ATOM      9  C11 NON d   1     -44.206  17.721  -4.608  0.00  0.00     0.034 A 
ATOM     10  C10 NON d   1     -43.572  18.890  -5.053  0.00  0.00     0.051 A 
ATOM     11  C9  NON d   1     -42.274  19.208  -4.577  0.00  0.00     0.086 A 
ATOM     12  N3  NON d   1     -41.463  20.270  -4.904  0.00  0.00    -0.242 NA
ATOM     13  C22 NON d   1     -41.619  18.367  -3.674  0.00  0.00     0.064 A 
ATOM     14  C8  NON d   1     -40.321  20.055  -4.288  0.00  0.00     0.210 A 
ATOM     15  N2  NON d   1     -40.351  18.921  -3.520  0.00  0.00    -0.339 N 
ATOM     16  C21 NON d   1     -42.241  17.216  -3.180  0.00  0.00     0.033 A 
ATOM     17  C20 NON d   1     -43.532  16.919  -3.662  0.00  0.00     0.019 A 
BRANCH  15  18
ATOM     18  C7  NON d   1     -39.166  18.235  -3.014  0.00  0.00     0.140 C 
BRANCH  18  19
ATOM     19  C4  NON d   1     -37.795  18.997  -2.739  0.00  0.00    -0.007 C 
ATOM     20  C5  NON d   1     -37.162  19.141  -4.154  0.00  0.00     0.018 C 
ATOM     21  C6  NON d   1     -36.863  18.117  -1.904  0.00  0.00     0.018 C 
BRANCH  19  22
ATOM     22  C3  NON d   1     -37.983  20.487  -2.249  0.00  0.00     0.244 C 
BRANCH  22  23
ATOM     23  N1  NON d   1     -38.517  20.746  -0.843  0.00  0.00    -0.078 N 
ATOM     24  C1  NON d   1     -37.857  21.852  -0.047  0.00  0.00     0.269 C 
ATOM     25  C2  NON d   1     -40.006  21.074  -0.893  0.00  0.00     0.269 C 
ATOM     26  H4  NON d   1     -38.436  19.881  -0.294  0.00  0.00     0.279 HD
ENDBRANCH  22  23
ENDBRANCH  19  22
ENDBRANCH  18  19
ENDBRANCH  15  18
ENDBRANCH   1   9
BRANCH   6  27
ATOM     27  C14 NON d   1     -49.517  14.629  -3.927  0.00  0.00     0.124 C 
BRANCH  27  28
ATOM     28  C15 NON d   1     -50.637  15.086  -2.985  0.00  0.00     0.020 C 
BRANCH  28  29
ATOM     29  C16 NON d   1     -50.675  16.586  -2.654  0.00  0.00     0.002 C 
BRANCH  29  30
ATOM     30  C17 NON d   1     -51.993  17.044  -2.030  0.00  0.00     0.009 C 
BRANCH  30  31
ATOM     31  C18 NON d   1     -53.220  16.371  -2.653  0.00  0.00     0.105 C 
BRANCH  31  32
ATOM     32  C19 NON d   1     -54.437  17.270  -2.787  0.00  0.00     0.240 C 
ATOM     33  O3  NON d   1     -54.891  17.630  -3.867  0.00  0.00    -0.271 OA
ATOM     34  N6  NON d   1     -54.919  17.653  -1.553  0.00  0.00    -0.237 N 
ATOM     35  H32 NON d   1     -54.573  17.281  -0.676  0.00  0.00     0.197 HD
BRANCH  34  36
ATOM     36  O4  NON d   1     -56.124  18.377  -1.509  0.00  0.00    -0.287 OA
ATOM     37  H33 NON d   1     -56.440  18.320  -2.430  0.00  0.00     0.244 HD
ENDBRANCH  34  36
ENDBRANCH  31  32
ENDBRANCH  30  31
ENDBRANCH  29  30
ENDBRANCH  28  29
ENDBRANCH  27  28
ENDBRANCH   6  27
TORSDOF 12
ENDMDL
MODEL 2
REMARK VINA RESULT:   -18.268      0.866      1.571
REMARK INTER + INTRA:         -23.180
REMARK INTER:                 -21.847
REMARK INTRA:                  -1.333
REMARK CONF_INDEPENDENT:        3.580
REMARK UNBOUND:                -1.333
REMARK  12 active torsions:
REMARK  status: ('A' for Active; 'I' for Inactive)
REMARK    1  A    between atoms: N1_2  and  C3_4 
REMARK    2  A    between atoms: C3_4  and  C4_5 
REMARK    3  A    between atoms: C4_5  and  C7_8 
REMARK    4  A    between atoms: C7_8  and  N2_9 
REMARK    5  A    between atoms: C11_14  and  C12_15 
REMARK       I    between atoms: C12_15  and  N4_17 
REMARK       I    between atoms: N4_17  and  C13_18 
REMARK       I    between atoms: C13_18  and  N5_20 
REMARK    6  A    between atoms: N5_20  and  C14_21 
REMARK    7  A    between atoms: C14_21  and  C15_22 
REMARK    8  A    between atoms: C15_22  and  C16_23 
REMARK    9  A    between atoms: C16_23  and  C17_24 
REMARK   10  A    between atoms: C17_24  and  C18_25 
REMARK   11  A    between atoms: C18_25  and  C19_26 
REMARK       I    between atoms: C19_26  and  N6_28 
REMARK   12  A    between atoms: N6_28  and  O4_29 
ROOT
ATOM      1  C12 NON d   1     -45.534  17.169  -5.097  0.00  0.00     0.259 C 
ATOM      2  O1  NON d   1     -45.936  17.632  -6.159  0.00  0.00    -0.267 OA
ATOM      3  N4  NON d   1     -46.297  16.329  -4.288  0.00  0.00    -0.275 N 
ATOM      4  C13 NON d   1     -47.475  15.719  -4.708  0.00  0.00     0.323 C 
ATOM      5  O2  NON d   1     -47.856  15.635  -5.869  0.00  0.00    -0.247 OA
ATOM      6  N5  NON d   1     -48.183  15.150  -3.650  0.00  0.00    -0.343 N 
ATOM      7  H20 NON d   1     -45.943  16.004  -3.411  0.00  0.00     0.173 HD
ATOM      8  H21 NON d   1     -48.079  15.632  -2.770  0.00  0.00     0.164 HD
ENDROOT
BRANCH   1   9
ATOM      9  C11 NON d   1     -44.163  17.629  -4.625  0.00  0.00     0.034 A 
ATOM     10  C10 NON d   1     -43.320  16.907  -3.766  0.00  0.00     0.051 A 
ATOM     11  C9  NON d   1     -42.099  17.486  -3.334  0.00  0.00     0.086 A 
ATOM     12  N3  NON d   1     -41.152  16.980  -2.475  0.00  0.00    -0.242 NA
ATOM     13  C22 NON d   1     -41.729  18.766  -3.752  0.00  0.00     0.064 A 
ATOM     14  C8  NON d   1     -40.269  17.938  -2.305  0.00  0.00     0.210 A 
ATOM     15  N2  NON d   1     -40.556  19.048  -3.056  0.00  0.00    -0.339 N 
ATOM     16  C21 NON d   1     -42.527  19.494  -4.641  0.00  0.00     0.033 A 
ATOM     17  C20 NON d   1     -43.735  18.901  -5.061  0.00  0.00     0.019 A 
BRANCH  15  18
ATOM     18  C7  NON d   1     -39.986  20.372  -2.824  0.00  0.00     0.140 C 
BRANCH  18  19
ATOM     19  C4  NON d   1     -38.420  20.649  -2.901  0.00  0.00    -0.007 C 
ATOM     20  C5  NON d   1     -38.280  21.653  -4.082  0.00  0.00     0.018 C 
ATOM     21  C6  NON d   1     -37.680  19.369  -3.294  0.00  0.00     0.018 C 
BRANCH  19  22
ATOM     22  C3  NON d   1     -37.852  21.438  -1.656  0.00  0.00     0.244 C 
BRANCH  22  23
ATOM     23  N1  NON d   1     -38.035  20.853  -0.258  0.00  0.00    -0.078 N 
ATOM     24  C1  NON d   1     -36.786  20.653   0.575  0.00  0.00     0.269 C 
ATOM     25  C2  NON d   1     -38.973  21.730   0.566  0.00  0.00     0.269 C 
ATOM     26  H4  NON d   1     -38.499  19.940  -0.340  0.00  0.00     0.279 HD
ENDBRANCH  22  23
ENDBRANCH  19  22
ENDBRANCH  18  19
ENDBRANCH  15  18
ENDBRANCH   1   9
BRANCH   6  27
ATOM     27  C14 NON d   1     -49.524  14.630  -3.918  0.00  0.00     0.124 C 
BRANCH  27  28
ATOM     28  C15 NON d   1     -50.625  15.143  -2.983  0.00  0.00     0.020 C 
BRANCH  28  29
ATOM     29  C16 NON d   1     -50.536  16.622  -2.576  0.00  0.00     0.002 C 
BRANCH  29  30
ATOM     30  C17 NON d   1     -51.849  17.191  -2.038  0.00  0.00     0.009 C 
BRANCH  30  31
ATOM     31  C18 NON d   1     -53.073  16.361  -2.436  0.00  0.00     0.105 C 
BRANCH  31  32
ATOM     32  C19 NON d   1     -54.381  17.132  -2.462  0.00  0.00     0.240 C 
ATOM     33  O3  NON d   1     -55.091  17.220  -3.457  0.00  0.00    -0.271 OA
ATOM     34  N6  NON d   1     -54.631  17.741  -1.250  0.00  0.00    -0.237 N 
ATOM     35  H32 NON d   1     -54.068  17.590  -0.420  0.00  0.00     0.197 HD
BRANCH  34  36
ATOM     36  O4  NON d   1     -55.871  18.381  -1.073  0.00  0.00    -0.287 OA
ATOM     37  H33 NON d   1     -56.428  17.954  -1.749  0.00  0.00     0.244 HD
ENDBRANCH  34  36
ENDBRANCH  31  32
ENDBRANCH  30  31
ENDBRANCH  29  30
ENDBRANCH  28  29
ENDBRANCH  27  28
ENDBRANCH   6  27
TORSDOF 12
ENDMDL
MODEL 3
REMARK VINA RESULT:   -17.761      1.008      2.049
REMARK INTER + INTRA:         -22.799
REMARK INTER:                 -21.340
REMARK INTRA:                  -1.459
REMARK CONF_INDEPENDENT:        3.580
REMARK UNBOUND:                -1.459
REMARK  12 active torsions:
REMARK  status: ('A' for Active; 'I' for Inactive)
REMARK    1  A    between atoms: N1_2  and  C3_4 
REMARK    2  A    between atoms: C3_4  and  C4_5 
REMARK    3  A    between atoms: C4_5  and  C7_8 
REMARK    4  A    between atoms: C7_8  and  N2_9 
REMARK    5  A    between atoms: C11_14  and  C12_15 
REMARK       I    between atoms: C12_15  and  N4_17 
REMARK       I    between atoms: N4_17  and  C13_18 
REMARK       I    between atoms: C13_18  and  N5_20 
REMARK    6  A    between atoms: N5_20  and  C14_21 
REMARK    7  A    between atoms: C14_21  and  C15_22 
REMARK    8  A    between atoms: C15_22  and  C16_23 
REMARK    9  A    between atoms: C16_23  and  C17_24 
REMARK   10  A    between atoms: C17_24  and  C18_25 
REMARK   11  A    between atoms: C18_25  and  C19_26 
REMARK       I    between atoms: C19_26  and  N6_28 
REMARK   12  A    between atoms: N6_28  and  O4_29 
ROOT
ATOM      1  C12 NON d   1     -45.525  17.158  -5.057  0.00  0.00     0.259 C 
ATOM      2  O1  NON d   1     -45.939  17.637  -6.107  0.00  0.00    -0.267 OA
ATOM      3  N4  NON d   1     -46.281  16.312  -4.248  0.00  0.00    -0.275 N 
ATOM      4  C13 NON d   1     -47.469  15.715  -4.659  0.00  0.00     0.323 C 
ATOM      5  O2  NON d   1     -47.868  15.649  -5.815  0.00  0.00    -0.247 OA
ATOM      6  N5  NON d   1     -48.165  15.136  -3.598  0.00  0.00    -0.343 N 
ATOM      7  H20 NON d   1     -45.917  15.974  -3.380  0.00  0.00     0.173 HD
ATOM      8  H21 NON d   1     -48.046  15.606  -2.713  0.00  0.00     0.164 HD
ENDROOT
BRANCH   1   9
ATOM      9  C11 NON d   1     -44.144  17.603  -4.599  0.00  0.00     0.034 A 
ATOM     10  C10 NON d   1     -43.310  16.883  -3.731  0.00  0.00     0.051 A 
ATOM     11  C9  NON d   1     -42.077  17.449  -3.314  0.00  0.00     0.086 A 
ATOM     12  N3  NON d   1     -41.135  16.942  -2.449  0.00  0.00    -0.242 NA
ATOM     13  C22 NON d   1     -41.687  18.715  -3.757  0.00  0.00     0.064 A 
ATOM     14  C8  NON d   1     -40.235  17.889  -2.301  0.00  0.00     0.210 A 
ATOM     15  N2  NON d   1     -40.507  18.989  -3.071  0.00  0.00    -0.339 N 
ATOM     16  C21 NON d   1     -42.477  19.439  -4.656  0.00  0.00     0.033 A 
ATOM     17  C20 NON d   1     -43.696  18.859  -5.060  0.00  0.00     0.019 A 
BRANCH  15  18
ATOM     18  C7  NON d   1     -39.914  20.308  -2.867  0.00  0.00     0.140 C 
BRANCH  18  19
ATOM     19  C4  NON d   1     -38.473  20.687  -3.427  0.00  0.00    -0.007 C 
ATOM     20  C5  NON d   1     -38.078  21.950  -2.607  0.00  0.00     0.018 C 
ATOM     21  C6  NON d   1     -38.573  21.104  -4.896  0.00  0.00     0.018 C 
BRANCH  19  22
ATOM     22  C3  NON d   1     -37.353  19.632  -3.068  0.00  0.00     0.244 C 
BRANCH  22  23
ATOM     23  N1  NON d   1     -37.352  18.990  -1.683  0.00  0.00    -0.078 N 
ATOM     24  C1  NON d   1     -36.808  17.582  -1.576  0.00  0.00     0.269 C 
ATOM     25  C2  NON d   1     -36.550  19.843  -0.704  0.00  0.00     0.269 C 
ATOM     26  H4  NON d   1     -38.315  18.976  -1.325  0.00  0.00     0.279 HD
ENDBRANCH  22  23
ENDBRANCH  19  22
ENDBRANCH  18  19
ENDBRANCH  15  18
ENDBRANCH   1   9
BRANCH   6  27
ATOM     27  C14 NON d   1     -49.513  14.629  -3.853  0.00  0.00     0.124 C 
BRANCH  27  28
ATOM     28  C15 NON d   1     -50.582  15.068  -2.845  0.00  0.00     0.020 C 
BRANCH  28  29
ATOM     29  C16 NON d   1     -50.445  16.494  -2.289  0.00  0.00     0.002 C 
BRANCH  29  30
ATOM     30  C17 NON d   1     -51.784  17.196  -2.065  0.00  0.00     0.009 C 
BRANCH  30  31
ATOM     31  C18 NON d   1     -52.989  16.328  -2.440  0.00  0.00     0.105 C 
BRANCH  31  32
ATOM     32  C19 NON d   1     -54.322  17.056  -2.431  0.00  0.00     0.240 C 
ATOM     33  O3  NON d   1     -55.113  17.023  -3.366  0.00  0.00    -0.271 OA
ATOM     34  N6  NON d   1     -54.494  17.779  -1.269  0.00  0.00    -0.237 N 
ATOM     35  H32 NON d   1     -53.860  17.730  -0.479  0.00  0.00     0.197 HD
BRANCH  34  36
ATOM     36  O4  NON d   1     -55.738  18.400  -1.053  0.00  0.00    -0.287 OA
ATOM     37  H33 NON d   1     -56.306  17.975  -1.722  0.00  0.00     0.244 HD
ENDBRANCH  34  36
ENDBRANCH  31  32
ENDBRANCH  30  31
ENDBRANCH  29  30
ENDBRANCH  28  29
ENDBRANCH  27  28
ENDBRANCH   6  27
TORSDOF 12
ENDMDL
MODEL 4
REMARK VINA RESULT:   -17.006      4.907      7.348
REMARK INTER + INTRA:         -22.265
REMARK INTER:                 -20.585
REMARK INTRA:                  -1.680
REMARK CONF_INDEPENDENT:        3.580
REMARK UNBOUND:                -1.680
REMARK  12 active torsions:
REMARK  status: ('A' for Active; 'I' for Inactive)
REMARK    1  A    between atoms: N1_2  and  C3_4 
REMARK    2  A    between atoms: C3_4  and  C4_5 
REMARK    3  A    between atoms: C4_5  and  C7_8 
REMARK    4  A    between atoms: C7_8  and  N2_9 
REMARK    5  A    between atoms: C11_14  and  C12_15 
REMARK       I    between atoms: C12_15  and  N4_17 
REMARK       I    between atoms: N4_17  and  C13_18 
REMARK       I    between atoms: C13_18  and  N5_20 
REMARK    6  A    between atoms: N5_20  and  C14_21 
REMARK    7  A    between atoms: C14_21  and  C15_22 
REMARK    8  A    between atoms: C15_22  and  C16_23 
REMARK    9  A    between atoms: C16_23  and  C17_24 
REMARK   10  A    between atoms: C17_24  and  C18_25 
REMARK   11  A    between atoms: C18_25  and  C19_26 
REMARK       I    between atoms: C19_26  and  N6_28 
REMARK   12  A    between atoms: N6_28  and  O4_29 
ROOT
ATOM      1  C12 NON d   1     -41.653  18.760  -5.655  0.00  0.00     0.259 C 
ATOM      2  O1  NON d   1     -41.033  17.716  -5.822  0.00  0.00    -0.267 OA
ATOM      3  N4  NON d   1     -42.916  18.816  -5.067  0.00  0.00    -0.275 N 
ATOM      4  C13 NON d   1     -43.491  17.753  -4.379  0.00  0.00     0.323 C 
ATOM      5  O2  NON d   1     -42.899  16.753  -3.993  0.00  0.00    -0.247 OA
ATOM      6  N5  NON d   1     -44.846  17.962  -4.118  0.00  0.00    -0.343 N 
ATOM      7  H20 NON d   1     -43.402  19.686  -4.984  0.00  0.00     0.173 HD
ATOM      8  H21 NON d   1     -45.326  18.510  -4.816  0.00  0.00     0.164 HD
ENDROOT
BRANCH   1   9
ATOM      9  C11 NON d   1     -41.023  20.028  -6.210  0.00  0.00     0.034 A 
ATOM     10  C10 NON d   1     -40.420  21.034  -5.441  0.00  0.00     0.051 A 
ATOM     11  C9  NON d   1     -39.944  22.210  -6.076  0.00  0.00     0.086 A 
ATOM     12  N3  NON d   1     -39.360  23.324  -5.520  0.00  0.00    -0.242 NA
ATOM     13  C22 NON d   1     -40.070  22.378  -7.457  0.00  0.00     0.064 A 
ATOM     14  C8  NON d   1     -39.203  24.180  -6.505  0.00  0.00     0.210 A 
ATOM     15  N2  NON d   1     -39.609  23.667  -7.709  0.00  0.00    -0.339 N 
ATOM     16  C21 NON d   1     -40.629  21.374  -8.256  0.00  0.00     0.033 A 
ATOM     17  C20 NON d   1     -41.095  20.213  -7.608  0.00  0.00     0.019 A 
BRANCH  15  18
ATOM     18  C7  NON d   1     -39.890  24.468  -8.896  0.00  0.00     0.140 C 
BRANCH  18  19
ATOM     19  C4  NON d   1     -39.154  24.216 -10.285  0.00  0.00    -0.007 C 
ATOM     20  C5  NON d   1     -38.602  22.767 -10.153  0.00  0.00     0.018 C 
ATOM     21  C6  NON d   1     -37.953  25.156 -10.421  0.00  0.00     0.018 C 
BRANCH  19  22
ATOM     22  C3  NON d   1     -40.135  24.143 -11.521  0.00  0.00     0.244 C 
BRANCH  22  23
ATOM     23  N1  NON d   1     -40.706  25.436 -12.095  0.00  0.00    -0.078 N 
ATOM     24  C1  NON d   1     -39.714  26.491 -12.538  0.00  0.00     0.269 C 
ATOM     25  C2  NON d   1     -41.590  25.136 -13.302  0.00  0.00     0.269 C 
ATOM     26  H4  NON d   1     -41.320  25.867 -11.394  0.00  0.00     0.279 HD
ENDBRANCH  22  23
ENDBRANCH  19  22
ENDBRANCH  18  19
ENDBRANCH  15  18
ENDBRANCH   1   9
BRANCH   6  27
ATOM     27  C14 NON d   1     -45.619  16.853  -3.559  0.00  0.00     0.124 C 
BRANCH  27  28
ATOM     28  C15 NON d   1     -46.896  17.255  -2.811  0.00  0.00     0.020 C 
BRANCH  28  29
ATOM     29  C16 NON d   1     -47.931  16.142  -2.590  0.00  0.00     0.002 C 
BRANCH  29  30
ATOM     30  C17 NON d   1     -49.041  16.118  -3.641  0.00  0.00     0.009 C 
BRANCH  30  31
ATOM     31  C18 NON d   1     -48.694  15.259  -4.861  0.00  0.00     0.105 C 
BRANCH  31  32
ATOM     32  C19 NON d   1     -47.506  15.754  -5.668  0.00  0.00     0.240 C 
ATOM     33  O3  NON d   1     -46.693  15.006  -6.197  0.00  0.00    -0.271 OA
ATOM     34  N6  NON d   1     -47.447  17.132  -5.684  0.00  0.00    -0.237 N 
ATOM     35  H32 NON d   1     -48.173  17.729  -5.303  0.00  0.00     0.197 HD
BRANCH  34  36
ATOM     36  O4  NON d   1     -46.480  17.744  -6.502  0.00  0.00    -0.287 OA
ATOM     37  H33 NON d   1     -46.318  17.066  -7.183  0.00  0.00     0.244 HD
ENDBRANCH  34  36
ENDBRANCH  31  32
ENDBRANCH  30  31
ENDBRANCH  29  30
ENDBRANCH  28  29
ENDBRANCH  27  28
ENDBRANCH   6  27
TORSDOF 12
ENDMDL
MODEL 5
REMARK VINA RESULT:   -17.004      1.475      2.848
REMARK INTER + INTRA:         -22.271
REMARK INTER:                 -20.583
REMARK INTRA:                  -1.688
REMARK CONF_INDEPENDENT:        3.580
REMARK UNBOUND:                -1.688
REMARK  12 active torsions:
REMARK  status: ('A' for Active; 'I' for Inactive)
REMARK    1  A    between atoms: N1_2  and  C3_4 
REMARK    2  A    between atoms: C3_4  and  C4_5 
REMARK    3  A    between atoms: C4_5  and  C7_8 
REMARK    4  A    between atoms: C7_8  and  N2_9 
REMARK    5  A    between atoms: C11_14  and  C12_15 
REMARK       I    between atoms: C12_15  and  N4_17 
REMARK       I    between atoms: N4_17  and  C13_18 
REMARK       I    between atoms: C13_18  and  N5_20 
REMARK    6  A    between atoms: N5_20  and  C14_21 
REMARK    7  A    between atoms: C14_21  and  C15_22 
REMARK    8  A    between atoms: C15_22  and  C16_23 
REMARK    9  A    between atoms: C16_23  and  C17_24 
REMARK   10  A    between atoms: C17_24  and  C18_25 
REMARK   11  A    between atoms: C18_25  and  C19_26 
REMARK       I    between atoms: C19_26  and  N6_28 
REMARK   12  A    between atoms: N6_28  and  O4_29 
ROOT
ATOM      1  C12 NON d   1     -45.534  17.166  -5.083  0.00  0.00     0.259 C 
ATOM      2  O1  NON d   1     -45.953  17.624  -6.140  0.00  0.00    -0.267 OA
ATOM      3  N4  NON d   1     -46.285  16.331  -4.258  0.00  0.00    -0.275 N 
ATOM      4  C13 NON d   1     -47.470  15.721  -4.656  0.00  0.00     0.323 C 
ATOM      5  O2  NON d   1     -47.871  15.632  -5.810  0.00  0.00    -0.247 OA
ATOM      6  N5  NON d   1     -48.162  15.158  -3.583  0.00  0.00    -0.343 N 
ATOM      7  H20 NON d   1     -45.917  16.010  -3.385  0.00  0.00     0.173 HD
ATOM      8  H21 NON d   1     -48.043  15.644  -2.707  0.00  0.00     0.164 HD
ENDROOT
BRANCH   1   9
ATOM      9  C11 NON d   1     -44.155  17.626  -4.635  0.00  0.00     0.034 A 
ATOM     10  C10 NON d   1     -43.311  16.920  -3.765  0.00  0.00     0.051 A 
ATOM     11  C9  NON d   1     -42.081  17.499  -3.359  0.00  0.00     0.086 A 
ATOM     12  N3  NON d   1     -41.130  17.007  -2.495  0.00  0.00    -0.242 NA
ATOM     13  C22 NON d   1     -41.703  18.764  -3.813  0.00  0.00     0.064 A 
ATOM     14  C8  NON d   1     -40.238  17.962  -2.359  0.00  0.00     0.210 A 
ATOM     15  N2  NON d   1     -40.522  19.053  -3.135  0.00  0.00    -0.339 N 
ATOM     16  C21 NON d   1     -42.503  19.475  -4.714  0.00  0.00     0.033 A 
ATOM     17  C20 NON d   1     -43.719  18.882  -5.108  0.00  0.00     0.019 A 
BRANCH  15  18
ATOM     18  C7  NON d   1     -39.939  20.378  -2.944  0.00  0.00     0.140 C 
BRANCH  18  19
ATOM     19  C4  NON d   1     -39.698  21.384  -4.155  0.00  0.00    -0.007 C 
ATOM     20  C5  NON d   1     -38.835  22.517  -3.528  0.00  0.00     0.018 C 
ATOM     21  C6  NON d   1     -41.026  22.005  -4.593  0.00  0.00     0.018 C 
BRANCH  19  22
ATOM     22  C3  NON d   1     -38.784  20.793  -5.300  0.00  0.00     0.244 C 
BRANCH  22  23
ATOM     23  N1  NON d   1     -39.164  19.462  -5.943  0.00  0.00    -0.078 N 
ATOM     24  C1  NON d   1     -40.152  19.506  -7.089  0.00  0.00     0.269 C 
ATOM     25  C2  NON d   1     -37.919  18.752  -6.467  0.00  0.00     0.269 C 
ATOM     26  H4  NON d   1     -39.559  18.847  -5.220  0.00  0.00     0.279 HD
ENDBRANCH  22  23
ENDBRANCH  19  22
ENDBRANCH  18  19
ENDBRANCH  15  18
ENDBRANCH   1   9
BRANCH   6  27
ATOM     27  C14 NON d   1     -49.508  14.639  -3.828  0.00  0.00     0.124 C 
BRANCH  27  28
ATOM     28  C15 NON d   1     -50.595  15.162  -2.881  0.00  0.00     0.020 C 
BRANCH  28  29
ATOM     29  C16 NON d   1     -50.540  16.661  -2.548  0.00  0.00     0.002 C 
BRANCH  29  30
ATOM     30  C17 NON d   1     -51.869  17.227  -2.045  0.00  0.00     0.009 C 
BRANCH  30  31
ATOM     31  C18 NON d   1     -53.077  16.380  -2.457  0.00  0.00     0.105 C 
BRANCH  31  32
ATOM     32  C19 NON d   1     -54.388  17.144  -2.535  0.00  0.00     0.240 C 
ATOM     33  O3  NON d   1     -55.053  17.235  -3.561  0.00  0.00    -0.271 OA
ATOM     34  N6  NON d   1     -54.695  17.744  -1.332  0.00  0.00    -0.237 N 
ATOM     35  H32 NON d   1     -54.169  17.591  -0.479  0.00  0.00     0.197 HD
BRANCH  34  36
ATOM     36  O4  NON d   1     -55.946  18.375  -1.207  0.00  0.00    -0.287 OA
ATOM     37  H33 NON d   1     -56.381  18.155  -2.051  0.00  0.00     0.244 HD
ENDBRANCH  34  36
ENDBRANCH  31  32
ENDBRANCH  30  31
ENDBRANCH  29  30
ENDBRANCH  28  29
ENDBRANCH  27  28
ENDBRANCH   6  27
TORSDOF 12
ENDMDL
MODEL 6
REMARK VINA RESULT:   -16.337      1.579      2.334
REMARK INTER + INTRA:         -20.736
REMARK INTER:                 -19.917
REMARK INTRA:                  -0.819
REMARK CONF_INDEPENDENT:        3.580
REMARK UNBOUND:                -0.819
REMARK  12 active torsions:
REMARK  status: ('A' for Active; 'I' for Inactive)
REMARK    1  A    between atoms: N1_2  and  C3_4 
REMARK    2  A    between atoms: C3_4  and  C4_5 
REMARK    3  A    between atoms: C4_5  and  C7_8 
REMARK    4  A    between atoms: C7_8  and  N2_9 
REMARK    5  A    between atoms: C11_14  and  C12_15 
REMARK       I    between atoms: C12_15  and  N4_17 
REMARK       I    between atoms: N4_17  and  C13_18 
REMARK       I    between atoms: C13_18  and  N5_20 
REMARK    6  A    between atoms: N5_20  and  C14_21 
REMARK    7  A    between atoms: C14_21  and  C15_22 
REMARK    8  A    between atoms: C15_22  and  C16_23 
REMARK    9  A    between atoms: C16_23  and  C17_24 
REMARK   10  A    between atoms: C17_24  and  C18_25 
REMARK   11  A    between atoms: C18_25  and  C19_26 
REMARK       I    between atoms: C19_26  and  N6_28 
REMARK   12  A    between atoms: N6_28  and  O4_29 
ROOT
ATOM      1  C12 NON d   1     -45.524  17.202  -5.089  0.00  0.00     0.259 C 
ATOM      2  O1  NON d   1     -45.938  17.626  -6.163  0.00  0.00    -0.267 OA
ATOM      3  N4  NON d   1     -46.266  16.369  -4.255  0.00  0.00    -0.275 N 
ATOM      4  C13 NON d   1     -47.431  15.722  -4.654  0.00  0.00     0.323 C 
ATOM      5  O2  NON d   1     -47.814  15.597  -5.811  0.00  0.00    -0.247 OA
ATOM      6  N5  NON d   1     -48.125  15.167  -3.578  0.00  0.00    -0.343 N 
ATOM      7  H20 NON d   1     -45.903  16.077  -3.370  0.00  0.00     0.173 HD
ATOM      8  H21 NON d   1     -48.029  15.676  -2.712  0.00  0.00     0.164 HD
ENDROOT
BRANCH   1   9
ATOM      9  C11 NON d   1     -44.162  17.705  -4.634  0.00  0.00     0.034 A 
ATOM     10  C10 NON d   1     -43.324  17.051  -3.719  0.00  0.00     0.051 A 
ATOM     11  C9  NON d   1     -42.113  17.668  -3.313  0.00  0.00     0.086 A 
ATOM     12  N3  NON d   1     -41.172  17.229  -2.411  0.00  0.00    -0.242 NA
ATOM     13  C22 NON d   1     -41.747  18.920  -3.813  0.00  0.00     0.064 A 
ATOM     14  C8  NON d   1     -40.298  18.205  -2.297  0.00  0.00     0.210 A 
ATOM     15  N2  NON d   1     -40.585  19.258  -3.125  0.00  0.00    -0.339 N 
ATOM     16  C21 NON d   1     -42.541  19.579  -4.758  0.00  0.00     0.033 A 
ATOM     17  C20 NON d   1     -43.739  18.948  -5.151  0.00  0.00     0.019 A 
BRANCH  15  18
ATOM     18  C7  NON d   1     -40.029  20.600  -2.977  0.00  0.00     0.140 C 
BRANCH  18  19
ATOM     19  C4  NON d   1     -39.024  21.225  -4.042  0.00  0.00    -0.007 C 
ATOM     20  C5  NON d   1     -39.081  20.226  -5.235  0.00  0.00     0.018 C 
ATOM     21  C6  NON d   1     -37.596  21.204  -3.492  0.00  0.00     0.018 C 
BRANCH  19  22
ATOM     22  C3  NON d   1     -39.521  22.591  -4.662  0.00  0.00     0.244 C 
BRANCH  22  23
ATOM     23  N1  NON d   1     -39.677  23.806  -3.752  0.00  0.00    -0.078 N 
ATOM     24  C1  NON d   1     -41.049  24.441  -3.678  0.00  0.00     0.269 C 
ATOM     25  C2  NON d   1     -39.284  23.451  -2.321  0.00  0.00     0.269 C 
ATOM     26  H4  NON d   1     -39.017  24.533  -4.055  0.00  0.00     0.279 HD
ENDBRANCH  22  23
ENDBRANCH  19  22
ENDBRANCH  18  19
ENDBRANCH  15  18
ENDBRANCH   1   9
BRANCH   6  27
ATOM     27  C14 NON d   1     -49.455  14.611  -3.828  0.00  0.00     0.124 C 
BRANCH  27  28
ATOM     28  C15 NON d   1     -50.532  15.005  -2.811  0.00  0.00     0.020 C 
BRANCH  28  29
ATOM     29  C16 NON d   1     -50.394  16.400  -2.183  0.00  0.00     0.002 C 
BRANCH  29  30
ATOM     30  C17 NON d   1     -51.561  17.336  -2.501  0.00  0.00     0.009 C 
BRANCH  30  31
ATOM     31  C18 NON d   1     -52.463  17.605  -1.293  0.00  0.00     0.105 C 
BRANCH  31  32
ATOM     32  C19 NON d   1     -53.949  17.634  -1.606  0.00  0.00     0.240 C 
ATOM     33  O3  NON d   1     -54.799  17.989  -0.799  0.00  0.00    -0.271 OA
ATOM     34  N6  NON d   1     -54.205  17.171  -2.880  0.00  0.00    -0.237 N 
ATOM     35  H32 NON d   1     -53.479  16.955  -3.554  0.00  0.00     0.197 HD
BRANCH  34  36
ATOM     36  O4  NON d   1     -55.522  17.263  -3.366  0.00  0.00    -0.287 OA
ATOM     37  H33 NON d   1     -56.022  16.722  -2.727  0.00  0.00     0.244 HD
ENDBRANCH  34  36
ENDBRANCH  31  32
ENDBRANCH  30  31
ENDBRANCH  29  30
ENDBRANCH  28  29
ENDBRANCH  27  28
ENDBRANCH   6  27
TORSDOF 12
ENDMDL
MODEL 7
REMARK VINA RESULT:   -16.276      4.771      7.253
REMARK INTER + INTRA:         -21.866
REMARK INTER:                 -19.855
REMARK INTRA:                  -2.011
REMARK CONF_INDEPENDENT:        3.580
REMARK UNBOUND:                -2.011
REMARK  12 active torsions:
REMARK  status: ('A' for Active; 'I' for Inactive)
REMARK    1  A    between atoms: N1_2  and  C3_4 
REMARK    2  A    between atoms: C3_4  and  C4_5 
REMARK    3  A    between atoms: C4_5  and  C7_8 
REMARK    4  A    between atoms: C7_8  and  N2_9 
REMARK    5  A    between atoms: C11_14  and  C12_15 
REMARK       I    between atoms: C12_15  and  N4_17 
REMARK       I    between atoms: N4_17  and  C13_18 
REMARK       I    between atoms: C13_18  and  N5_20 
REMARK    6  A    between atoms: N5_20  and  C14_21 
REMARK    7  A    between atoms: C14_21  and  C15_22 
REMARK    8  A    between atoms: C15_22  and  C16_23 
REMARK    9  A    between atoms: C16_23  and  C17_24 
REMARK   10  A    between atoms: C17_24  and  C18_25 
REMARK   11  A    between atoms: C18_25  and  C19_26 
REMARK       I    between atoms: C19_26  and  N6_28 
REMARK   12  A    between atoms: N6_28  and  O4_29 
ROOT
ATOM      1  C12 NON d   1     -41.278  18.404  -5.167  0.00  0.00     0.259 C 
ATOM      2  O1  NON d   1     -40.530  17.859  -4.362  0.00  0.00    -0.267 OA
ATOM      3  N4  NON d   1     -42.660  18.223  -5.175  0.00  0.00    -0.275 N 
ATOM      4  C13 NON d   1     -43.363  17.628  -4.133  0.00  0.00     0.323 C 
ATOM      5  O2  NON d   1     -42.924  17.418  -3.008  0.00  0.00    -0.247 OA
ATOM      6  N5  NON d   1     -44.678  17.325  -4.486  0.00  0.00    -0.343 N 
ATOM      7  H20 NON d   1     -43.228  18.658  -5.874  0.00  0.00     0.173 HD
ATOM      8  H21 NON d   1     -44.807  17.093  -5.459  0.00  0.00     0.164 HD
ENDROOT
BRANCH   1   9
ATOM      9  C11 NON d   1     -40.621  19.242  -6.254  0.00  0.00     0.034 A 
ATOM     10  C10 NON d   1     -39.766  18.747  -7.249  0.00  0.00     0.051 A 
ATOM     11  C9  NON d   1     -39.150  19.649  -8.156  0.00  0.00     0.086 A 
ATOM     12  N3  NON d   1     -38.260  19.389  -9.172  0.00  0.00    -0.242 NA
ATOM     13  C22 NON d   1     -39.385  21.022  -8.066  0.00  0.00     0.064 A 
ATOM     14  C8  NON d   1     -37.898  20.562  -9.642  0.00  0.00     0.210 A 
ATOM     15  N2  NON d   1     -38.547  21.595  -9.020  0.00  0.00    -0.339 N 
ATOM     16  C21 NON d   1     -40.266  21.542  -7.111  0.00  0.00     0.033 A 
ATOM     17  C20 NON d   1     -40.869  20.631  -6.222  0.00  0.00     0.019 A 
BRANCH  15  18
ATOM     18  C7  NON d   1     -38.115  22.989  -9.063  0.00  0.00     0.140 C 
BRANCH  18  19
ATOM     19  C4  NON d   1     -39.035  24.145  -9.656  0.00  0.00    -0.007 C 
ATOM     20  C5  NON d   1     -38.351  25.452  -9.160  0.00  0.00     0.018 C 
ATOM     21  C6  NON d   1     -40.428  24.085  -9.025  0.00  0.00     0.018 C 
BRANCH  19  22
ATOM     22  C3  NON d   1     -38.979  24.257 -11.231  0.00  0.00     0.244 C 
BRANCH  22  23
ATOM     23  N1  NON d   1     -40.022  23.519 -12.066  0.00  0.00    -0.078 N 
ATOM     24  C1  NON d   1     -41.075  24.359 -12.756  0.00  0.00     0.269 C 
ATOM     25  C2  NON d   1     -39.341  22.693 -13.155  0.00  0.00     0.269 C 
ATOM     26  H4  NON d   1     -40.512  22.845 -11.464  0.00  0.00     0.279 HD
ENDBRANCH  22  23
ENDBRANCH  19  22
ENDBRANCH  18  19
ENDBRANCH  15  18
ENDBRANCH   1   9
BRANCH   6  27
ATOM     27  C14 NON d   1     -45.480  16.538  -3.549  0.00  0.00     0.124 C 
BRANCH  27  28
ATOM     28  C15 NON d   1     -46.736  17.234  -3.014  0.00  0.00     0.020 C 
BRANCH  28  29
ATOM     29  C16 NON d   1     -47.892  16.315  -2.590  0.00  0.00     0.002 C 
BRANCH  29  30
ATOM     30  C17 NON d   1     -49.035  16.256  -3.604  0.00  0.00     0.009 C 
BRANCH  30  31
ATOM     31  C18 NON d   1     -48.725  15.358  -4.806  0.00  0.00     0.105 C 
BRANCH  31  32
ATOM     32  C19 NON d   1     -47.545  15.811  -5.648  0.00  0.00     0.240 C 
ATOM     33  O3  NON d   1     -46.762  15.034  -6.182  0.00  0.00    -0.271 OA
ATOM     34  N6  NON d   1     -47.453  17.186  -5.689  0.00  0.00    -0.237 N 
ATOM     35  H32 NON d   1     -48.156  17.807  -5.303  0.00  0.00     0.197 HD
BRANCH  34  36
ATOM     36  O4  NON d   1     -46.491  17.760  -6.540  0.00  0.00    -0.287 OA
ATOM     37  H33 NON d   1     -46.308  17.040  -7.171  0.00  0.00     0.244 HD
ENDBRANCH  34  36
ENDBRANCH  31  32
ENDBRANCH  30  31
ENDBRANCH  29  30
ENDBRANCH  28  29
ENDBRANCH  27  28
ENDBRANCH   6  27
TORSDOF 12
ENDMDL
MODEL 8
REMARK VINA RESULT:   -15.726      7.005     10.141
REMARK INTER + INTRA:         -20.868
REMARK INTER:                 -19.306
REMARK INTRA:                  -1.562
REMARK CONF_INDEPENDENT:        3.580
REMARK UNBOUND:                -1.562
REMARK  12 active torsions:
REMARK  status: ('A' for Active; 'I' for Inactive)
REMARK    1  A    between atoms: N1_2  and  C3_4 
REMARK    2  A    between atoms: C3_4  and  C4_5 
REMARK    3  A    between atoms: C4_5  and  C7_8 
REMARK    4  A    between atoms: C7_8  and  N2_9 
REMARK    5  A    between atoms: C11_14  and  C12_15 
REMARK       I    between atoms: C12_15  and  N4_17 
REMARK       I    between atoms: N4_17  and  C13_18 
REMARK       I    between atoms: C13_18  and  N5_20 
REMARK    6  A    between atoms: N5_20  and  C14_21 
REMARK    7  A    between atoms: C14_21  and  C15_22 
REMARK    8  A    between atoms: C15_22  and  C16_23 
REMARK    9  A    between atoms: C16_23  and  C17_24 
REMARK   10  A    between atoms: C17_24  and  C18_25 
REMARK   11  A    between atoms: C18_25  and  C19_26 
REMARK       I    between atoms: C19_26  and  N6_28 
REMARK   12  A    between atoms: N6_28  and  O4_29 
ROOT
ATOM      1  C12 NON d   1     -40.258  20.452  -8.414  0.00  0.00     0.259 C 
ATOM      2  O1  NON d   1     -40.871  19.595  -9.039  0.00  0.00    -0.267 OA
ATOM      3  N4  NON d   1     -39.962  20.348  -7.056  0.00  0.00    -0.275 N 
ATOM      4  C13 NON d   1     -40.094  19.169  -6.329  0.00  0.00     0.323 C 
ATOM      5  O2  NON d   1     -40.239  18.051  -6.809  0.00  0.00    -0.247 OA
ATOM      6  N5  NON d   1     -39.995  19.381  -4.954  0.00  0.00    -0.343 N 
ATOM      7  H20 NON d   1     -39.491  21.089  -6.577  0.00  0.00     0.173 HD
ATOM      8  H21 NON d   1     -40.337  20.278  -4.643  0.00  0.00     0.164 HD
ENDROOT
BRANCH   1   9
ATOM      9  C11 NON d   1     -39.893  21.722  -9.169  0.00  0.00     0.034 A 
ATOM     10  C10 NON d   1     -40.317  23.015  -8.828  0.00  0.00     0.051 A 
ATOM     11  C9  NON d   1     -39.975  24.108  -9.666  0.00  0.00     0.086 A 
ATOM     12  N3  NON d   1     -40.312  25.436  -9.544  0.00  0.00    -0.242 NA
ATOM     13  C22 NON d   1     -39.223  23.910 -10.826  0.00  0.00     0.064 A 
ATOM     14  C8  NON d   1     -39.854  26.025 -10.626  0.00  0.00     0.210 A 
ATOM     15  N2  NON d   1     -39.178  25.158 -11.443  0.00  0.00    -0.339 N 
ATOM     16  C21 NON d   1     -38.750  22.639 -11.170  0.00  0.00     0.033 A 
ATOM     17  C20 NON d   1     -39.098  21.567 -10.325  0.00  0.00     0.019 A 
BRANCH  15  18
ATOM     18  C7  NON d   1     -38.870  25.415 -12.847  0.00  0.00     0.140 C 
BRANCH  18  19
ATOM     19  C4  NON d   1     -39.929  25.165 -14.009  0.00  0.00    -0.007 C 
ATOM     20  C5  NON d   1     -39.475  23.816 -14.639  0.00  0.00     0.018 C 
ATOM     21  C6  NON d   1     -39.794  26.245 -15.084  0.00  0.00     0.018 C 
BRANCH  19  22
ATOM     22  C3  NON d   1     -41.391  24.870 -13.485  0.00  0.00     0.244 C 
BRANCH  22  23
ATOM     23  N1  NON d   1     -42.452  25.961 -13.590  0.00  0.00    -0.078 N 
ATOM     24  C1  NON d   1     -42.059  27.353 -13.140  0.00  0.00     0.269 C 
ATOM     25  C2  NON d   1     -42.938  26.091 -15.031  0.00  0.00     0.269 C 
ATOM     26  H4  NON d   1     -43.272  25.680 -13.038  0.00  0.00     0.279 HD
ENDBRANCH  22  23
ENDBRANCH  19  22
ENDBRANCH  18  19
ENDBRANCH  15  18
ENDBRANCH   1   9
BRANCH   6  27
ATOM     27  C14 NON d   1     -40.291  18.261  -4.061  0.00  0.00     0.124 C 
BRANCH  27  28
ATOM     28  C15 NON d   1     -41.707  18.246  -3.474  0.00  0.00     0.020 C 
BRANCH  28  29
ATOM     29  C16 NON d   1     -42.861  18.211  -4.488  0.00  0.00     0.002 C 
BRANCH  29  30
ATOM     30  C17 NON d   1     -43.617  16.882  -4.513  0.00  0.00     0.009 C 
BRANCH  30  31
ATOM     31  C18 NON d   1     -45.091  17.020  -4.122  0.00  0.00     0.105 C 
BRANCH  31  32
ATOM     32  C19 NON d   1     -46.070  16.855  -5.272  0.00  0.00     0.240 C 
ATOM     33  O3  NON d   1     -46.178  17.664  -6.186  0.00  0.00    -0.271 OA
ATOM     34  N6  NON d   1     -46.834  15.716  -5.123  0.00  0.00    -0.237 N 
ATOM     35  H32 NON d   1     -46.674  15.024  -4.400  0.00  0.00     0.197 HD
BRANCH  34  36
ATOM     36  O4  NON d   1     -47.693  15.353  -6.176  0.00  0.00    -0.287 OA
ATOM     37  H33 NON d   1     -47.335  15.861  -6.927  0.00  0.00     0.244 HD
ENDBRANCH  34  36
ENDBRANCH  31  32
ENDBRANCH  30  31
ENDBRANCH  29  30
ENDBRANCH  28  29
ENDBRANCH  27  28
ENDBRANCH   6  27
TORSDOF 12
ENDMDL
