REMARK  4 active torsions:
REMARK  status: ('A' for Active; 'I' for Inactive)
REMARK    1  A    between atoms: C2_4  and  C3_5 
REMARK    2  A    between atoms: C5_10  and  C6_11 
REMARK    3  A    between atoms: C9_14  and  C10_15 
REMARK       I    between atoms: C10_15  and  N3_17 
REMARK    4  A    between atoms: N3_17  and  O2_18 
ROOT
ATOM      1  C6  NON d   1      -0.166  -2.204   0.090  0.00  0.00     0.034 A 
ATOM      2  C7  NON d   1      -1.297  -3.002   0.117  0.00  0.00     0.023 A 
ATOM      3  C8  NON d   1      -2.511  -2.250   0.161  0.00  0.00     0.026 A 
ATOM      4  C9  NON d   1      -2.287  -0.889   0.160  0.00  0.00     0.075 A 
ATOM      5  S1  NON d   1      -0.620  -0.553   0.120  0.00  0.00    -0.083 SA
ENDROOT
BRANCH   1   6
ATOM      6  C5  NON d   1       1.208  -2.655   0.038  0.00  0.00     0.071 A 
ATOM      7  C4  NON d   1       1.690  -3.950   0.004  0.00  0.00     0.070 A 
ATOM      8  C2  NON d   1       3.106  -3.853  -0.071  0.00  0.00     0.162 A 
ATOM      9  N2  NON d   1       3.498  -2.565  -0.072  0.00  0.00    -0.168 NA
ATOM     10  N1  NON d   1       2.345  -1.876   0.000  0.00  0.00    -0.272 N 
ATOM     11  C1  NON d   1       2.345  -0.336   0.000  0.00  0.00     0.180 C 
BRANCH   8  12
ATOM     12  C3  NON d   1       4.063  -5.009  -0.132  0.00  0.00     0.436 C 
ATOM     13  F1  NON d   1       4.455  -5.403   1.109  0.00  0.00    -0.165 F 
ATOM     14  F2  NON d   1       5.188  -4.741  -0.843  0.00  0.00    -0.165 F 
ATOM     15  F3  NON d   1       3.489  -6.099  -0.714  0.00  0.00    -0.165 F 
ENDBRANCH   8  12
ENDBRANCH   1   6
BRANCH   4  16
ATOM     16  C10 NON d   1      -3.280   0.171   0.199  0.00  0.00     0.281 C 
ATOM     17  O1  NON d   1      -4.485  -0.034   0.340  0.00  0.00    -0.265 OA
ATOM     18  N3  NON d   1      -2.805   1.457   0.063  0.00  0.00    -0.233 N 
ATOM     19  H7  NON d   1      -1.831   1.691  -0.091  0.00  0.00     0.197 HD
BRANCH  18  20
ATOM     20  O2  NON d   1      -3.739   2.514   0.086  0.00  0.00    -0.287 OA
ATOM     21  H8  NON d   1      -4.586   2.041   0.233  0.00  0.00     0.244 HD
ENDBRANCH  18  20
ENDBRANCH   4  16
TORSDOF 4
