@<TRIPOS>MOLECULE
*****
 40 42 0 0 0
SMALL
USER_CHARGES

@<TRIPOS>ATOM
      1 O1          9.8194    5.6521   -0.0600 O.2     1  NONAME1    -0.2687
      2 C1          9.8430    4.4281   -0.0148 C.2     1  NONAME1     0.2593
      3 C2          8.6007    3.6020   -0.0199 C.2     1  NONAME1     0.0027
      4 C3          7.3840    4.1697   -0.0178 C.2     1  NONAME1    -0.0496
      5 C4          6.0918    3.4480   -0.0025 C.ar    1  NONAME1    -0.0228
      6 C5          6.0033    2.0446    0.0506 C.ar    1  NONAME1    -0.0525
      7 C6          4.7672    1.3784    0.0790 C.ar    1  NONAME1    -0.0337
      8 C7          3.5972    2.1403    0.0460 C.ar    1  NONAME1     0.0891
      9 N1          2.2934    1.7296    0.0574 N.ar    1  NONAME1    -0.2325
     10 C8          1.5687    2.8232   -0.0326 C.ar    1  NONAME1     0.1085
     11 C9          0.0786    2.9180   -0.1303 C.3     1  NONAME1     0.0094
     12 C10        -0.6447    1.5682   -0.0074 C.3     1  NONAME1    -0.0209
     13 C11        -0.6163    0.6131   -1.1812 C.ar    1  NONAME1    -0.0470
     14 C12        -1.3820   -0.5619   -1.0915 C.ar    1  NONAME1    -0.0586
     15 C13        -1.3754   -1.5083   -2.1180 C.ar    1  NONAME1    -0.0615
     16 C14        -0.6002   -1.2962   -3.2553 C.ar    1  NONAME1    -0.0617
     17 C15         0.1649   -0.1386   -3.3610 C.ar    1  NONAME1    -0.0615
     18 C16         0.1550    0.8094   -2.3338 C.ar    1  NONAME1    -0.0586
     19 N2          2.3770    3.9394   -0.0537 N.ar    1  NONAME1    -0.3418
     20 C17         3.6861    3.5232   -0.0187 C.ar    1  NONAME1     0.0668
     21 C18         4.9056    4.2104   -0.0383 C.ar    1  NONAME1    -0.0291
     22 N3         10.9684    3.6378    0.0382 N.am    1  NONAME1    -0.1940
     23 O2         12.1995    4.2760    0.2898 O.3     1  NONAME1    -0.2949
     24 H1          8.7353    2.5301   -0.0177 H       1  NONAME1     0.0670
     25 H2          7.3158    5.2575   -0.0213 H       1  NONAME1     0.0625
     26 H3          6.8929    1.4222    0.0756 H       1  NONAME1     0.0624
     27 H4          4.7120    0.2968    0.1187 H       1  NONAME1     0.0640
     28 H5         -0.2663    3.5634    0.6839 H       1  NONAME1     0.0346
     29 H6         -0.1984    3.4235   -1.0630 H       1  NONAME1     0.0346
     30 H7         -0.2719    1.0385    0.8772 H       1  NONAME1     0.0317
     31 H8         -1.7030    1.7997    0.1827 H       1  NONAME1     0.0317
     32 H9         -1.9820   -0.7548   -0.2041 H       1  NONAME1     0.0620
     33 H10        -1.9652   -2.4149   -2.0254 H       1  NONAME1     0.0618
     34 H11        -0.5803   -2.0366   -4.0491 H       1  NONAME1     0.0618
     35 H12         0.7883    0.0235   -4.2368 H       1  NONAME1     0.0618
     36 H13         0.7872    1.6847   -2.4461 H       1  NONAME1     0.0620
     37 H14         2.0633    4.8955   -0.1103 H       1  NONAME1     0.1671
     38 H15         4.9312    5.2972   -0.0812 H       1  NONAME1     0.0645
     39 H16        10.9329    2.6465    0.2397 H       1  NONAME1     0.1825
     40 H17        12.7533    3.9641   -0.4494 H       1  NONAME1     0.2414
@<TRIPOS>BOND
     1     1     2    2
     2     2     3    1
     3     3     4    2
     4     4     5    1
     5     5     6   ar
     6     6     7   ar
     7     7     8   ar
     8     8     9   ar
     9     9    10   ar
    10    10    11    1
    11    11    12    1
    12    12    13    1
    13    13    14   ar
    14    14    15   ar
    15    15    16   ar
    16    16    17   ar
    17    17    18   ar
    18    13    18   ar
    19    10    19   ar
    20    19    20   ar
    21     8    20   ar
    22    20    21   ar
    23     5    21   ar
    24     2    22   am
    25    22    23    1
    26     3    24    1
    27     4    25    1
    28     6    26    1
    29     7    27    1
    30    11    28    1
    31    11    29    1
    32    12    30    1
    33    12    31    1
    34    14    32    1
    35    15    33    1
    36    16    34    1
    37    17    35    1
    38    18    36    1
    39    19    37    1
    40    21    38    1
    41    22    39    1
    42    23    40    1
