REMARK  5 active torsions:
REMARK  status: ('A' for Active; 'I' for Inactive)
REMARK    1  A    between atoms: N1_1  and  C1_2 
REMARK    2  A    between atoms: C6_7  and  N2_8 
REMARK       I    between atoms: N2_8  and  C7_9 
REMARK    3  A    between atoms: C7_9  and  C8_11 
REMARK    4  A    between atoms: C11_14  and  C12_15 
REMARK    5  A    between atoms: C12_15  and  C13_16 
ROOT
ATOM      1  C8  NON d   1       0.086  -7.840  -0.211  0.00  0.00     0.032 A 
ATOM      2  C9  NON d   1      -0.953  -7.034   0.254  0.00  0.00     0.017 A 
ATOM      3  C10 NON d   1      -0.771  -5.655   0.369  0.00  0.00     0.008 A 
ATOM      4  C11 NON d   1       0.445  -5.036   0.013  0.00  0.00    -0.054 A 
ATOM      5  C22 NON d   1       1.452  -5.845  -0.521  0.00  0.00     0.008 A 
ATOM      6  C23 NON d   1       1.285  -7.238  -0.614  0.00  0.00     0.017 A 
ENDROOT
BRANCH   1   7
ATOM      7  C7  NON d   1      -0.155  -9.311  -0.295  0.00  0.00     0.256 C 
ATOM      8  N2  NON d   1       0.956 -10.107  -0.100  0.00  0.00    -0.321 N 
ATOM      9  H7  NON d   1       1.819  -9.665   0.190  0.00  0.00     0.169 HD
ATOM     10  O1  NON d   1      -1.298  -9.695  -0.515  0.00  0.00    -0.267 OA
BRANCH   8  11
ATOM     11  C6  NON d   1       1.021 -11.521  -0.094  0.00  0.00     0.056 A 
ATOM     12  C5  NON d   1      -0.100 -12.351  -0.182  0.00  0.00     0.031 A 
ATOM     13  C4  NON d   1       0.038 -13.738  -0.083  0.00  0.00     0.002 A 
ATOM     14  C3  NON d   1       1.293 -14.306   0.119  0.00  0.00     0.002 A 
ATOM     15  C2  NON d   1       2.420 -13.488   0.199  0.00  0.00     0.025 A 
ATOM     16  C1  NON d   1       2.302 -12.102   0.042  0.00  0.00     0.033 A 
BRANCH  16  17
ATOM     17  N1  NON d   1       3.459 -11.289   0.132  0.00  0.00    -0.301 NA
ATOM     18  H1  NON d   1       4.316 -11.834   0.088  0.00  0.00     0.124 HD
ATOM     19  H2  NON d   1       3.457 -10.583  -0.600  0.00  0.00     0.124 HD
ENDBRANCH  16  17
ENDBRANCH   8  11
ENDBRANCH   1   7
BRANCH   4  20
ATOM     20  C12 NON d   1       0.508  -3.533   0.209  0.00  0.00     0.083 C 
BRANCH  20  21
ATOM     21  C13 NON d   1       1.754  -2.699   0.100  0.00  0.00     0.019 C 
ATOM     22  C14 NON d   1       1.655  -1.411  -0.287  0.00  0.00     0.154 C 
ATOM     23  O2  NON d   1       2.654  -0.474  -0.332  0.00  0.00    -0.321 OA
ATOM     24  C15 NON d   1       3.932  -0.905  -0.099  0.00  0.00     0.089 A 
ATOM     25  C16 NON d   1       4.960   0.021  -0.280  0.00  0.00     0.038 A 
ATOM     26  C20 NON d   1       4.220  -2.210   0.291  0.00  0.00     0.048 A 
ATOM     27  C17 NON d   1       6.286  -0.378  -0.117  0.00  0.00     0.003 A 
ATOM     28  C18 NON d   1       6.582  -1.696   0.232  0.00  0.00     0.001 A 
ATOM     29  C19 NON d   1       5.550  -2.613   0.448  0.00  0.00     0.018 A 
ATOM     30  C21 NON d   1       3.100  -3.140   0.548  0.00  0.00     0.193 C 
ATOM     31  O3  NON d   1       3.302  -4.206   1.115  0.00  0.00    -0.287 OA
ENDBRANCH  20  21
ENDBRANCH   4  20
TORSDOF 5
