REMARK  18 active torsions:
REMARK  status: ('A' for Active; 'I' for Inactive)
REMARK       I    between atoms: C1_2  and  N1_3 
REMARK    1  A    between atoms: C1_2  and  O6_32 
REMARK    2  A    between atoms: C2_4  and  N1_3 
REMARK    3  A    between atoms: C2_4  and  C3_5 
REMARK    4  A    between atoms: C2_4  and  C14_19 
REMARK    5  A    between atoms: C3_5  and  C4_6 
REMARK    6  A    between atoms: C4_6  and  C5_7 
REMARK    7  A    between atoms: C5_7  and  C6_8 
REMARK    8  A    between atoms: C6_8  and  C7_9 
REMARK    9  A    between atoms: C7_9  and  C8_10 
REMARK   10  A    between atoms: C8_10  and  S1_11 
REMARK   11  A    between atoms: S1_11  and  S2_12 
REMARK   12  A    between atoms: S2_12  and  C9_13 
REMARK   13  A    between atoms: C14_19  and  O3_21 
REMARK   14  A    between atoms: O3_21  and  C15_22 
REMARK   15  A    between atoms: C15_22  and  C16_23 
REMARK   16  A    between atoms: C19_26  and  N3_27 
REMARK   17  A    between atoms: O6_32  and  C22_33 
REMARK   18  A    between atoms: C22_33  and  C23_34 
ROOT
ATOM      1  C2  NON d   1      25.275  -3.689   0.347  0.00  0.00     0.186 C 
ENDROOT
BRANCH   1   2
ATOM      2  N1  NON d   1      25.639  -5.016  -0.152  0.00  0.00    -0.323 N 
ATOM      3  C1  NON d   1      26.892  -5.293  -0.607  0.00  0.00     0.361 C 
ATOM      4  O1  NON d   1      27.608  -4.515  -1.214  0.00  0.00    -0.238 OA
ATOM      5  H1  NON d   1      25.234  -5.799   0.341  0.00  0.00     0.165 HD
BRANCH   3   6
ATOM      6  O6  NON d   1      27.252  -6.545  -0.226  0.00  0.00    -0.299 OA
BRANCH   6   7
ATOM      7  C22 NON d   1      28.661  -6.761  -0.376  0.00  0.00     0.219 C 
BRANCH   7   8
ATOM      8  C23 NON d   1      29.078  -8.198  -0.175  0.00  0.00    -0.034 A 
ATOM      9  C24 NON d   1      30.452  -8.485  -0.093  0.00  0.00     0.009 A 
ATOM     10  C25 NON d   1      30.902  -9.798   0.032  0.00  0.00     0.001 A 
ATOM     11  C26 NON d   1      29.982 -10.841   0.078  0.00  0.00     0.000 A 
ATOM     12  C27 NON d   1      28.616 -10.571   0.004  0.00  0.00     0.001 A 
ATOM     13  C28 NON d   1      28.164  -9.256  -0.124  0.00  0.00     0.009 A 
ENDBRANCH   7   8
ENDBRANCH   6   7
ENDBRANCH   3   6
ENDBRANCH   1   2
BRANCH   1  14
ATOM     14  C3  NON d   1      23.747  -3.459   0.280  0.00  0.00     0.035 C 
BRANCH  14  15
ATOM     15  C4  NON d   1      23.059  -3.728  -1.074  0.00  0.00     0.002 C 
BRANCH  15  16
ATOM     16  C5  NON d   1      22.659  -5.196  -1.265  0.00  0.00     0.000 C 
BRANCH  16  17
ATOM     17  C6  NON d   1      21.526  -5.432  -2.274  0.00  0.00     0.001 C 
BRANCH  17  18
ATOM     18  C7  NON d   1      21.911  -5.253  -3.747  0.00  0.00     0.011 C 
BRANCH  18  19
ATOM     19  C8  NON d   1      21.680  -3.838  -4.271  0.00  0.00     0.086 C 
BRANCH  19  20
ATOM     20  S1  NON d   1      22.333  -3.627  -5.964  0.00  0.00    -0.091 SA
BRANCH  20  21
ATOM     21  S2  NON d   1      20.697  -3.994  -7.158  0.00  0.00    -0.038 SA
BRANCH  21  22
ATOM     22  C9  NON d   1      20.706  -5.752  -7.495  0.00  0.00     0.103 A 
ATOM     23  C10 NON d   1      19.855  -6.232  -8.488  0.00  0.00     0.040 A 
ATOM     24  C11 NON d   1      19.808  -7.602  -8.735  0.00  0.00     0.004 A 
ATOM     25  C12 NON d   1      20.609  -8.454  -7.987  0.00  0.00     0.019 A 
ATOM     26  C13 NON d   1      21.433  -7.894  -7.027  0.00  0.00     0.118 A 
ATOM     27  N2  NON d   1      21.498  -6.571  -6.767  0.00  0.00    -0.253 NA
ENDBRANCH  21  22
ENDBRANCH  20  21
ENDBRANCH  19  20
ENDBRANCH  18  19
ENDBRANCH  17  18
ENDBRANCH  16  17
ENDBRANCH  15  16
ENDBRANCH  14  15
ENDBRANCH   1  14
BRANCH   1  28
ATOM     28  C14 NON d   1      26.051  -2.437  -0.147  0.00  0.00     0.282 C 
ATOM     29  O2  NON d   1      25.578  -1.532  -0.823  0.00  0.00    -0.263 OA
BRANCH  28  30
ATOM     30  O3  NON d   1      27.306  -2.423   0.407  0.00  0.00    -0.315 OA
BRANCH  30  31
ATOM     31  C15 NON d   1      28.125  -1.305   0.037  0.00  0.00     0.217 C 
BRANCH  31  32
ATOM     32  C16 NON d   1      29.613  -1.614   0.118  0.00  0.00    -0.034 A 
ATOM     33  C17 NON d   1      30.535  -0.554   0.034  0.00  0.00     0.012 A 
ATOM     34  C18 NON d   1      31.913  -0.800   0.023  0.00  0.00     0.037 A 
ATOM     35  C19 NON d   1      32.382  -2.117   0.088  0.00  0.00     0.102 A 
ATOM     36  C20 NON d   1      31.482  -3.183   0.177  0.00  0.00     0.037 A 
ATOM     37  C21 NON d   1      30.107  -2.924   0.194  0.00  0.00     0.012 A 
BRANCH  35  38
ATOM     38  N3  NON d   1      33.826  -2.384   0.051  0.00  0.00    -0.116 N 
ATOM     39  O4  NON d   1      34.593  -1.412  -0.015  0.00  0.00    -0.532 OA
ATOM     40  O5  NON d   1      34.196  -3.567   0.089  0.00  0.00    -0.532 OA
ENDBRANCH  35  38
ENDBRANCH  31  32
ENDBRANCH  30  31
ENDBRANCH  28  30
ENDBRANCH   1  28
TORSDOF 18
