@<TRIPOS>MOLECULE
*****
 40 41 0 0 0
SMALL
USER_CHARGES

@<TRIPOS>ATOM
      1 C1          2.6674    1.5400    0.0000 C.3     1  NONAME1     0.0789
      2 O1          2.6674    0.0000    0.0000 O.3     1  NONAME1    -0.4933
      3 C2          3.9818   -0.4124   -0.2521 C.ar    1  NONAME1     0.1412
      4 C3          5.0769    0.4742   -0.2764 C.ar    1  NONAME1    -0.0181
      5 C4          6.3506    0.0418   -0.6499 C.ar    1  NONAME1    -0.0582
      6 C5          6.5445   -1.2762   -1.0302 C.ar    1  NONAME1    -0.0598
      7 C6          5.4795   -2.1748   -0.9728 C.ar    1  NONAME1    -0.0369
      8 C7          4.2147   -1.7785   -0.5156 C.ar    1  NONAME1     0.0767
      9 N1          3.1540   -2.6882   -0.3327 N.am    1  NONAME1    -0.2664
     10 C8          3.0820   -4.0391   -0.3977 C.2     1  NONAME1     0.3042
     11 O2          1.9899   -4.5945   -0.5247 O.2     1  NONAME1    -0.2525
     12 N2          4.1893   -4.8200   -0.3234 N.am    1  NONAME1    -0.2950
     13 C9          5.0545   -4.8164    0.8476 C.3     1  NONAME1     0.0383
     14 C10         6.3256   -5.6030    0.6055 C.ar    1  NONAME1    -0.0302
     15 C11         7.5722   -4.9640    0.5717 C.ar    1  NONAME1    -0.0564
     16 C12         8.7487   -5.6984    0.3747 C.ar    1  NONAME1    -0.0493
     17 C13         8.7063   -7.0903    0.2028 C.ar    1  NONAME1     0.0387
     18 C14        10.0048   -7.8123    0.0352 C.2     1  NONAME1     0.2665
     19 O3         11.0799   -7.2177    0.1094 O.2     1  NONAME1    -0.2681
     20 N3          9.9654   -9.1695   -0.1880 N.am    1  NONAME1    -0.1935
     21 O4         11.2186   -9.8188   -0.2753 O.3     1  NONAME1    -0.2949
     22 C15         7.4627   -7.7310    0.2214 C.ar    1  NONAME1    -0.0493
     23 C16         6.2864   -6.9935    0.4230 C.ar    1  NONAME1    -0.0564
     24 H1          2.2841    1.6096   -1.0357 H       1  NONAME1     0.0660
     25 H2          2.6674    3.0800    0.0000 H       1  NONAME1     0.0660
     26 H3          1.8027    1.6019    0.6844 H       1  NONAME1     0.0660
     27 H4          4.9845    1.5227   -0.0120 H       1  NONAME1     0.0655
     28 H5          7.1806    0.7437   -0.6696 H       1  NONAME1     0.0619
     29 H6          7.5217   -1.6120   -1.3679 H       1  NONAME1     0.0618
     30 H7          5.6650   -3.1887   -1.3111 H       1  NONAME1     0.0637
     31 H8          2.2461   -2.2465   -0.2178 H       1  NONAME1     0.1565
     32 H9          3.9042   -5.7596   -0.5633 H       1  NONAME1     0.1506
     33 H10         4.4987   -5.2781    1.6731 H       1  NONAME1     0.0512
     34 H11         5.2723   -3.7947    1.1709 H       1  NONAME1     0.0512
     35 H12         7.6445   -3.8868    0.7094 H       1  NONAME1     0.0621
     36 H13         9.7048   -5.1760    0.3618 H       1  NONAME1     0.0625
     37 H14         9.1483   -9.7593   -0.2342 H       1  NONAME1     0.1825
     38 H15        11.8462   -9.0765   -0.1271 H       1  NONAME1     0.2414
     39 H16         7.3655   -8.8033    0.0935 H       1  NONAME1     0.0625
     40 H17         5.3340   -7.5206    0.4461 H       1  NONAME1     0.0621
@<TRIPOS>BOND
     1     1     2    1
     2     2     3    1
     3     3     4   ar
     4     4     5   ar
     5     5     6   ar
     6     6     7   ar
     7     7     8   ar
     8     3     8   ar
     9     8     9    1
    10     9    10   am
    11    10    11    2
    12    10    12   am
    13    12    13    1
    14    13    14    1
    15    14    15   ar
    16    15    16   ar
    17    16    17   ar
    18    17    18    1
    19    18    19    2
    20    18    20   am
    21    20    21    1
    22    17    22   ar
    23    22    23   ar
    24    14    23   ar
    25     1    24    1
    26     1    25    1
    27     1    26    1
    28     4    27    1
    29     5    28    1
    30     6    29    1
    31     7    30    1
    32     9    31    1
    33    12    32    1
    34    13    33    1
    35    13    34    1
    36    15    35    1
    37    16    36    1
    38    20    37    1
    39    21    38    1
    40    22    39    1
    41    23    40    1
