@<TRIPOS>MOLECULE
*****
 70 72 0 0 0
SMALL
USER_CHARGES

@<TRIPOS>ATOM
      1 O1         27.6084   -4.5151   -1.2136 O.2     1  NONAME1    -0.2265
      2 C1         26.8923   -5.2934   -0.6066 C.2     1  NONAME1     0.4012
      3 N1         25.6391   -5.0158   -0.1520 N.am    1  NONAME1    -0.2679
      4 C2         25.2747   -3.6891    0.3472 C.3     1  NONAME1     0.1232
      5 C3         23.7472   -3.4592    0.2796 C.3     1  NONAME1    -0.0240
      6 C4         23.0595   -3.7279   -1.0738 C.3     1  NONAME1    -0.0509
      7 C5         22.6592   -5.1961   -1.2650 C.3     1  NONAME1    -0.0530
      8 C6         21.5263   -5.4316   -2.2743 C.3     1  NONAME1    -0.0523
      9 C7         21.9113   -5.2532   -3.7466 C.3     1  NONAME1    -0.0432
     10 C8         21.6795   -3.8383   -4.2708 C.3     1  NONAME1     0.0043
     11 S1         22.3329   -3.6272   -5.9640 S.3     1  NONAME1    -0.0866
     12 S2         20.6965   -3.9939   -7.1577 S.3     1  NONAME1    -0.0372
     13 C9         20.7062   -5.7519   -7.4954 C.ar    1  NONAME1     0.1072
     14 C10        19.8549   -6.2317   -8.4880 C.ar    1  NONAME1    -0.0290
     15 C11        19.8076   -7.6020   -8.7352 C.ar    1  NONAME1    -0.0578
     16 C12        20.6091   -8.4537   -7.9872 C.ar    1  NONAME1    -0.0435
     17 C13        21.4332   -7.8944   -7.0265 C.ar    1  NONAME1     0.0289
     18 N2         21.4981   -6.5707   -6.7671 N.ar    1  NONAME1    -0.2480
     19 C14        26.0509   -2.4367   -0.1469 C.2     1  NONAME1     0.3280
     20 O2         25.5775   -1.5316   -0.8225 O.2     1  NONAME1    -0.2487
     21 O3         27.3064   -2.4234    0.4069 O.3     1  NONAME1    -0.4586
     22 C15        28.1253   -1.3048    0.0368 C.3     1  NONAME1     0.1176
     23 C16        29.6127   -1.6142    0.1176 C.ar    1  NONAME1    -0.0102
     24 C17        30.5348   -0.5543    0.0342 C.ar    1  NONAME1    -0.0532
     25 C18        31.9135   -0.8001    0.0234 C.ar    1  NONAME1    -0.0311
     26 C19        32.3824   -2.1169    0.0880 C.ar    1  NONAME1     0.1262
     27 N3         33.8262   -2.3841    0.0508 N.pl3   1  NONAME1     0.0564
     28 O4         34.5930   -1.4122   -0.0154 O.2     1  NONAME1    -0.1261
     29 O5         34.1960   -3.5671    0.0894 O.2     1  NONAME1    -0.1261
     30 C20        31.4823   -3.1830    0.1770 C.ar    1  NONAME1    -0.0311
     31 C21        30.1074   -2.9237    0.1939 C.ar    1  NONAME1    -0.0532
     32 O6         27.2522   -6.5445   -0.2259 O.3     1  NONAME1    -0.4456
     33 C22        28.6608   -6.7611   -0.3762 C.3     1  NONAME1     0.1191
     34 C23        29.0777   -8.1976   -0.1751 C.ar    1  NONAME1    -0.0103
     35 C24        30.4522   -8.4845   -0.0934 C.ar    1  NONAME1    -0.0554
     36 C25        30.9021   -9.7982    0.0318 C.ar    1  NONAME1    -0.0614
     37 C26        29.9821  -10.8412    0.0780 C.ar    1  NONAME1    -0.0617
     38 C27        28.6164  -10.5710    0.0044 C.ar    1  NONAME1    -0.0614
     39 C28        28.1641   -9.2559   -0.1244 C.ar    1  NONAME1    -0.0554
     40 H1         25.2337   -5.7991    0.3406 H       1  NONAME1     0.1528
     41 H2         25.5077   -3.7300    1.4217 H       1  NONAME1     0.0615
     42 H3         23.5387   -2.4179    0.5598 H       1  NONAME1     0.0288
     43 H4         23.2633   -4.0723    1.0509 H       1  NONAME1     0.0288
     44 H5         23.6942   -3.3927   -1.9008 H       1  NONAME1     0.0266
     45 H6         22.1475   -3.1179   -1.1015 H       1  NONAME1     0.0266
     46 H7         22.3163   -5.6002   -0.3044 H       1  NONAME1     0.0265
     47 H8         23.5315   -5.7903   -1.5574 H       1  NONAME1     0.0265
     48 H9         21.2113   -6.4766   -2.1488 H       1  NONAME1     0.0266
     49 H10        20.6515   -4.8205   -2.0225 H       1  NONAME1     0.0266
     50 H11        21.2799   -5.9395   -4.3214 H       1  NONAME1     0.0273
     51 H12        22.9504   -5.5682   -3.8996 H       1  NONAME1     0.0273
     52 H13        20.6158   -3.5777   -4.2392 H       1  NONAME1     0.0385
     53 H14        22.2020   -3.1111   -3.6457 H       1  NONAME1     0.0385
     54 H15        19.2295   -5.5560   -9.0627 H       1  NONAME1     0.0644
     55 H16        19.1476   -7.9987   -9.5014 H       1  NONAME1     0.0619
     56 H17        20.5929   -9.5258   -8.1473 H       1  NONAME1     0.0633
     57 H18        22.0816   -8.5155   -6.4148 H       1  NONAME1     0.0830
     58 H19        27.9092   -0.9756   -0.9858 H       1  NONAME1     0.0749
     59 H20        27.8993   -0.4951    0.7403 H       1  NONAME1     0.0749
     60 H21        30.1801    0.4709   -0.0396 H       1  NONAME1     0.0622
     61 H22        32.6002    0.0409   -0.0488 H       1  NONAME1     0.0640
     62 H23        31.8278   -4.2135    0.2203 H       1  NONAME1     0.0640
     63 H24        29.4218   -3.7637    0.2499 H       1  NONAME1     0.0622
     64 H25        29.1670   -6.1567    0.3873 H       1  NONAME1     0.0749
     65 H26        28.9961   -6.4547   -1.3746 H       1  NONAME1     0.0749
     66 H27        31.1843   -7.6803   -0.1400 H       1  NONAME1     0.0621
     67 H28        31.9678  -10.0063    0.0841 H       1  NONAME1     0.0618
     68 H29        30.3310  -11.8664    0.1662 H       1  NONAME1     0.0618
     69 H30        27.9019  -11.3899    0.0366 H       1  NONAME1     0.0618
     70 H31        27.0952   -9.0692   -0.1954 H       1  NONAME1     0.0621
@<TRIPOS>BOND
     1     1     2    2
     2     2     3   am
     3     4     3    1
     4     4     5    1
     5     5     6    1
     6     6     7    1
     7     7     8    1
     8     8     9    1
     9     9    10    1
    10    10    11    1
    11    11    12    1
    12    12    13    1
    13    13    14   ar
    14    14    15   ar
    15    15    16   ar
    16    16    17   ar
    17    17    18   ar
    18    13    18   ar
    19     4    19    1
    20    19    20    2
    21    19    21    1
    22    21    22    1
    23    22    23    1
    24    23    24   ar
    25    24    25   ar
    26    25    26   ar
    27    26    27    1
    28    27    28    2
    29    27    29    1
    30    26    30   ar
    31    30    31   ar
    32    23    31   ar
    33     2    32    1
    34    32    33    1
    35    33    34    1
    36    34    35   ar
    37    35    36   ar
    38    36    37   ar
    39    37    38   ar
    40    38    39   ar
    41    34    39   ar
    42     3    40    1
    43     4    41    1
    44     5    42    1
    45     5    43    1
    46     6    44    1
    47     6    45    1
    48     7    46    1
    49     7    47    1
    50     8    48    1
    51     8    49    1
    52     9    50    1
    53     9    51    1
    54    10    52    1
    55    10    53    1
    56    14    54    1
    57    15    55    1
    58    16    56    1
    59    17    57    1
    60    22    58    1
    61    22    59    1
    62    24    60    1
    63    25    61    1
    64    30    62    1
    65    31    63    1
    66    33    64    1
    67    33    65    1
    68    35    66    1
    69    36    67    1
    70    37    68    1
    71    38    69    1
    72    39    70    1
