REMARK  12 active torsions:
REMARK  status: ('A' for Active; 'I' for Inactive)
REMARK    1  A    between atoms: N1_2  and  C3_4 
REMARK    2  A    between atoms: C3_4  and  C4_5 
REMARK    3  A    between atoms: C4_5  and  C7_8 
REMARK    4  A    between atoms: C7_8  and  N2_9 
REMARK    5  A    between atoms: C11_14  and  C12_15 
REMARK       I    between atoms: C12_15  and  N4_17 
REMARK       I    between atoms: N4_17  and  C13_18 
REMARK       I    between atoms: C13_18  and  N5_20 
REMARK    6  A    between atoms: N5_20  and  C14_21 
REMARK    7  A    between atoms: C14_21  and  C15_22 
REMARK    8  A    between atoms: C15_22  and  C16_23 
REMARK    9  A    between atoms: C16_23  and  C17_24 
REMARK   10  A    between atoms: C17_24  and  C18_25 
REMARK   11  A    between atoms: C18_25  and  C19_26 
REMARK       I    between atoms: C19_26  and  N6_28 
REMARK   12  A    between atoms: N6_28  and  O4_29 
ROOT
ATOM      1  C12 NON d   1      -1.501   2.660  -0.019  0.00  0.00     0.259 C 
ATOM      2  O1  NON d   1      -1.711   1.459   0.110  0.00  0.00    -0.267 OA
ATOM      3  N4  NON d   1      -0.224   3.218  -0.038  0.00  0.00    -0.275 N 
ATOM      4  C13 NON d   1       0.940   2.469  -0.175  0.00  0.00     0.323 C 
ATOM      5  O2  NON d   1       0.994   1.299  -0.534  0.00  0.00    -0.247 OA
ATOM      6  N5  NON d   1       2.086   3.216   0.099  0.00  0.00    -0.343 N 
ATOM      7  H20 NON d   1      -0.100   4.208  -0.108  0.00  0.00     0.173 HD
ATOM      8  H21 NON d   1       1.958   3.940   0.790  0.00  0.00     0.164 HD
ENDROOT
BRANCH   1   9
ATOM      9  C11 NON d   1      -2.721   3.568  -0.068  0.00  0.00     0.034 A 
ATOM     10  C10 NON d   1      -2.685   4.970  -0.075  0.00  0.00     0.051 A 
ATOM     11  C9  NON d   1      -3.900   5.702  -0.037  0.00  0.00     0.086 A 
ATOM     12  N3  NON d   1      -4.095   7.063   0.000  0.00  0.00    -0.242 NA
ATOM     13  C22 NON d   1      -5.130   5.042   0.009  0.00  0.00     0.064 A 
ATOM     14  C8  NON d   1      -5.390   7.238   0.143  0.00  0.00     0.210 A 
ATOM     15  N2  NON d   1      -6.077   6.053   0.150  0.00  0.00    -0.339 N 
ATOM     16  C21 NON d   1      -5.200   3.645  -0.025  0.00  0.00     0.033 A 
ATOM     17  C20 NON d   1      -3.983   2.936  -0.065  0.00  0.00     0.019 A 
BRANCH  15  18
ATOM     18  C7  NON d   1      -7.444   5.893   0.637  0.00  0.00     0.140 C 
BRANCH  18  19
ATOM     19  C4  NON d   1      -8.712   6.238  -0.262  0.00  0.00    -0.007 C 
ATOM     20  C5  NON d   1      -9.824   5.300   0.292  0.00  0.00     0.018 C 
ATOM     21  C6  NON d   1      -8.451   5.835  -1.715  0.00  0.00     0.018 C 
BRANCH  19  22
ATOM     22  C3  NON d   1      -9.283   7.692  -0.025  0.00  0.00     0.244 C 
BRANCH  22  23
ATOM     23  N1  NON d   1      -9.435   8.634  -1.216  0.00  0.00    -0.078 N 
ATOM     24  C1  NON d   1     -10.524   8.311  -2.217  0.00  0.00     0.269 C 
ATOM     25  C2  NON d   1      -9.694  10.059  -0.735  0.00  0.00     0.269 C 
ATOM     26  H4  NON d   1      -8.545   8.665  -1.729  0.00  0.00     0.279 HD
ENDBRANCH  22  23
ENDBRANCH  19  22
ENDBRANCH  18  19
ENDBRANCH  15  18
ENDBRANCH   1   9
BRANCH   6  27
ATOM     27  C14 NON d   1       3.367   2.513   0.167  0.00  0.00     0.124 C 
BRANCH  27  28
ATOM     28  C15 NON d   1       4.607   3.385  -0.063  0.00  0.00     0.020 C 
BRANCH  28  29
ATOM     29  C16 NON d   1       5.176   4.095   1.175  0.00  0.00     0.002 C 
BRANCH  29  30
ATOM     30  C17 NON d   1       4.356   5.307   1.619  0.00  0.00     0.009 C 
BRANCH  30  31
ATOM     31  C18 NON d   1       5.098   6.202   2.616  0.00  0.00     0.105 C 
BRANCH  31  32
ATOM     32  C19 NON d   1       5.167   5.653   4.031  0.00  0.00     0.240 C 
ATOM     33  O3  NON d   1       4.707   4.564   4.353  0.00  0.00    -0.271 OA
ATOM     34  N6  NON d   1       5.765   6.550   4.891  0.00  0.00    -0.237 N 
ATOM     35  H32 NON d   1       6.205   7.411   4.586  0.00  0.00     0.197 HD
BRANCH  34  36
ATOM     36  O4  NON d   1       6.024   6.132   6.209  0.00  0.00    -0.287 OA
ATOM     37  H33 NON d   1       5.470   6.737   6.736  0.00  0.00     0.244 HD
ENDBRANCH  34  36
ENDBRANCH  31  32
ENDBRANCH  30  31
ENDBRANCH  29  30
ENDBRANCH  28  29
ENDBRANCH  27  28
ENDBRANCH   6  27
TORSDOF 12
