@<TRIPOS>MOLECULE
*****
 38 40 0 0 0
SMALL
USER_CHARGES

@<TRIPOS>ATOM
      1 O1          1.8382   -7.3381    0.4200 O.2     1  NONAME1    -0.2675
      2 C1          2.7581   -8.0909    0.0998 C.2     1  NONAME1     0.2731
      3 N1          3.9959   -7.5731   -0.2371 N.am    1  NONAME1    -0.1930
      4 O2          4.1759   -6.1755   -0.1741 O.3     1  NONAME1    -0.2949
      5 C2          2.6790   -9.5480    0.0493 C.ar    1  NONAME1     0.0764
      6 C3          3.6980  -10.4835    0.0133 C.ar    1  NONAME1    -0.0418
      7 C4          3.2121  -11.8230   -0.0104 C.ar    1  NONAME1    -0.0447
      8 C5          1.8298  -11.9089    0.0093 C.ar    1  NONAME1     0.0382
      9 C6          0.9715  -13.1109    0.0131 C.ar    1  NONAME1     0.0775
     10 C7          1.4997  -14.3884    0.2032 C.ar    1  NONAME1    -0.0349
     11 C8          0.6458  -15.4948    0.1978 C.ar    1  NONAME1    -0.0536
     12 C9         -0.7218  -15.3192   -0.0148 C.ar    1  NONAME1    -0.0123
     13 C10        -1.7447  -16.4302   -0.0315 C.3     1  NONAME1     0.0358
     14 N2         -1.1442  -17.7615    0.0189 N.pl3   1  NONAME1    -0.3397
     15 C11        -1.9626  -18.8990   -0.0046 C.ar    1  NONAME1     0.0274
     16 C12        -1.3402  -20.1556   -0.0710 C.ar    1  NONAME1    -0.0408
     17 C13        -2.0821  -21.3407   -0.0538 C.ar    1  NONAME1    -0.0600
     18 C14        -3.4681  -21.2903    0.0480 C.ar    1  NONAME1    -0.0616
     19 C15        -4.1034  -20.0567    0.1521 C.ar    1  NONAME1    -0.0600
     20 C16        -3.3540  -18.8738    0.1451 C.ar    1  NONAME1    -0.0408
     21 C17        -1.1554  -14.0066   -0.1863 C.ar    1  NONAME1     0.0329
     22 N3         -0.3506  -12.9160   -0.1823 N.ar    1  NONAME1    -0.2541
     23 S1          1.1501  -10.3240    0.0585 S.2     1  NONAME1    -0.0821
     24 H1          4.7739   -8.1164   -0.5887 H       1  NONAME1     0.1825
     25 H2          3.3989   -5.8849    0.3497 H       1  NONAME1     0.2414
     26 H3          4.7534  -10.2408    0.0262 H       1  NONAME1     0.0631
     27 H4          3.8654  -12.6864   -0.0367 H       1  NONAME1     0.0630
     28 H5          2.5595  -14.5457    0.3703 H       1  NONAME1     0.0639
     29 H6          1.0655  -16.4818    0.3751 H       1  NONAME1     0.0622
     30 H7         -2.3975  -16.2875    0.8380 H       1  NONAME1     0.0511
     31 H8         -2.3388  -16.3374   -0.9482 H       1  NONAME1     0.0511
     32 H9         -0.3787  -17.8731   -0.6419 H       1  NONAME1     0.1464
     33 H10        -0.2562  -20.2211   -0.1261 H       1  NONAME1     0.0636
     34 H11        -1.5741  -22.2996   -0.1100 H       1  NONAME1     0.0618
     35 H12        -4.0494  -22.2084    0.0593 H       1  NONAME1     0.0618
     36 H13        -5.1854  -20.0106    0.2465 H       1  NONAME1     0.0618
     37 H14        -3.8938  -17.9379    0.2453 H       1  NONAME1     0.0636
     38 H15        -2.2090  -13.7787   -0.3334 H       1  NONAME1     0.0833
@<TRIPOS>BOND
     1     1     2    2
     2     2     3   am
     3     3     4    1
     4     2     5    1
     5     5     6   ar
     6     6     7   ar
     7     7     8   ar
     8     8     9    1
     9     9    10   ar
    10    10    11   ar
    11    11    12   ar
    12    12    13    1
    13    13    14    1
    14    14    15    1
    15    15    16   ar
    16    16    17   ar
    17    17    18   ar
    18    18    19   ar
    19    19    20   ar
    20    15    20   ar
    21    12    21   ar
    22    21    22   ar
    23     9    22   ar
    24     8    23   ar
    25     5    23   ar
    26     3    24    1
    27     4    25    1
    28     6    26    1
    29     7    27    1
    30    10    28    1
    31    11    29    1
    32    13    30    1
    33    13    31    1
    34    14    32    1
    35    16    33    1
    36    17    34    1
    37    18    35    1
    38    19    36    1
    39    20    37    1
    40    21    38    1
