REMARK  5 active torsions:
REMARK  status: ('A' for Active; 'I' for Inactive)
REMARK    1  A    between atoms: N3_3  and  C1_4 
REMARK    2  A    between atoms: C4_7  and  C5_8 
REMARK       I    between atoms: C5_8  and  N4_10 
REMARK    3  A    between atoms: N4_10  and  C6_11 
REMARK    4  A    between atoms: C8_13  and  C9_14 
REMARK    5  A    between atoms: C15_21  and  N5_22 
ROOT
ATOM      1  N1  NON d   1       5.458  15.284  -0.307  0.00  0.00     0.068 N 
ATOM      2  N2  NON d   1       5.330  14.188  -0.005  0.00  0.00    -0.162 NA
ATOM      3  N3  NON d   1       5.205  12.998   0.338  0.00  0.00    -0.073 NA
ENDROOT
BRANCH   3   4
ATOM      4  C1  NON d   1       3.926  12.437   0.162  0.00  0.00     0.093 A 
ATOM      5  C2  NON d   1       3.843  11.041   0.057  0.00  0.00     0.035 A 
ATOM      6  C3  NON d   1       2.611  10.382  -0.096  0.00  0.00     0.019 A 
ATOM      7  C4  NON d   1       1.428  11.122  -0.139  0.00  0.00     0.032 A 
ATOM      8  C16 NON d   1       1.504  12.520  -0.032  0.00  0.00     0.019 A 
ATOM      9  C17 NON d   1       2.735  13.169   0.124  0.00  0.00     0.035 A 
BRANCH   7  10
ATOM     10  C5  NON d   1       0.069  10.526  -0.332  0.00  0.00     0.256 C 
ATOM     11  O1  NON d   1      -0.790  11.255  -0.823  0.00  0.00    -0.267 OA
ATOM     12  N4  NON d   1      -0.116   9.206   0.040  0.00  0.00    -0.321 N 
ATOM     13  H3  NON d   1       0.704   8.671   0.286  0.00  0.00     0.169 HD
BRANCH  12  14
ATOM     14  C6  NON d   1      -1.336   8.461   0.034  0.00  0.00     0.057 A 
ATOM     15  C7  NON d   1      -1.193   7.051   0.029  0.00  0.00     0.044 A 
ATOM     16  C8  NON d   1      -2.298   6.173   0.018  0.00  0.00    -0.017 A 
ATOM     17  C13 NON d   1      -3.570   6.756   0.048  0.00  0.00     0.014 A 
ATOM     18  C14 NON d   1      -3.730   8.142   0.092  0.00  0.00     0.026 A 
ATOM     19  C15 NON d   1      -2.635   9.012   0.051  0.00  0.00     0.033 A 
BRANCH  16  20
ATOM     20  C9  NON d   1      -2.108   4.698  -0.007  0.00  0.00     0.015 A 
ATOM     21  C10 NON d   1      -0.933   3.958  -0.011  0.00  0.00     0.020 A 
ATOM     22  C11 NON d   1      -1.147   2.546  -0.029  0.00  0.00     0.008 A 
ATOM     23  C12 NON d   1      -2.483   2.230  -0.044  0.00  0.00     0.050 A 
ATOM     24  S1  NON d   1      -3.462   3.622  -0.040  0.00  0.00    -0.101 SA
ENDBRANCH  16  20
BRANCH  19  25
ATOM     25  N5  NON d   1      -2.905  10.368   0.325  0.00  0.00    -0.301 NA
ATOM     26  H10 NON d   1      -2.174  10.967  -0.074  0.00  0.00     0.124 HD
ATOM     27  H11 NON d   1      -3.811  10.671  -0.017  0.00  0.00     0.124 HD
ENDBRANCH  19  25
ENDBRANCH  12  14
ENDBRANCH   7  10
ENDBRANCH   3   4
TORSDOF 5
