REMARK  7 active torsions:
REMARK  status: ('A' for Active; 'I' for Inactive)
REMARK    1  A    between atoms: N1_2  and  C3_4 
REMARK    2  A    between atoms: C6_7  and  C7_8 
REMARK    3  A    between atoms: C7_8  and  N2_9 
REMARK       I    between atoms: N2_9  and  C8_10 
REMARK       I    between atoms: C8_10  and  N3_12 
REMARK    4  A    between atoms: N3_12  and  C9_13 
REMARK    5  A    between atoms: C9_13  and  C10_14 
REMARK    6  A    between atoms: C10_14  and  C11_15 
REMARK       I    between atoms: C11_15  and  N4_17 
REMARK    7  A    between atoms: N4_17  and  O3_18 
ROOT
ATOM      1  N2  NON d   1       2.364   4.492   0.037  0.00  0.00    -0.339 N 
ATOM      2  C8  NON d   1       3.475   5.319   0.003  0.00  0.00     0.316 C 
ATOM      3  O1  NON d   1       3.413   6.543  -0.003  0.00  0.00    -0.247 OA
ATOM      4  N3  NON d   1       4.660   4.613  -0.011  0.00  0.00    -0.343 N 
ATOM      5  H11 NON d   1       2.463   3.670  -0.539  0.00  0.00     0.164 HD
ATOM      6  H12 NON d   1       4.604   3.767   0.538  0.00  0.00     0.164 HD
ENDROOT
BRANCH   1   7
ATOM      7  C7  NON d   1       1.071   5.160  -0.006  0.00  0.00     0.162 C 
BRANCH   7   8
ATOM      8  C6  NON d   1      -0.197   4.331   0.064  0.00  0.00    -0.040 A 
ATOM      9  C5  NON d   1      -1.420   5.026   0.076  0.00  0.00     0.011 A 
ATOM     10  C4  NON d   1      -2.663   4.362   0.086  0.00  0.00     0.030 A 
ATOM     11  C3  NON d   1      -2.767   2.966   0.066  0.00  0.00     0.029 A 
ATOM     12  C13 NON d   1      -1.533   2.282   0.086  0.00  0.00     0.030 A 
ATOM     13  C12 NON d   1      -0.271   2.941   0.087  0.00  0.00     0.011 A 
BRANCH  11  14
ATOM     14  N1  NON d   1      -4.001   2.310   0.000  0.00  0.00    -0.390 N 
ATOM     15  C1  NON d   1      -4.001   0.770   0.000  0.00  0.00     0.149 C 
ATOM     16  C2  NON d   1      -5.335   3.080   0.000  0.00  0.00     0.149 C 
ENDBRANCH  11  14
ENDBRANCH   7   8
ENDBRANCH   1   7
BRANCH   4  17
ATOM     17  C9  NON d   1       5.917   5.365   0.057  0.00  0.00     0.134 C 
BRANCH  17  18
ATOM     18  C10 NON d   1       7.145   4.469  -0.053  0.00  0.00     0.124 C 
BRANCH  18  19
ATOM     19  C11 NON d   1       8.449   5.240   0.094  0.00  0.00     0.242 C 
ATOM     20  O2  NON d   1       8.510   6.459   0.189  0.00  0.00    -0.271 OA
ATOM     21  N4  NON d   1       9.548   4.396   0.059  0.00  0.00    -0.237 N 
ATOM     22  H17 NON d   1       9.447   3.429   0.347  0.00  0.00     0.197 HD
BRANCH  21  23
ATOM     23  O3  NON d   1      10.775   4.992   0.441  0.00  0.00    -0.287 OA
ATOM     24  H18 NON d   1      11.134   5.296  -0.416  0.00  0.00     0.244 HD
ENDBRANCH  21  23
ENDBRANCH  18  19
ENDBRANCH  17  18
ENDBRANCH   4  17
TORSDOF 7
