REMARK  9 active torsions:
REMARK  status: ('A' for Active; 'I' for Inactive)
REMARK    1  A    between atoms: P1_2  and  C2_4 
REMARK    2  A    between atoms: P1_2  and  O3_26 
REMARK    3  A    between atoms: C2_4  and  C3_5 
REMARK    4  A    between atoms: C6_8  and  C7_9 
REMARK       I    between atoms: C7_9  and  N1_11 
REMARK    5  A    between atoms: N1_11  and  C8_12 
REMARK    6  A    between atoms: C10_14  and  C11_15 
REMARK    7  A    between atoms: C17_22  and  N2_23 
REMARK    8  A    between atoms: O3_26  and  C20_27 
REMARK    9  A    between atoms: C20_27  and  C21_28 
ROOT
ATOM      1  C3  NON d   1      22.450  -2.645   0.025  0.00  0.00    -0.049 A 
ATOM      2  C4  NON d   1      22.409  -4.042   0.106  0.00  0.00     0.009 A 
ATOM      3  C5  NON d   1      21.190  -4.727   0.084  0.00  0.00     0.017 A 
ATOM      4  C6  NON d   1      19.964  -4.050  -0.004  0.00  0.00     0.032 A 
ATOM      5  C18 NON d   1      19.989  -2.651  -0.043  0.00  0.00     0.017 A 
ATOM      6  C19 NON d   1      21.222  -1.959  -0.030  0.00  0.00     0.009 A 
ENDROOT
BRANCH   4   7
ATOM      7  C7  NON d   1      18.728  -4.907  -0.109  0.00  0.00     0.256 C 
ATOM      8  O2  NON d   1      18.908  -6.099  -0.359  0.00  0.00    -0.267 OA
ATOM      9  N1  NON d   1      17.490  -4.318   0.055  0.00  0.00    -0.321 N 
ATOM     10  H8  NON d   1      17.424  -3.336   0.287  0.00  0.00     0.169 HD
BRANCH   9  11
ATOM     11  C8  NON d   1      16.221  -4.978   0.024  0.00  0.00     0.057 A 
ATOM     12  C9  NON d   1      16.072  -6.376  -0.024  0.00  0.00     0.044 A 
ATOM     13  C10 NON d   1      14.812  -7.012   0.024  0.00  0.00    -0.017 A 
ATOM     14  C15 NON d   1      13.684  -6.187   0.135  0.00  0.00     0.014 A 
ATOM     15  C16 NON d   1      13.807  -4.793   0.176  0.00  0.00     0.026 A 
ATOM     16  C17 NON d   1      15.061  -4.178   0.075  0.00  0.00     0.033 A 
BRANCH  13  17
ATOM     17  C11 NON d   1      14.721  -8.497  -0.014  0.00  0.00     0.015 A 
ATOM     18  C12 NON d   1      15.745  -9.436  -0.026  0.00  0.00     0.020 A 
ATOM     19  C13 NON d   1      15.285 -10.786  -0.058  0.00  0.00     0.008 A 
ATOM     20  C14 NON d   1      13.914 -10.858  -0.074  0.00  0.00     0.050 A 
ATOM     21  S1  NON d   1      13.197  -9.310  -0.057  0.00  0.00    -0.101 SA
ENDBRANCH  13  17
BRANCH  16  22
ATOM     22  N2  NON d   1      15.145  -2.767   0.127  0.00  0.00    -0.301 NA
ATOM     23  H15 NON d   1      15.765  -2.420  -0.599  0.00  0.00     0.124 HD
ATOM     24  H16 NON d   1      14.231  -2.328   0.039  0.00  0.00     0.124 HD
ENDBRANCH  16  22
ENDBRANCH   9  11
ENDBRANCH   4   7
BRANCH   1  25
ATOM     25  C2  NON d   1      23.807  -1.885   0.000  0.00  0.00     0.140 C 
BRANCH  25  26
ATOM     26  P1  NON d   1      25.141  -2.655   0.000  0.00  0.00     0.198 P 
ATOM     27  C1  NON d   1      25.144  -2.649  -1.540  0.00  0.00     0.117 C 
ATOM     28  O1  NON d   1      25.137  -2.661   1.540  0.00  0.00    -0.291 OA
BRANCH  26  29
ATOM     29  O3  NON d   1      26.474  -3.425  -0.000  0.00  0.00    -0.329 OA
BRANCH  29  30
ATOM     30  C20 NON d   1      26.617  -4.779   0.442  0.00  0.00     0.216 C 
BRANCH  30  31
ATOM     31  C21 NON d   1      26.581  -5.062   1.930  0.00  0.00    -0.017 A 
ATOM     32  C22 NON d   1      26.121  -6.298   2.401  0.00  0.00     0.012 A 
ATOM     33  C23 NON d   1      26.041  -6.543   3.772  0.00  0.00     0.020 A 
ATOM     34  C24 NON d   1      26.452  -5.549   4.642  0.00  0.00     0.116 A 
ATOM     35  N3  NON d   1      26.964  -4.371   4.236  0.00  0.00    -0.272 NA
ATOM     36  C25 NON d   1      27.015  -4.156   2.895  0.00  0.00     0.125 A 
ENDBRANCH  30  31
ENDBRANCH  29  30
ENDBRANCH  26  29
ENDBRANCH  25  26
ENDBRANCH   1  25
TORSDOF 9
