@<TRIPOS>MOLECULE
*****
 45 48 0 0 0
SMALL
USER_CHARGES

@<TRIPOS>ATOM
      1 O1         19.8478    1.8901   -0.2226 O.2     1  NONAME1    -0.2675
      2 C1         19.2248    0.8386   -0.0703 C.2     1  NONAME1     0.2731
      3 N1         19.8799   -0.3773    0.0803 N.am    1  NONAME1    -0.1930
      4 O2         21.2652   -0.3131    0.3522 O.3     1  NONAME1    -0.2949
      5 C2         17.7643    0.7340   -0.0521 C.ar    1  NONAME1     0.0764
      6 C3         16.9553   -0.3877   -0.0439 C.ar    1  NONAME1    -0.0418
      7 C4         15.5651   -0.0663   -0.0339 C.ar    1  NONAME1    -0.0447
      8 C5         15.3171    1.2963   -0.0451 C.ar    1  NONAME1     0.0382
      9 C6         14.0214    2.0065   -0.0497 C.ar    1  NONAME1     0.0776
     10 C7         12.8059    1.3298   -0.0757 C.ar    1  NONAME1    -0.0347
     11 C8         11.6068    2.0530   -0.0662 C.ar    1  NONAME1    -0.0501
     12 C9         11.6341    3.4501   -0.0410 C.ar    1  NONAME1     0.0151
     13 C10        10.4227    4.3386    0.0175 C.3     1  NONAME1    -0.0059
     14 N2          9.1238    3.6424   -0.2297 N.4     1  NONAME1     0.2336
     15 C11         7.8988    4.4881   -0.1141 C.3     1  NONAME1    -0.0073
     16 C12         7.5264    5.3518   -1.2932 C.ar    1  NONAME1     0.0007
     17 C13         8.2535    5.4079   -2.5057 C.ar    1  NONAME1    -0.0499
     18 C14         7.8336    6.2276   -3.5642 C.ar    1  NONAME1    -0.0157
     19 C15         6.6854    6.9665   -3.3981 C.ar    1  NONAME1     0.1663
     20 C16         5.9620    6.9128   -2.2355 C.ar    1  NONAME1     0.1667
     21 C17         6.3522    6.1237   -1.1734 C.ar    1  NONAME1    -0.0079
     22 O3          4.8587    7.7043   -2.2708 O.3     1  NONAME1    -0.4526
     23 C18         4.9617    8.2603   -3.6016 C.3     1  NONAME1     0.2332
     24 O4          6.1311    7.8006   -4.3153 O.3     1  NONAME1    -0.4526
     25 C19        12.8959    4.0403   -0.0160 C.ar    1  NONAME1     0.0365
     26 N3         14.0608    3.3571   -0.0257 N.ar    1  NONAME1    -0.2540
     27 S1         16.8092    2.1600   -0.0561 S.2     1  NONAME1    -0.0821
     28 H1         19.4034   -1.1634    0.5027 H       1  NONAME1     0.1825
     29 H2         21.6387   -0.1323   -0.5317 H       1  NONAME1     0.2414
     30 H3         17.3206   -1.4068   -0.0558 H       1  NONAME1     0.0631
     31 H4         14.7925   -0.8226   -0.0267 H       1  NONAME1     0.0630
     32 H5         12.7699    0.2445   -0.0941 H       1  NONAME1     0.0639
     33 H6         10.6842    1.4814   -0.0762 H       1  NONAME1     0.0623
     34 H7         10.5090    5.1310   -0.7316 H       1  NONAME1     0.0867
     35 H8         10.3526    4.7865    1.0143 H       1  NONAME1     0.0867
     36 H9          9.0343    2.8996    0.4726 H       1  NONAME1     0.2020
     37 H10         9.1322    3.1739   -1.1434 H       1  NONAME1     0.2020
     38 H11         8.0175    5.1021    0.7863 H       1  NONAME1     0.0867
     39 H12         7.0821    3.7779    0.0617 H       1  NONAME1     0.0867
     40 H13         9.1572    4.8283   -2.6700 H       1  NONAME1     0.0623
     41 H14         8.3900    6.2813   -4.4953 H       1  NONAME1     0.0655
     42 H15         5.7416    6.1140   -0.2735 H       1  NONAME1     0.0660
     43 H16         4.0684    7.9783   -4.1707 H       1  NONAME1     0.1166
     44 H17         5.0033    9.3525   -3.5233 H       1  NONAME1     0.1166
     45 H18        13.0277    5.1213    0.0166 H       1  NONAME1     0.0834
@<TRIPOS>BOND
     1     1     2    2
     2     2     3   am
     3     3     4    1
     4     2     5    1
     5     5     6   ar
     6     6     7   ar
     7     7     8   ar
     8     8     9    1
     9     9    10   ar
    10    10    11   ar
    11    11    12   ar
    12    12    13    1
    13    13    14    1
    14    14    15    1
    15    15    16    1
    16    16    17   ar
    17    17    18   ar
    18    18    19   ar
    19    19    20   ar
    20    20    21   ar
    21    16    21   ar
    22    20    22    1
    23    22    23    1
    24    23    24    1
    25    19    24    1
    26    12    25   ar
    27    25    26   ar
    28     9    26   ar
    29     8    27   ar
    30     5    27   ar
    31     3    28    1
    32     4    29    1
    33     6    30    1
    34     7    31    1
    35    10    32    1
    36    11    33    1
    37    13    34    1
    38    13    35    1
    39    14    36    1
    40    14    37    1
    41    15    38    1
    42    15    39    1
    43    17    40    1
    44    18    41    1
    45    21    42    1
    46    23    43    1
    47    23    44    1
    48    25    45    1
