@<TRIPOS>MOLECULE
*****
 81 82 0 0 0
SMALL
USER_CHARGES

@<TRIPOS>ATOM
      1 C1         -5.6069    8.5399    0.0529 C.3     1  NONAME1     0.0044
      2 C2         -5.4768    7.0485    0.2197 C.2     1  NONAME1     0.1863
      3 O1         -6.4407    6.3042    0.3502 O.2     1  NONAME1    -0.2855
      4 S1         -3.8170    6.4736    0.2867 S.3     1  NONAME1    -0.0884
      5 C3         -4.0393    4.6959   -0.0506 C.3     1  NONAME1     0.0009
      6 C4         -4.0703    3.8827    1.2437 C.3     1  NONAME1    -0.0436
      7 C5         -3.9808    2.3589    1.0370 C.3     1  NONAME1    -0.0522
      8 C6         -2.5519    1.7578    0.9038 C.3     1  NONAME1    -0.0509
      9 C7         -2.0406    1.7338   -0.5448 C.3     1  NONAME1    -0.0260
     10 C8         -0.8009    0.8846   -0.9305 C.3     1  NONAME1     0.0994
     11 N1         -0.5657   -0.4162   -0.2920 N.am    1  NONAME1    -0.3025
     12 C9         -1.4851   -1.4460   -0.2680 C.2     1  NONAME1     0.2342
     13 O2         -2.6910   -1.2676   -0.4121 O.2     1  NONAME1    -0.2738
     14 C10        -0.8344   -2.8656   -0.3173 C.3     1  NONAME1     0.1023
     15 C11        -1.7534   -3.9234    0.2827 C.3     1  NONAME1    -0.0243
     16 C12        -0.8140   -5.1120    0.3987 C.3     1  NONAME1    -0.0350
     17 C13         0.5162   -4.4846    0.8228 C.3     1  NONAME1     0.0156
     18 N2          0.4601   -3.0943    0.3786 N.am    1  NONAME1    -0.2884
     19 C14         1.6187   -2.5576   -0.1556 C.2     1  NONAME1     0.2366
     20 O3          1.5856   -2.0559   -1.2911 O.2     1  NONAME1    -0.2735
     21 C15         2.8378   -2.2415    0.7859 C.3     1  NONAME1     0.1017
     22 C16         4.0875   -3.0116    0.3581 C.3     1  NONAME1    -0.0024
     23 C17         4.5677   -4.0088    1.4035 C.3     1  NONAME1     0.0498
     24 O4          3.6986   -5.1347    1.4382 O.3     1  NONAME1    -0.3789
     25 C18         3.9912   -6.0593    2.4979 C.3     1  NONAME1     0.0570
     26 C19         5.2752   -6.8801    2.3098 C.3     1  NONAME1     0.0244
     27 S2          6.7399   -6.0632    3.0355 S.3     1  NONAME1    -0.0862
     28 C20         7.9758   -7.2228    2.5595 C.2     1  NONAME1     0.1864
     29 C21         9.3745   -6.6740    2.5710 C.3     1  NONAME1     0.0044
     30 O5          7.7038   -8.3700    2.2298 O.2     1  NONAME1    -0.2855
     31 N3          3.0108   -0.8136    0.4039 N.am    1  NONAME1    -0.3022
     32 C22         3.4097    0.3789    1.0065 C.2     1  NONAME1     0.2366
     33 O6          3.9378    0.4859    2.0997 O.2     1  NONAME1    -0.2735
     34 C23         3.0800    1.5400    0.0000 C.3     1  NONAME1     0.1050
     35 C24         3.9202    1.3279   -1.2914 C.3     1  NONAME1    -0.0354
     36 C25         2.8126    3.0566    0.0000 C.3     1  NONAME1    -0.0354
     37 N4          1.5844    1.0668   -0.2641 N.am    1  NONAME1    -0.3004
     38 C26         0.5604    1.6718   -0.9882 C.2     1  NONAME1     0.2341
     39 O7          0.6929    2.7037   -1.6363 O.2     1  NONAME1    -0.2738
     40 H1         -4.8676    8.9241   -0.6569 H       1  NONAME1     0.0315
     41 H2         -5.4817    9.0352    1.0201 H       1  NONAME1     0.0315
     42 H3         -6.5990    8.7761   -0.3433 H       1  NONAME1     0.0315
     43 H4         -3.1874    4.4025   -0.6638 H       1  NONAME1     0.0381
     44 H5         -4.9380    4.5188   -0.6512 H       1  NONAME1     0.0381
     45 H6         -3.2775    4.1977    1.9317 H       1  NONAME1     0.0273
     46 H7         -5.0234    4.0965    1.7489 H       1  NONAME1     0.0273
     47 H8         -4.6145    2.0533    0.1948 H       1  NONAME1     0.0266
     48 H9         -4.4341    1.9018    1.9282 H       1  NONAME1     0.0266
     49 H10        -1.8532    2.2899    1.5572 H       1  NONAME1     0.0266
     50 H11        -2.6109    0.7303    1.2789 H       1  NONAME1     0.0266
     51 H12        -2.8704    1.3786   -1.1702 H       1  NONAME1     0.0288
     52 H13        -1.8545    2.7658   -0.8571 H       1  NONAME1     0.0288
     53 H14        -0.9612    0.6191   -1.9859 H       1  NONAME1     0.0594
     54 H15         0.3327   -0.7794   -0.5915 H       1  NONAME1     0.1495
     55 H16        -0.6808   -3.0835   -1.3840 H       1  NONAME1     0.0597
     56 H17        -2.6258   -4.1311   -0.3449 H       1  NONAME1     0.0288
     57 H18        -2.1098   -3.6214    1.2745 H       1  NONAME1     0.0288
     58 H19        -1.1670   -5.8747    1.0972 H       1  NONAME1     0.0281
     59 H20        -0.7084   -5.5854   -0.5871 H       1  NONAME1     0.0281
     60 H21         0.6494   -4.4985    1.9067 H       1  NONAME1     0.0465
     61 H22         1.3478   -5.0112    0.3419 H       1  NONAME1     0.0465
     62 H23         2.5830   -2.2977    1.8452 H       1  NONAME1     0.0595
     63 H24         3.9068   -3.5417   -0.5861 H       1  NONAME1     0.0310
     64 H25         4.9134   -2.3111    0.1786 H       1  NONAME1     0.0310
     65 H26         4.6268   -3.5364    2.3898 H       1  NONAME1     0.0560
     66 H27         5.5647   -4.3410    1.1006 H       1  NONAME1     0.0560
     67 H28         3.1518   -6.7645    2.4880 H       1  NONAME1     0.0568
     68 H29         3.9506   -5.5458    3.4655 H       1  NONAME1     0.0568
     69 H30         5.4558   -7.0707    1.2471 H       1  NONAME1     0.0403
     70 H31         5.1577   -7.8373    2.8288 H       1  NONAME1     0.0403
     71 H32        10.0861   -7.4945    2.4377 H       1  NONAME1     0.0315
     72 H33         9.5928   -6.1885    3.5264 H       1  NONAME1     0.0315
     73 H34         9.5017   -5.9633    1.7497 H       1  NONAME1     0.0315
     74 H35         2.6521   -0.6678   -0.5450 H       1  NONAME1     0.1495
     75 H36         4.9578    1.6356   -1.1083 H       1  NONAME1     0.0255
     76 H37         3.9587    0.2950   -1.6475 H       1  NONAME1     0.0255
     77 H38         3.5337    1.9244   -2.1259 H       1  NONAME1     0.0255
     78 H39         3.8602    3.3434    0.2357 H       1  NONAME1     0.0255
     79 H40         2.5452    4.5732    0.0000 H       1  NONAME1     0.0255
     80 H41         2.2737    3.0691    0.9736 H       1  NONAME1     0.0255
     81 H42         1.2058    0.5255    0.5121 H       1  NONAME1     0.1497
@<TRIPOS>BOND
     1     1     2    1
     2     2     3    2
     3     2     4    1
     4     4     5    1
     5     5     6    1
     6     6     7    1
     7     7     8    1
     8     8     9    1
     9    10     9    1
    10    10    11    1
    11    11    12   am
    12    12    13    2
    13    14    12    1
    14    14    15    1
    15    15    16    1
    16    16    17    1
    17    17    18    1
    18    14    18    1
    19    18    19   am
    20    19    20    2
    21    21    19    1
    22    21    22    1
    23    22    23    1
    24    23    24    1
    25    24    25    1
    26    25    26    1
    27    26    27    1
    28    27    28    1
    29    28    29    1
    30    28    30    2
    31    21    31    1
    32    31    32   am
    33    32    33    2
    34    32    34    1
    35    34    35    1
    36    34    36    1
    37    34    37    1
    38    37    38   am
    39    10    38    1
    40    38    39    2
    41     1    40    1
    42     1    41    1
    43     1    42    1
    44     5    43    1
    45     5    44    1
    46     6    45    1
    47     6    46    1
    48     7    47    1
    49     7    48    1
    50     8    49    1
    51     8    50    1
    52     9    51    1
    53     9    52    1
    54    10    53    1
    55    11    54    1
    56    14    55    1
    57    15    56    1
    58    15    57    1
    59    16    58    1
    60    16    59    1
    61    17    60    1
    62    17    61    1
    63    21    62    1
    64    22    63    1
    65    22    64    1
    66    23    65    1
    67    23    66    1
    68    25    67    1
    69    25    68    1
    70    26    69    1
    71    26    70    1
    72    29    71    1
    73    29    72    1
    74    29    73    1
    75    31    74    1
    76    35    75    1
    77    35    76    1
    78    35    77    1
    79    36    78    1
    80    36    79    1
    81    36    80    1
    82    37    81    1
