REMARK  4 active torsions:
REMARK  status: ('A' for Active; 'I' for Inactive)
REMARK       I    between atoms: C1_2  and  N1_3 
REMARK    1  A    between atoms: C1_2  and  C14_17 
REMARK    2  A    between atoms: N1_3  and  C2_4 
REMARK    3  A    between atoms: C4_6  and  C5_7 
REMARK    4  A    between atoms: C13_15  and  O2_16 
ROOT
ATOM      1  C2  NON d   1      -4.710  -2.995   0.052  0.00  0.00     0.069 A 
ATOM      2  C3  NON d   1      -6.002  -2.417   0.004  0.00  0.00     0.044 A 
ATOM      3  C4  NON d   1      -6.236  -1.020  -0.021  0.00  0.00    -0.024 A 
ATOM      4  C11 NON d   1      -5.081  -0.216  -0.015  0.00  0.00     0.015 A 
ATOM      5  C12 NON d   1      -3.795  -0.759   0.060  0.00  0.00     0.040 A 
ATOM      6  C13 NON d   1      -3.614  -2.138   0.120  0.00  0.00     0.092 A 
ENDROOT
BRANCH   1   7
ATOM      7  N1  NON d   1      -4.667  -4.412   0.045  0.00  0.00    -0.320 N 
ATOM      8  C1  NON d   1      -3.604  -5.276  -0.181  0.00  0.00     0.263 C 
ATOM      9  O1  NON d   1      -2.467  -4.955  -0.507  0.00  0.00    -0.267 OA
ATOM     10  H1  NON d   1      -5.559  -4.879   0.140  0.00  0.00     0.169 HD
BRANCH   8  11
ATOM     11  C14 NON d   1      -3.952  -6.698  -0.060  0.00  0.00     0.072 A 
ATOM     12  C15 NON d   1      -3.066  -7.763  -0.054  0.00  0.00     0.025 A 
ATOM     13  C16 NON d   1      -3.718  -9.027   0.026  0.00  0.00     0.009 A 
ATOM     14  C17 NON d   1      -5.087  -8.893   0.076  0.00  0.00     0.050 A 
ATOM     15  S1  NON d   1      -5.573  -7.253   0.050  0.00  0.00    -0.097 SA
ENDBRANCH   8  11
ENDBRANCH   1   7
BRANCH   6  16
ATOM     16  O2  NON d   1      -2.353  -2.593   0.353  0.00  0.00    -0.358 OA
ATOM     17  H10 NON d   1      -1.714  -1.992  -0.061  0.00  0.00     0.217 HD
ENDBRANCH   6  16
BRANCH   3  18
ATOM     18  C5  NON d   1      -7.616  -0.425  -0.034  0.00  0.00    -0.026 A 
ATOM     19  C6  NON d   1      -8.784  -1.215  -0.032  0.00  0.00     0.012 A 
ATOM     20  C7  NON d   1     -10.072  -0.656  -0.024  0.00  0.00     0.001 A 
ATOM     21  C8  NON d   1     -10.238   0.722  -0.019  0.00  0.00     0.000 A 
ATOM     22  C9  NON d   1      -9.116   1.538  -0.024  0.00  0.00     0.001 A 
ATOM     23  C10 NON d   1      -7.834   0.973  -0.031  0.00  0.00     0.012 A 
ENDBRANCH   3  18
TORSDOF 4
