@<TRIPOS>MOLECULE
*****
 58 59 0 0 0
SMALL
USER_CHARGES

@<TRIPOS>ATOM
      1 C1        -10.1690    6.1847   -0.0597 C.3     1  NONAME1    -0.0188
      2 C2         -8.8413    6.8804   -0.0365 C.ar    1  NONAME1     0.0798
      3 N1         -8.8983    8.2257   -0.0695 N.ar    1  NONAME1    -0.2562
      4 C3         -7.7239    8.8891   -0.0540 C.ar    1  NONAME1     0.0338
      5 C4         -6.4506    8.3038   -0.0155 C.ar    1  NONAME1     0.0041
      6 C5         -5.2980    9.2707   -0.0847 C.3     1  NONAME1     0.0711
      7 O1         -4.3045    9.0053    0.8990 O.3     1  NONAME1    -0.3904
      8 C6         -6.3892    6.8907    0.0053 C.ar    1  NONAME1     0.0195
      9 C7         -5.1376    6.0125    0.0527 C.3     1  NONAME1     0.0383
     10 N2         -3.8912    6.6901   -0.2728 N.pl3   1  NONAME1    -0.3396
     11 C8         -2.6716    6.0044   -0.1765 C.ar    1  NONAME1     0.0276
     12 C9         -1.5035    6.7783   -0.1518 C.ar    1  NONAME1    -0.0374
     13 C10        -0.2324    6.1978   -0.1010 C.ar    1  NONAME1    -0.0182
     14 C11        -0.0922    4.8130   -0.0995 C.ar    1  NONAME1     0.1206
     15 O2          1.0990    4.1326   -0.0458 O.3     1  NONAME1    -0.4920
     16 C12         2.2739    4.9450    0.0779 C.3     1  NONAME1     0.0896
     17 C13         3.5139    4.0575    0.1532 C.3     1  NONAME1    -0.0186
     18 C14         4.8468    4.8184    0.0555 C.3     1  NONAME1    -0.0500
     19 C15         5.3094    5.5384    1.3329 C.3     1  NONAME1    -0.0525
     20 C16         4.7209    6.9409    1.5138 C.3     1  NONAME1    -0.0447
     21 C17         5.1375    7.6015    2.8311 C.3     1  NONAME1     0.0259
     22 C18         6.4339    8.3944    2.7608 C.2     1  NONAME1     0.2354
     23 O3          7.2798    8.2412    1.8884 O.2     1  NONAME1    -0.2737
     24 N3          6.5673    9.2474    3.8456 N.am    1  NONAME1    -0.1975
     25 O4          7.6157   10.1899    3.7464 O.3     1  NONAME1    -0.2952
     26 C19        -1.2440    4.0274   -0.1715 C.ar    1  NONAME1    -0.0182
     27 C20        -2.5202    4.6169   -0.2274 C.ar    1  NONAME1    -0.0374
     28 C21        -7.6235    6.1928    0.0324 C.ar    1  NONAME1     0.1427
     29 O5         -7.5745    4.8235    0.1276 O.3     1  NONAME1    -0.5046
     30 H1        -10.9587    6.8715   -0.3842 H       1  NONAME1     0.0294
     31 H2        -10.4211    5.8212    0.9406 H       1  NONAME1     0.0294
     32 H3        -10.1614    5.3469   -0.7636 H       1  NONAME1     0.0294
     33 H4         -7.8437    9.9710   -0.0835 H       1  NONAME1     0.0833
     34 H5         -5.6406   10.2949    0.1045 H       1  NONAME1     0.0608
     35 H6         -4.8501    9.2491   -1.0836 H       1  NONAME1     0.0608
     36 H7         -3.6220    9.6907    0.7814 H       1  NONAME1     0.2098
     37 H8         -5.0698    5.5874    1.0625 H       1  NONAME1     0.0512
     38 H9         -5.2741    5.1981   -0.6693 H       1  NONAME1     0.0512
     39 H10        -3.8233    7.5275    0.3143 H       1  NONAME1     0.1464
     40 H11        -1.5777    7.8625   -0.1716 H       1  NONAME1     0.0637
     41 H12         0.6201    6.8660   -0.0721 H       1  NONAME1     0.0655
     42 H13         2.1935    5.5299    0.9970 H       1  NONAME1     0.0696
     43 H14         2.3598    5.6025   -0.7953 H       1  NONAME1     0.0696
     44 H15         3.4673    3.3369   -0.6740 H       1  NONAME1     0.0298
     45 H16         3.4830    3.4518    1.0671 H       1  NONAME1     0.0298
     46 H17         5.6154    4.0709   -0.1831 H       1  NONAME1     0.0266
     47 H18         4.8280    5.5145   -0.7915 H       1  NONAME1     0.0266
     48 H19         5.0900    4.9148    2.2073 H       1  NONAME1     0.0265
     49 H20         6.4018    5.6349    1.2858 H       1  NONAME1     0.0265
     50 H21         4.9909    7.5737    0.6598 H       1  NONAME1     0.0270
     51 H22         3.6321    6.8775    1.5243 H       1  NONAME1     0.0270
     52 H23         5.2292    6.8598    3.6327 H       1  NONAME1     0.0359
     53 H24         4.3444    8.3019    3.1198 H       1  NONAME1     0.0359
     54 H25         5.7357    9.5895    4.3159 H       1  NONAME1     0.1822
     55 H26         8.3738    9.6979    4.1145 H       1  NONAME1     0.2414
     56 H27        -1.1562    2.9434   -0.1908 H       1  NONAME1     0.0655
     57 H28        -3.3823    3.9613   -0.3019 H       1  NONAME1     0.0637
     58 H29        -8.4641    4.4693    0.2843 H       1  NONAME1     0.2922
@<TRIPOS>BOND
     1     1     2    1
     2     2     3   ar
     3     3     4   ar
     4     4     5   ar
     5     5     6    1
     6     6     7    1
     7     5     8   ar
     8     8     9    1
     9     9    10    1
    10    10    11    1
    11    11    12   ar
    12    12    13   ar
    13    13    14   ar
    14    14    15    1
    15    15    16    1
    16    16    17    1
    17    17    18    1
    18    18    19    1
    19    19    20    1
    20    20    21    1
    21    21    22    1
    22    22    23    2
    23    22    24   am
    24    24    25    1
    25    14    26   ar
    26    26    27   ar
    27    11    27   ar
    28     8    28   ar
    29     2    28   ar
    30    28    29    1
    31     1    30    1
    32     1    31    1
    33     1    32    1
    34     4    33    1
    35     6    34    1
    36     6    35    1
    37     7    36    1
    38     9    37    1
    39     9    38    1
    40    10    39    1
    41    12    40    1
    42    13    41    1
    43    16    42    1
    44    16    43    1
    45    17    44    1
    46    17    45    1
    47    18    46    1
    48    18    47    1
    49    19    48    1
    50    19    49    1
    51    20    50    1
    52    20    51    1
    53    21    52    1
    54    21    53    1
    55    24    54    1
    56    25    55    1
    57    26    56    1
    58    27    57    1
    59    29    58    1
