REMARK  14 active torsions:
REMARK  status: ('A' for Active; 'I' for Inactive)
REMARK    1  A    between atoms: C2_2  and  C4_4 
REMARK    2  A    between atoms: C5_6  and  N2_7 
REMARK    3  A    between atoms: N2_7  and  S1_9 
REMARK    4  A    between atoms: C8_14  and  C9_15 
REMARK    5  A    between atoms: C15_22  and  C16_23 
REMARK    6  A    between atoms: C16_23  and  C17_24 
REMARK    7  A    between atoms: C18_25  and  C17_24 
REMARK    8  A    between atoms: C18_25  and  O3_26 
REMARK    9  A    between atoms: C18_25  and  C19_27 
REMARK   10  A    between atoms: C20_28  and  C19_27 
REMARK   11  A    between atoms: C20_28  and  O4_29 
REMARK   12  A    between atoms: C20_28  and  C21_30 
REMARK   13  A    between atoms: C21_30  and  C22_31 
REMARK       I    between atoms: C22_31  and  N4_33 
REMARK   14  A    between atoms: N4_33  and  O6_34 
ROOT
ATOM      1  C4  NON d   1       2.516  -4.680  -0.173  0.00  0.00     0.069 C 
ATOM      2  N1  NON d   1       1.279  -5.382   0.040  0.00  0.00    -0.065 NA
ATOM      3  C5  NON d   1       0.079  -4.701  -0.089  0.00  0.00     0.738 C 
ATOM      4  N3  NON d   1       0.080  -3.396  -0.414  0.00  0.00    -0.060 NA
ATOM      5  C8  NON d   1       1.298  -2.708  -0.591  0.00  0.00     0.098 C 
ATOM      6  C15 NON d   1       2.570  -3.343  -0.608  0.00  0.00     0.020 C 
ENDROOT
BRANCH   6   7
ATOM      7  C16 NON d   1       3.931  -2.687  -0.528  0.00  0.00     0.014 C 
BRANCH   7   8
ATOM      8  C17 NON d   1       5.234  -2.660  -1.116  0.00  0.00     0.006 C 
BRANCH   8   9
ATOM      9  C18 NON d   1       6.668  -2.310   0.000  0.00  0.00     0.143 C 
BRANCH   9  10
ATOM     10  O3  NON d   1       7.238  -1.068  -0.654  0.00  0.00    -0.392 OA
ATOM     11  H21 NON d   1       7.514  -0.483   0.072  0.00  0.00     0.210 HD
ENDBRANCH   9  10
BRANCH   9  12
ATOM     12  C19 NON d   1       8.002  -3.080   0.000  0.00  0.00     0.068 C 
BRANCH  12  13
ATOM     13  C20 NON d   1       8.568  -3.550   1.381  0.00  0.00     0.129 C 
BRANCH  13  14
ATOM     14  O4  NON d   1       9.326  -4.746   1.194  0.00  0.00    -0.395 OA
ATOM     15  H25 NON d   1       8.710  -5.510   1.230  0.00  0.00     0.210 HD
ENDBRANCH  13  14
BRANCH  13  16
ATOM     16  C21 NON d   1       7.658  -3.636   2.616  0.00  0.00     0.136 C 
BRANCH  16  17
ATOM     17  C22 NON d   1       6.847  -4.910   2.771  0.00  0.00     0.243 C 
ATOM     18  O5  NON d   1       7.132  -5.952   2.185  0.00  0.00    -0.271 OA
ATOM     19  N4  NON d   1       5.746  -4.730   3.587  0.00  0.00    -0.237 N 
ATOM     20  H28 NON d   1       5.622  -3.929   4.196  0.00  0.00     0.197 HD
BRANCH  19  21
ATOM     21  O6  NON d   1       4.948  -5.857   3.856  0.00  0.00    -0.287 OA
ATOM     22  H29 NON d   1       4.073  -5.594   3.513  0.00  0.00     0.244 HD
ENDBRANCH  19  21
ENDBRANCH  16  17
ENDBRANCH  13  16
ENDBRANCH  12  13
ENDBRANCH   9  12
ENDBRANCH   8   9
ENDBRANCH   7   8
ENDBRANCH   6   7
BRANCH   5  23
ATOM     23  C9  NON d   1       1.116  -1.199  -0.554  0.00  0.00    -0.006 A 
ATOM     24  C10 NON d   1      -0.132  -0.640  -0.190  0.00  0.00     0.017 A 
ATOM     25  C11 NON d   1      -0.323   0.740  -0.017  0.00  0.00     0.043 A 
ATOM     26  C12 NON d   1       0.742   1.607  -0.189  0.00  0.00     0.116 A 
ATOM     27  F1  NON d   1       0.580   2.920   0.016  0.00  0.00    -0.206 F 
ATOM     28  C13 NON d   1       1.977   1.119  -0.573  0.00  0.00     0.043 A 
ATOM     29  C14 NON d   1       2.147  -0.259  -0.782  0.00  0.00     0.017 A 
ENDBRANCH   5  23
BRANCH   1  30
ATOM     30  C2  NON d   1       4.001  -5.390   0.000  0.00  0.00     0.031 C 
ATOM     31  C1  NON d   1       5.335  -4.620   0.000  0.00  0.00     0.016 C 
ATOM     32  C3  NON d   1       4.001  -6.930   0.000  0.00  0.00     0.016 C 
ENDBRANCH   1  30
BRANCH   3  33
ATOM     33  N2  NON d   1      -1.334  -5.390   0.000  0.00  0.00    -0.109 N 
ATOM     34  C6  NON d   1      -1.334  -6.930   0.000  0.00  0.00     0.189 C 
BRANCH  33  35
ATOM     35  S1  NON d   1      -2.430  -4.655   1.045  0.00  0.00     0.242 S 
ATOM     36  C7  NON d   1      -3.388  -3.724  -0.123  0.00  0.00     0.186 C 
ATOM     37  O1  NON d   1      -3.307  -5.689   1.565  0.00  0.00    -0.205 OA
ATOM     38  O2  NON d   1      -1.763  -3.746   1.953  0.00  0.00    -0.205 OA
ENDBRANCH  33  35
ENDBRANCH   3  33
TORSDOF 14
