REMARK  7 active torsions:
REMARK  status: ('A' for Active; 'I' for Inactive)
REMARK    1  A    between atoms: O1_2  and  C2_3 
REMARK    2  A    between atoms: C5_6  and  S1_7 
REMARK    3  A    between atoms: S1_7  and  N1_10 
REMARK    4  A    between atoms: C10_15  and  C11_16 
REMARK    5  A    between atoms: C12_17  and  C13_18 
REMARK       I    between atoms: C13_18  and  N2_20 
REMARK    6  A    between atoms: N2_20  and  O5_21 
REMARK    7  A    between atoms: C18_26  and  O6_27 
ROOT
ATOM      1  N1  NON d   1       2.432  -3.288   0.285  0.00  0.00    -0.246 N 
ATOM      2  C6  NON d   1       1.552  -2.387  -0.267  0.00  0.00     0.111 C 
ATOM      3  C7  NON d   1       2.291  -1.309  -0.704  0.00  0.00     0.032 C 
ATOM      4  C8  NON d   1       3.666  -1.598  -0.462  0.00  0.00    -0.006 A 
ATOM      5  C9  NON d   1       4.862  -0.855  -0.614  0.00  0.00     0.025 A 
ATOM      6  C10 NON d   1       6.104  -1.424  -0.276  0.00  0.00    -0.035 A 
ATOM      7  C14 NON d   1       6.134  -2.750   0.164  0.00  0.00     0.014 A 
ATOM      8  C15 NON d   1       4.968  -3.505   0.331  0.00  0.00     0.032 A 
ATOM      9  C16 NON d   1       3.736  -2.896   0.063  0.00  0.00     0.060 A 
ENDROOT
BRANCH   1  10
ATOM     10  S1  NON d   1       1.944  -4.457   1.430  0.00  0.00     0.269 S 
ATOM     11  O2  NON d   1       3.121  -4.833   2.193  0.00  0.00    -0.200 OA
ATOM     12  O3  NON d   1       0.790  -3.876   2.091  0.00  0.00    -0.200 OA
BRANCH  10  13
ATOM     13  C5  NON d   1       1.391  -5.909   0.559  0.00  0.00     0.083 C 
ATOM     14  C4  NON d   1       0.018  -6.089   0.380  0.00  0.00     0.028 C 
ATOM     15  C3  NON d   1      -0.473  -7.371   0.137  0.00  0.00     0.041 C 
ATOM     16  C2  NON d   1       0.397  -8.471   0.100  0.00  0.00     0.101 C 
ATOM     17  C18 NON d   1       1.780  -8.284   0.139  0.00  0.00     0.102 C 
ATOM     18  C17 NON d   1       2.271  -6.989   0.385  0.00  0.00     0.065 C 
BRANCH  16  19
ATOM     19  O1  NON d   1      -0.182  -9.714   0.073  0.00  0.00    -0.353 OA
ATOM     20  C1  NON d   1      -0.510 -10.107   1.415  0.00  0.00     0.210 C 
ENDBRANCH  16  19
BRANCH  17  21
ATOM     21  O6  NON d   1       2.759  -9.232   0.000  0.00  0.00    -0.353 OA
ATOM     22  C19 NON d   1       2.283 -10.696   0.000  0.00  0.00     0.210 C 
ENDBRANCH  17  21
ENDBRANCH  10  13
ENDBRANCH   1  10
BRANCH   6  23
ATOM     23  C11 NON d   1       7.315  -0.578  -0.330  0.00  0.00     0.017 C 
ATOM     24  C12 NON d   1       8.575  -1.029  -0.217  0.00  0.00     0.077 C 
BRANCH  24  25
ATOM     25  C13 NON d   1       9.720  -0.087  -0.231  0.00  0.00     0.264 C 
ATOM     26  O4  NON d   1       9.615   1.106  -0.488  0.00  0.00    -0.266 OA
ATOM     27  N2  NON d   1      10.913  -0.687   0.077  0.00  0.00    -0.234 N 
ATOM     28  H11 NON d   1      11.048  -1.660   0.322  0.00  0.00     0.197 HD
BRANCH  27  29
ATOM     29  O5  NON d   1      12.061   0.136   0.074  0.00  0.00    -0.287 OA
ATOM     30  H12 NON d   1      11.695   1.003  -0.199  0.00  0.00     0.244 HD
ENDBRANCH  27  29
ENDBRANCH  24  25
ENDBRANCH   6  23
TORSDOF 7
