REMARK  10 active torsions:
REMARK  status: ('A' for Active; 'I' for Inactive)
REMARK    1  A    between atoms: C1_2  and  C2_3 
REMARK       I    between atoms: C1_2  and  N2_23 
REMARK    2  A    between atoms: C2_3  and  C3_4 
REMARK    3  A    between atoms: C3_4  and  C4_5 
REMARK    4  A    between atoms: C4_5  and  C5_6 
REMARK    5  A    between atoms: C5_6  and  C6_7 
REMARK    6  A    between atoms: C6_7  and  C7_8 
REMARK    7  A    between atoms: C7_8  and  C8_9 
REMARK    8  A    between atoms: C8_9  and  C9_11 
REMARK    9  A    between atoms: C12_14  and  N1_15 
REMARK   10  A    between atoms: N2_23  and  O3_24 
ROOT
ATOM      1  C8  NON d   1       1.098  -6.858   0.202  0.00  0.00     0.159 C 
ATOM      2  O2  NON d   1       1.031  -8.057   0.467  0.00  0.00    -0.292 OA
ENDROOT
BRANCH   1   3
ATOM      3  C7  NON d   1       2.413  -6.165  -0.123  0.00  0.00     0.084 C 
BRANCH   3   4
ATOM      4  C6  NON d   1       3.669  -7.031   0.052  0.00  0.00     0.008 C 
BRANCH   4   5
ATOM      5  C5  NON d   1       4.124  -7.795  -1.202  0.00  0.00     0.000 C 
BRANCH   5   6
ATOM      6  C4  NON d   1       3.346  -9.085  -1.453  0.00  0.00     0.000 C 
BRANCH   6   7
ATOM      7  C3  NON d   1       3.832  -9.863  -2.686  0.00  0.00     0.009 C 
BRANCH   7   8
ATOM      8  C2  NON d   1       4.991 -10.820  -2.410  0.00  0.00     0.105 C 
BRANCH   8   9
ATOM      9  C1  NON d   1       6.383 -10.236  -2.578  0.00  0.00     0.240 C 
ATOM     10  O1  NON d   1       6.645  -9.204  -3.191  0.00  0.00    -0.271 OA
ATOM     11  N2  NON d   1       7.357 -11.035  -2.018  0.00  0.00    -0.237 N 
ATOM     12  H27 NON d   1       7.190 -11.962  -1.637  0.00  0.00     0.197 HD
BRANCH  11  13
ATOM     13  O3  NON d   1       8.699 -10.683  -2.270  0.00  0.00    -0.287 OA
ATOM     14  H28 NON d   1       8.607  -9.959  -2.926  0.00  0.00     0.244 HD
ENDBRANCH  11  13
ENDBRANCH   8   9
ENDBRANCH   7   8
ENDBRANCH   6   7
ENDBRANCH   5   6
ENDBRANCH   4   5
ENDBRANCH   3   4
ENDBRANCH   1   3
BRANCH   1  15
ATOM     15  C9  NON d   1      -0.167  -6.051   0.190  0.00  0.00     0.010 A 
ATOM     16  C10 NON d   1      -1.389  -6.714   0.301  0.00  0.00     0.017 A 
ATOM     17  C11 NON d   1      -2.600  -5.999   0.319  0.00  0.00     0.030 A 
ATOM     18  C12 NON d   1      -2.660  -4.597   0.210  0.00  0.00     0.030 A 
ATOM     19  C18 NON d   1      -1.407  -3.957   0.125  0.00  0.00     0.030 A 
ATOM     20  C19 NON d   1      -0.188  -4.662   0.100  0.00  0.00     0.017 A 
BRANCH  18  21
ATOM     21  N1  NON d   1      -3.891  -3.887   0.255  0.00  0.00    -0.381 N 
ATOM     22  C13 NON d   1      -5.082  -4.650  -0.175  0.00  0.00     0.123 C 
ATOM     23  C14 NON d   1      -6.413  -3.912  -0.012  0.00  0.00     0.020 C 
ATOM     24  C15 NON d   1      -6.397  -2.415  -0.266  0.00  0.00     0.003 C 
ATOM     25  C16 NON d   1      -5.135  -1.751   0.245  0.00  0.00     0.020 C 
ATOM     26  C17 NON d   1      -3.876  -2.485  -0.200  0.00  0.00     0.123 C 
ENDBRANCH  18  21
ENDBRANCH   1  15
TORSDOF 10
