@<TRIPOS>MOLECULE
*****
 40 40 0 0 0
SMALL
USER_CHARGES

@<TRIPOS>ATOM
      1 C1          3.3422   -3.4513    2.3009 C.3     1  NONAME1    -0.0558
      2 C2          4.6837   -4.2077    2.2914 C.3     1  NONAME1    -0.0036
      3 S1          4.6078   -5.6438    1.1723 S.3     1  NONAME1    -0.1113
      4 C3          6.2601   -6.3187    1.2486 C.2     1  NONAME1     0.0854
      5 S2          7.1186   -6.4864    2.6782 S.2     1  NONAME1    -0.0372
      6 S3          6.7740   -6.9008   -0.3455 S.3     1  NONAME1    -0.1030
      7 C4          8.2228   -7.9784   -0.0624 C.3     1  NONAME1     0.0623
      8 C5          9.5359   -7.2099    0.0398 C.2     1  NONAME1     0.1732
      9 O1          9.5929   -5.9784    0.0833 O.2     1  NONAME1    -0.2912
     10 C6         10.8280   -7.9740    0.1152 C.ar    1  NONAME1     0.0183
     11 C7         11.9486   -7.3074    0.6248 C.ar    1  NONAME1    -0.0509
     12 C8         13.1975   -7.9443    0.7240 C.ar    1  NONAME1    -0.0564
     13 C9         13.4113   -9.2372    0.2249 C.ar    1  NONAME1    -0.0301
     14 C10        14.7590   -9.9723    0.2935 C.3     1  NONAME1     0.0394
     15 N1         16.0041   -9.2400    0.0000 N.am    1  NONAME1    -0.3004
     16 C11        16.0041   -7.7000    0.0000 C.3     1  NONAME1     0.0035
     17 C12        17.3378  -10.0100    0.0000 C.2     1  NONAME1     0.2125
     18 C13        18.6715   -9.2400    0.0000 C.3     1  NONAME1     0.0124
     19 O2         17.2984  -11.2416    0.0861 O.2     1  NONAME1    -0.2759
     20 C14        12.2687   -9.9145   -0.2503 C.ar    1  NONAME1    -0.0564
     21 C15        10.9929   -9.3003   -0.2961 C.ar    1  NONAME1    -0.0509
     22 H1          3.4751   -2.9879    1.3001 H       1  NONAME1     0.0238
     23 H2          2.0008   -2.6950    2.3103 H       1  NONAME1     0.0238
     24 H3          3.6546   -2.7109    3.0665 H       1  NONAME1     0.0238
     25 H4          4.8695   -4.5742    3.3062 H       1  NONAME1     0.0377
     26 H5          5.5086   -3.5452    2.0056 H       1  NONAME1     0.0377
     27 H6          8.0815   -8.6138    0.8131 H       1  NONAME1     0.0461
     28 H7          8.2767   -8.6187   -0.9471 H       1  NONAME1     0.0461
     29 H8         11.8558   -6.2773    0.9699 H       1  NONAME1     0.0625
     30 H9         13.9900   -7.3869    1.2106 H       1  NONAME1     0.0621
     31 H10        14.7399  -10.8221   -0.3994 H       1  NONAME1     0.0514
     32 H11        14.8634  -10.3882    1.3024 H       1  NONAME1     0.0514
     33 H12        17.0935   -7.5750   -0.0423 H       1  NONAME1     0.0429
     34 H13        16.0041   -6.1600    0.0000 H       1  NONAME1     0.0429
     35 H14        15.6195   -7.6329   -1.0363 H       1  NONAME1     0.0429
     36 H15        19.2875  -10.1238   -0.2698 H       1  NONAME1     0.0323
     37 H16        20.0052   -8.4700    0.0000 H       1  NONAME1     0.0323
     38 H17        18.6813   -9.1173    1.1041 H       1  NONAME1     0.0323
     39 H18        12.3560  -10.9486   -0.5846 H       1  NONAME1     0.0621
     40 H19        10.1601   -9.8844   -0.6763 H       1  NONAME1     0.0625
@<TRIPOS>BOND
     1     1     2    1
     2     2     3    1
     3     3     4    1
     4     4     5    2
     5     4     6    1
     6     6     7    1
     7     7     8    1
     8     8     9    2
     9     8    10    1
    10    10    11   ar
    11    11    12   ar
    12    12    13   ar
    13    13    14    1
    14    14    15    1
    15    15    16    1
    16    15    17   am
    17    17    18    1
    18    17    19    2
    19    13    20   ar
    20    20    21   ar
    21    10    21   ar
    22     1    22    1
    23     1    23    1
    24     1    24    1
    25     2    25    1
    26     2    26    1
    27     7    27    1
    28     7    28    1
    29    11    29    1
    30    12    30    1
    31    14    31    1
    32    14    32    1
    33    16    33    1
    34    16    34    1
    35    16    35    1
    36    18    36    1
    37    18    37    1
    38    18    38    1
    39    20    39    1
    40    21    40    1
