@<TRIPOS>MOLECULE

63 67 1
SMALL
USER_CHARGES
@<TRIPOS>ATOM
1	N1     7.7598    10.1058     0.0000	N.3	1	noname	-0.1469
2	C1     9.2998    10.1058     0.0000	C.2	1	noname	-0.0028
3	C2    10.0698    11.4394     0.0000	C.2	1	noname	-0.0564
4	C3    11.6098    11.4394     0.0000	C.2	1	noname	-0.0397
5	C4    12.3798    10.1058     0.0000	C.2	1	noname	-0.0603
6	C5    13.9198    10.1058     0.0000	C.2	1	noname	0.0258
7	C6    14.8250    11.3516     0.0000	C.2	1	noname	-0.0227
8	C7    16.2896    10.8758     0.0000	C.2	1	noname	-0.0263
9	C8    16.2896     9.3358     0.0000	C.2	1	noname	0.0034
10	S1    14.8250     8.8599     0.0000	S.3	1	noname	-0.2256
11	C9    11.6098     8.7721     0.0000	C.2	1	noname	-0.0152
12	C10    10.0698     8.7721     0.0000	C.2	1	noname	-0.0279
13	N2     9.2998     7.4384     0.0000	N.3	1	noname	-0.1380
14	C11    10.0698     6.1047     0.0000	C.2	1	noname	0.0850
15	O1    11.6098     6.1047     0.0000	O.2	1	noname	-0.2775
16	C12     9.2998     4.7710     0.0000	C.2	1	noname	-0.0095
17	C13    10.0698     3.4374     0.0000	C.2	1	noname	-0.0097
18	C14     9.2998     2.1037     0.0000	C.2	1	noname	-0.0365
19	C15     7.7598     2.1037     0.0000	C.2	1	noname	-0.0259
20	C16     6.9898     0.7700     0.0000	C.3	1	noname	0.0234
21	N3     5.4498     0.7700     0.0000	N.3	1	noname	-0.2984
22	C17     4.6798    -0.5637     0.0000	C.3	1	noname	0.0053
23	C18     3.1398    -0.5637     0.0000	C.3	1	noname	0.0141
24	C19     2.3698     0.7700     0.0000	C.3	1	noname	0.0119
25	C20     1.4646    -0.4759     0.0000	C.3	1	noname	0.0074
26	C21     0.0000    -0.0000     0.0000	C.3	1	noname	0.0022
27	C22    -0.0000     1.5400     0.0000	C.3	1	noname	-0.0118
28	N4     1.4646     2.0159     0.0000	N.4	1	noname	0.0022
29	C23     3.1398     2.1037     0.0000	C.3	1	noname	0.0141
30	C24     4.6798     2.1037     0.0000	C.3	1	noname	0.0053
31	C25     6.9898     3.4374     0.0000	C.2	1	noname	-0.0365
32	C26     7.7598     4.7710     0.0000	C.2	1	noname	-0.0097
33	H1     6.9898    11.4394     0.0000	H	1	noname	0.1243
34	H2     6.9898     8.7721     0.0000	H	1	noname	0.1243
35	H3     9.2998    12.7731     0.0000	H	1	noname	0.0639
36	H4    12.3798    12.7731     0.0000	H	1	noname	0.0629
37	H5    14.3491    12.8163     0.0000	H	1	noname	0.0637
38	H6    17.5355    11.7809     0.0000	H	1	noname	0.0631
39	H7    17.5355     8.4306     0.0000	H	1	noname	0.0739
40	H8    12.3798     7.4384     0.0000	H	1	noname	0.0646
41	H9     7.7598     7.4384     0.0000	H	1	noname	0.1375
42	H10    11.6098     3.4374     0.0000	H	1	noname	0.0630
43	H11    10.0698     0.7700     0.0000	H	1	noname	0.0626
44	H12     8.2958    -0.0461     0.0000	H	1	noname	0.0481
45	H13     7.0436    -0.7691     0.0000	H	1	noname	0.0481
46	H14     5.9858    -1.3798     0.0000	H	1	noname	0.0433
47	H15     4.7336    -2.1027     0.0000	H	1	noname	0.0433
48	H16     3.0861    -2.1027     0.0000	H	1	noname	0.0352
49	H17     1.8338    -1.3798     0.0000	H	1	noname	0.0352
50	H18     1.2876    -2.0057     0.0000	H	1	noname	0.0342
51	H19     0.7086    -1.8176     0.0000	H	1	noname	0.0342
52	H20    -0.6411    -1.4002     0.0000	H	1	noname	0.0335
53	H21    -1.5298    -0.1770     0.0000	H	1	noname	0.0335
54	H22    -1.5298     1.7170     0.0000	H	1	noname	0.0940
55	H23    -0.6411     2.9402     0.0000	H	1	noname	0.0940
56	H24     1.1602     3.5255     0.0000	H	1	noname	0.2571
57	H25     2.5982     3.0583     0.0000	H	1	noname	0.2571
58	H26     3.0324     3.6399     0.0000	H	1	noname	0.0352
59	H27     3.5643     3.5840     0.0000	H	1	noname	0.0352
60	H28     4.7336     3.6427     0.0000	H	1	noname	0.0433
61	H29     5.9858     2.9198     0.0000	H	1	noname	0.0433
62	H30     5.4498     3.4374     0.0000	H	1	noname	0.0626
63	H31     6.9898     6.1047     0.0000	H	1	noname	0.0630
@<TRIPOS>BOND
1	1	2	1
2	2	3	2
3	3	4	1
4	4	5	2
5	5	6	1
6	6	7	2
7	7	8	1
8	8	9	2
9	9	10	1
10	6	10	1
11	5	11	1
12	11	12	2
13	2	12	1
14	12	13	1
15	13	14	1
16	14	15	2
17	14	16	1
18	16	17	2
19	17	18	1
20	18	19	2
21	19	20	1
22	20	21	1
23	21	22	1
24	22	23	1
25	23	24	1
26	24	25	1
27	25	26	1
28	26	27	1
29	27	28	1
30	24	28	1
31	24	29	1
32	29	30	1
33	21	30	1
34	19	31	1
35	31	32	2
36	16	32	1
37	1	33	1
38	1	34	1
39	3	35	1
40	4	36	1
41	7	37	1
42	8	38	1
43	9	39	1
44	11	40	1
45	13	41	1
46	17	42	1
47	18	43	1
48	20	44	1
49	20	45	1
50	22	46	1
51	22	47	1
52	23	48	1
53	23	49	1
54	25	50	1
55	25	51	1
56	26	52	1
57	26	53	1
58	27	54	1
59	27	55	1
60	28	56	1
61	28	57	1
62	29	58	1
63	29	59	1
64	30	60	1
65	30	61	1
66	31	62	1
67	32	63	1
@<TRIPOS>SUBSTRUCTURE
1	noname	1
