@<TRIPOS>MOLECULE
*****
 59 61 0 0 0
SMALL
USER_CHARGES

@<TRIPOS>ATOM
      1 N1         -1.5982  -10.6788    2.4599 N.3     1  NONAME1    -0.1934
      2 S1         -0.2500  -11.4199    2.5292 S.O2    1  NONAME1     0.0921
      3 O1         -0.9670  -12.6897    2.3921 O.2     1  NONAME1    -0.1415
      4 O2         -0.0789  -10.8660    3.8756 O.2     1  NONAME1    -0.1415
      5 N2          1.0983  -12.1609    2.5985 N.3     1  NONAME1    -0.1801
      6 C1          2.3535  -11.3876    2.7213 C.3     1  NONAME1     0.0184
      7 C2          2.5959  -10.4218    1.5456 C.3     1  NONAME1    -0.0387
      8 C3          1.9787   -8.9973    1.6568 C.3     1  NONAME1    -0.0498
      9 C4          2.0791   -8.0870    0.3785 C.3     1  NONAME1    -0.0287
     10 C5          3.5183   -7.4935    0.0000 C.3     1  NONAME1     0.0699
     11 N3          4.8718   -7.8919   -0.3742 N.am    1  NONAME1    -0.2728
     12 C6          5.9747   -7.6829    0.4116 C.2     1  NONAME1     0.4011
     13 O3          5.9538   -7.3114    1.5757 O.2     1  NONAME1    -0.2265
     14 O4          7.1040   -7.9417   -0.3124 O.3     1  NONAME1    -0.4456
     15 C7          8.3104   -7.3215    0.1728 C.3     1  NONAME1     0.1191
     16 C8          9.5731   -8.1557    0.0201 C.ar    1  NONAME1    -0.0103
     17 C9         10.8203   -7.4934    0.0086 C.ar    1  NONAME1    -0.0554
     18 C10        12.0191   -8.2092   -0.0418 C.ar    1  NONAME1    -0.0614
     19 C11        11.9964   -9.6017   -0.0774 C.ar    1  NONAME1    -0.0617
     20 C12        10.7723  -10.2734   -0.0590 C.ar    1  NONAME1    -0.0614
     21 C13         9.5691   -9.5527   -0.0059 C.ar    1  NONAME1    -0.0554
     22 C14         3.5183   -5.9535    0.0000 C.ar    1  NONAME1     0.0797
     23 C15         2.4515   -5.1147    0.2729 C.ar    1  NONAME1     0.0266
     24 N4          2.9250   -3.8435    0.1767 N.ar    1  NONAME1    -0.3441
     25 C16         4.2589   -3.8957   -0.1346 C.ar    1  NONAME1     0.1385
     26 C17         5.0984   -2.6916   -0.1797 C.ar    1  NONAME1     0.0173
     27 C18         4.5436   -1.3979   -0.2171 C.ar    1  NONAME1    -0.0511
     28 C19         5.3575   -0.2629   -0.1707 C.ar    1  NONAME1    -0.0611
     29 C20         6.7392   -0.4039   -0.0982 C.ar    1  NONAME1    -0.0617
     30 C21         7.3062   -1.6773   -0.0828 C.ar    1  NONAME1    -0.0611
     31 C22         6.4910   -2.8130   -0.1253 C.ar    1  NONAME1    -0.0511
     32 N5          4.6245   -5.1599   -0.3013 N.ar    1  NONAME1    -0.2308
     33 H1         -1.7383  -10.1983    3.3502 H       1  NONAME1     0.1453
     34 H2         -2.3377  -11.3721    2.3354 H       1  NONAME1     0.1453
     35 H3          1.0445  -13.0142    3.1493 H       1  NONAME1     0.1491
     36 H4          3.1611  -12.1310    2.7138 H       1  NONAME1     0.0442
     37 H5          2.4204  -10.8763    3.6867 H       1  NONAME1     0.0442
     38 H6          3.6858  -10.3062    1.4910 H       1  NONAME1     0.0278
     39 H7          2.2699  -10.8928    0.6096 H       1  NONAME1     0.0278
     40 H8          2.4195   -8.4687    2.5086 H       1  NONAME1     0.0266
     41 H9          0.9098   -9.0909    1.8661 H       1  NONAME1     0.0266
     42 H10         1.6776   -8.6287   -0.4943 H       1  NONAME1     0.0287
     43 H11         1.3427   -7.2979    0.5328 H       1  NONAME1     0.0287
     44 H12         3.5183   -9.0335    0.0000 H       1  NONAME1     0.0565
     45 H13         5.0786   -8.0417   -1.3487 H       1  NONAME1     0.1527
     46 H14         8.2353   -7.0140    1.2210 H       1  NONAME1     0.0749
     47 H15         8.4354   -6.4206   -0.4404 H       1  NONAME1     0.0749
     48 H16        10.8601   -6.4071    0.0505 H       1  NONAME1     0.0621
     49 H17        12.9697   -7.6788   -0.0460 H       1  NONAME1     0.0618
     50 H18        12.9304  -10.1587   -0.1035 H       1  NONAME1     0.0618
     51 H19        10.7634  -11.3571   -0.0770 H       1  NONAME1     0.0618
     52 H20         8.6324  -10.1021    0.0200 H       1  NONAME1     0.0621
     53 H21         1.4207   -5.2842    0.5442 H       1  NONAME1     0.0826
     54 H22         2.3983   -3.0055    0.3709 H       1  NONAME1     0.1668
     55 H23         3.4707   -1.2421   -0.2790 H       1  NONAME1     0.0625
     56 H24         4.9102    0.7283   -0.1843 H       1  NONAME1     0.0618
     57 H25         7.3739    0.4770   -0.0522 H       1  NONAME1     0.0618
     58 H26         8.3852   -1.7902   -0.0257 H       1  NONAME1     0.0618
     59 H27         6.9455   -3.8013   -0.0919 H       1  NONAME1     0.0625
@<TRIPOS>BOND
     1     1     2    1
     2     2     3    2
     3     2     4    2
     4     2     5    1
     5     5     6    1
     6     6     7    1
     7     7     8    1
     8     8     9    1
     9    10     9    1
    10    10    11    1
    11    11    12   am
    12    12    13    2
    13    12    14    1
    14    14    15    1
    15    15    16    1
    16    16    17   ar
    17    17    18   ar
    18    18    19   ar
    19    19    20   ar
    20    20    21   ar
    21    16    21   ar
    22    10    22    1
    23    22    23   ar
    24    23    24   ar
    25    24    25   ar
    26    25    26    1
    27    26    27   ar
    28    27    28   ar
    29    28    29   ar
    30    29    30   ar
    31    30    31   ar
    32    26    31   ar
    33    25    32   ar
    34    22    32   ar
    35     1    33    1
    36     1    34    1
    37     5    35    1
    38     6    36    1
    39     6    37    1
    40     7    38    1
    41     7    39    1
    42     8    40    1
    43     8    41    1
    44     9    42    1
    45     9    43    1
    46    10    44    1
    47    11    45    1
    48    15    46    1
    49    15    47    1
    50    17    48    1
    51    18    49    1
    52    19    50    1
    53    20    51    1
    54    21    52    1
    55    23    53    1
    56    24    54    1
    57    27    55    1
    58    28    56    1
    59    29    57    1
    60    30    58    1
    61    31    59    1
