REMARK  12 active torsions:
REMARK  status: ('A' for Active; 'I' for Inactive)
REMARK    1  A    between atoms: N1_1  and  C1_2 
REMARK    2  A    between atoms: C4_5  and  N2_6 
REMARK    3  A    between atoms: C6_8  and  C7_9 
REMARK    4  A    between atoms: C11_13  and  N3_14 
REMARK       I    between atoms: N3_14  and  C12_15 
REMARK    5  A    between atoms: C12_15  and  C13_17 
REMARK    6  A    between atoms: C13_17  and  C14_18 
REMARK    7  A    between atoms: C14_18  and  C15_19 
REMARK    8  A    between atoms: C15_19  and  C16_20 
REMARK    9  A    between atoms: C16_20  and  C17_21 
REMARK   10  A    between atoms: C17_21  and  C18_22 
REMARK   11  A    between atoms: C18_22  and  C19_23 
REMARK       I    between atoms: C19_23  and  N4_25 
REMARK   12  A    between atoms: N4_25  and  O3_26 
ROOT
ATOM      1  C7  NON d   1       1.318  -0.908  -0.001  0.00  0.00    -0.003 A 
ATOM      2  C8  NON d   1       0.208  -0.053   0.007  0.00  0.00     0.014 A 
ATOM      3  C9  NON d   1       0.381   1.331   0.048  0.00  0.00     0.003 A 
ATOM      4  C10 NON d   1       1.666   1.875   0.082  0.00  0.00     0.029 A 
ATOM      5  C11 NON d   1       2.794   1.044   0.073  0.00  0.00     0.035 A 
ATOM      6  C20 NON d   1       2.608  -0.342   0.030  0.00  0.00     0.043 A 
ENDROOT
BRANCH   5   7
ATOM      7  N3  NON d   1       4.055   1.676   0.107  0.00  0.00    -0.327 N 
ATOM      8  C12 NON d   1       5.301   1.074   0.034  0.00  0.00     0.222 C 
ATOM      9  O1  NON d   1       5.528  -0.121  -0.084  0.00  0.00    -0.273 OA
ATOM     10  H9  NON d   1       4.045   2.687   0.164  0.00  0.00     0.169 HD
BRANCH   8  11
ATOM     11  C13 NON d   1       6.425   2.103   0.098  0.00  0.00     0.103 C 
BRANCH  11  12
ATOM     12  C14 NON d   1       7.823   1.502  -0.086  0.00  0.00     0.009 C 
BRANCH  12  13
ATOM     13  C15 NON d   1       8.345   0.822   1.185  0.00  0.00     0.000 C 
BRANCH  13  14
ATOM     14  C16 NON d   1       9.654   0.045   0.982  0.00  0.00     0.000 C 
BRANCH  14  15
ATOM     15  C17 NON d   1      10.944   0.855   1.166  0.00  0.00     0.009 C 
BRANCH  15  16
ATOM     16  C18 NON d   1      11.275   1.784   0.002  0.00  0.00     0.105 C 
BRANCH  16  17
ATOM     17  C19 NON d   1      12.658   2.411   0.108  0.00  0.00     0.240 C 
ATOM     18  O2  NON d   1      13.403   2.267   1.074  0.00  0.00    -0.271 OA
ATOM     19  N4  NON d   1      12.939   3.186  -1.001  0.00  0.00    -0.237 N 
ATOM     20  H22 NON d   1      12.371   3.169  -1.840  0.00  0.00     0.197 HD
BRANCH  19  21
ATOM     21  O3  NON d   1      14.245   3.694  -1.132  0.00  0.00    -0.287 OA
ATOM     22  H23 NON d   1      14.096   4.656  -1.085  0.00  0.00     0.244 HD
ENDBRANCH  19  21
ENDBRANCH  16  17
ENDBRANCH  15  16
ENDBRANCH  14  15
ENDBRANCH  13  14
ENDBRANCH  12  13
ENDBRANCH  11  12
ENDBRANCH   8  11
ENDBRANCH   5   7
BRANCH   1  23
ATOM     23  C6  NON d   1       1.173  -2.357  -0.029  0.00  0.00     0.102 A 
ATOM     24  C5  NON d   1       0.001  -3.087  -0.024  0.00  0.00     0.148 A 
ATOM     25  N2  NON d   1       0.408  -4.405  -0.024  0.00  0.00    -0.247 N 
ATOM     26  N6  NON d   1       1.761  -4.458  -0.050  0.00  0.00     0.010 NA
ATOM     27  N5  NON d   1       2.230  -3.220  -0.052  0.00  0.00    -0.158 NA
BRANCH  25  28
ATOM     28  C4  NON d   1      -0.379  -5.585  -0.004  0.00  0.00     0.054 A 
ATOM     29  C3  NON d   1      -1.776  -5.524   0.017  0.00  0.00     0.033 A 
ATOM     30  C2  NON d   1      -2.528  -6.705   0.041  0.00  0.00     0.025 A 
ATOM     31  C1  NON d   1      -1.907  -7.955  -0.003  0.00  0.00     0.005 A 
ATOM     32  C22 NON d   1      -0.513  -8.009   0.031  0.00  0.00     0.025 A 
ATOM     33  C21 NON d   1       0.251  -6.838   0.004  0.00  0.00     0.033 A 
BRANCH  31  34
ATOM     34  N1  NON d   1      -2.662  -9.122   0.155  0.00  0.00    -0.303 NA
ATOM     35  H1  NON d   1      -3.614  -9.049  -0.190  0.00  0.00     0.124 HD
ATOM     36  H2  NON d   1      -2.197  -9.961  -0.179  0.00  0.00     0.124 HD
ENDBRANCH  31  34
ENDBRANCH  25  28
ENDBRANCH   1  23
TORSDOF 12
