@<TRIPOS>MOLECULE
*****
 64 67 0 0 0
SMALL
USER_CHARGES

@<TRIPOS>ATOM
      1 O1         14.2342   -2.3951    1.1383 O.2     1  NONAME1    -0.2737
      2 C1         14.5971   -2.4711   -0.0300 C.2     1  NONAME1     0.2354
      3 C2         14.1453   -1.5230   -1.1300 C.3     1  NONAME1     0.0259
      4 C3         12.9801   -0.5861   -0.7924 C.3     1  NONAME1    -0.0447
      5 C4         11.5721   -1.1735   -1.0125 C.3     1  NONAME1    -0.0522
      6 C5         11.0218   -1.9518    0.1885 C.3     1  NONAME1    -0.0448
      7 C6          9.5917   -2.4824   -0.0366 C.3     1  NONAME1     0.0242
      8 C7          8.4505   -1.4871    0.2386 C.2     1  NONAME1     0.2164
      9 O2          8.6361   -0.4705    0.9034 O.2     1  NONAME1    -0.2756
     10 N1          7.1817   -1.8445   -0.2716 N.am    1  NONAME1    -0.2839
     11 C8          6.0738   -0.8783   -0.0676 C.3     1  NONAME1     0.0919
     12 C9          6.2233    0.6216   -0.4118 C.2     1  NONAME1     0.2360
     13 O3          7.2309    1.1043   -0.9347 O.2     1  NONAME1    -0.2737
     14 N2          5.1727    1.4729   -0.1570 N.am    1  NONAME1    -0.2634
     15 C10         3.8600    1.1170    0.0107 C.ar    1  NONAME1     0.1655
     16 N3          3.3219   -0.0704    0.0562 N.ar    1  NONAME1    -0.2246
     17 C11         1.9354    0.0542    0.0482 C.ar    1  NONAME1     0.0803
     18 C12         1.0004   -1.0010   -0.0043 C.ar    1  NONAME1    -0.0351
     19 C13        -0.3719   -0.7399   -0.0077 C.ar    1  NONAME1    -0.0597
     20 C14        -0.8291    0.5700    0.0393 C.ar    1  NONAME1    -0.0606
     21 C15         0.0684    1.6417    0.0815 C.ar    1  NONAME1    -0.0458
     22 C16         1.4483    1.3637    0.0791 C.ar    1  NONAME1     0.0408
     23 S1          2.7914    2.4474    0.0871 S.2     1  NONAME1    -0.0520
     24 C17         6.8153   -3.2853   -0.2334 C.3     1  NONAME1     0.0919
     25 C18         5.3634   -3.7698   -0.5130 C.2     1  NONAME1     0.2360
     26 O4          4.5915   -3.1556   -1.2444 O.2     1  NONAME1    -0.2737
     27 N4          5.0678   -5.0016    0.0566 N.am    1  NONAME1    -0.2634
     28 C19         3.7904   -5.5204    0.0858 C.ar    1  NONAME1     0.1655
     29 N5          3.5198   -6.8044    0.1162 N.ar    1  NONAME1    -0.2246
     30 C20         2.1345   -6.9828    0.1057 C.ar    1  NONAME1     0.0803
     31 C21         1.4412   -8.2087    0.0297 C.ar    1  NONAME1    -0.0351
     32 C22         0.0385   -8.2214    0.0058 C.ar    1  NONAME1    -0.0597
     33 C23        -0.6830   -7.0332    0.0679 C.ar    1  NONAME1    -0.0606
     34 C24        -0.0234   -5.8061    0.1605 C.ar    1  NONAME1    -0.0458
     35 C25         1.3866   -5.8085    0.1740 C.ar    1  NONAME1     0.0408
     36 S2          2.4562   -4.4817    0.2740 S.2     1  NONAME1    -0.0520
     37 N6         15.5335   -3.3789   -0.4960 N.am    1  NONAME1    -0.1975
     38 O5         15.8617   -4.4306    0.3882 O.3     1  NONAME1    -0.2952
     39 H1         15.0217   -0.8997   -1.3580 H       1  NONAME1     0.0359
     40 H2         13.9187   -2.0998   -2.0339 H       1  NONAME1     0.0359
     41 H3         13.0774   -0.1791    0.2199 H       1  NONAME1     0.0270
     42 H4         13.0685    0.2688   -1.4775 H       1  NONAME1     0.0270
     43 H5         11.5715   -1.8095   -1.9062 H       1  NONAME1     0.0266
     44 H6         10.8898   -0.3406   -1.2229 H       1  NONAME1     0.0266
     45 H7         11.0643   -1.3264    1.0872 H       1  NONAME1     0.0270
     46 H8         11.6756   -2.8136    0.3656 H       1  NONAME1     0.0270
     47 H9          9.5039   -2.8701   -1.0568 H       1  NONAME1     0.0358
     48 H10         9.4446   -3.3163    0.6605 H       1  NONAME1     0.0358
     49 H11         5.3056   -1.1779   -0.7749 H       1  NONAME1     0.0560
     50 H12         5.7204   -0.9851    0.9626 H       1  NONAME1     0.0560
     51 H13         5.3594    2.4495   -0.3310 H       1  NONAME1     0.1568
     52 H14         1.3592   -2.0167   -0.0648 H       1  NONAME1     0.0639
     53 H15        -1.0776   -1.5654   -0.0545 H       1  NONAME1     0.0618
     54 H16        -1.9016    0.7618    0.0281 H       1  NONAME1     0.0618
     55 H17        -0.2955    2.6644    0.1014 H       1  NONAME1     0.0629
     56 H18         7.4544   -3.8070   -0.9540 H       1  NONAME1     0.0560
     57 H19         7.0870   -3.6451    0.7684 H       1  NONAME1     0.0560
     58 H20         5.7980   -5.6914    0.1571 H       1  NONAME1     0.1568
     59 H21         1.9987   -9.1380   -0.0266 H       1  NONAME1     0.0639
     60 H22        -0.4915   -9.1684   -0.0667 H       1  NONAME1     0.0618
     61 H23        -1.7713   -7.0578    0.0424 H       1  NONAME1     0.0618
     62 H24        -0.5835   -4.8762    0.2084 H       1  NONAME1     0.0629
     63 H25        15.5518   -3.6237   -1.4800 H       1  NONAME1     0.1822
     64 H26        16.5300   -4.0130    0.9643 H       1  NONAME1     0.2414
@<TRIPOS>BOND
     1     1     2    2
     2     2     3    1
     3     3     4    1
     4     4     5    1
     5     5     6    1
     6     6     7    1
     7     7     8    1
     8     8     9    2
     9     8    10   am
    10    10    11    1
    11    11    12    1
    12    12    13    2
    13    12    14   am
    14    14    15    1
    15    15    16   ar
    16    16    17   ar
    17    17    18   ar
    18    18    19   ar
    19    19    20   ar
    20    20    21   ar
    21    21    22   ar
    22    17    22   ar
    23    22    23   ar
    24    15    23   ar
    25    10    24    1
    26    24    25    1
    27    25    26    2
    28    25    27   am
    29    27    28    1
    30    28    29   ar
    31    29    30   ar
    32    30    31   ar
    33    31    32   ar
    34    32    33   ar
    35    33    34   ar
    36    34    35   ar
    37    30    35   ar
    38    35    36   ar
    39    28    36   ar
    40     2    37   am
    41    37    38    1
    42     3    39    1
    43     3    40    1
    44     4    41    1
    45     4    42    1
    46     5    43    1
    47     5    44    1
    48     6    45    1
    49     6    46    1
    50     7    47    1
    51     7    48    1
    52    11    49    1
    53    11    50    1
    54    14    51    1
    55    18    52    1
    56    19    53    1
    57    20    54    1
    58    21    55    1
    59    24    56    1
    60    24    57    1
    61    27    58    1
    62    31    59    1
    63    32    60    1
    64    33    61    1
    65    34    62    1
    66    37    63    1
    67    38    64    1
