REMARK  8 active torsions:
REMARK  status: ('A' for Active; 'I' for Inactive)
REMARK    1  A    between atoms: O1_2  and  C2_3 
REMARK    2  A    between atoms: C5_6  and  N1_7 
REMARK       I    between atoms: N1_7  and  C6_8 
REMARK    3  A    between atoms: C6_8  and  C7_10 
REMARK    4  A    between atoms: C7_10  and  C8_11 
REMARK    5  A    between atoms: C8_11  and  C9_12 
REMARK    6  A    between atoms: C9_12  and  C10_13 
REMARK    7  A    between atoms: C10_13  and  C11_14 
REMARK       I    between atoms: C11_14  and  N2_16 
REMARK    8  A    between atoms: N2_16  and  O4_17 
ROOT
ATOM      1  N1  NON d   1       1.047   4.791   0.046  0.00  0.00    -0.327 N 
ATOM      2  C6  NON d   1       2.319   4.238   0.103  0.00  0.00     0.222 C 
ATOM      3  O2  NON d   1       2.580   3.038   0.145  0.00  0.00    -0.273 OA
ATOM      4  H6  NON d   1       0.991   5.801   0.078  0.00  0.00     0.169 HD
ENDROOT
BRANCH   2   5
ATOM      5  C7  NON d   1       3.426   5.293   0.129  0.00  0.00     0.103 C 
BRANCH   5   6
ATOM      6  C8  NON d   1       4.812   4.639   0.111  0.00  0.00     0.010 C 
BRANCH   6   7
ATOM      7  C9  NON d   1       5.991   5.606  -0.052  0.00  0.00     0.010 C 
BRANCH   7   8
ATOM      8  C10 NON d   1       6.509   6.211   1.254  0.00  0.00     0.105 C 
BRANCH   8   9
ATOM      9  C11 NON d   1       5.824   7.495   1.683  0.00  0.00     0.240 C 
ATOM     10  O3  NON d   1       4.912   8.024   1.064  0.00  0.00    -0.271 OA
ATOM     11  N2  NON d   1       6.403   8.017   2.828  0.00  0.00    -0.237 N 
ATOM     12  H15 NON d   1       6.887   7.410   3.482  0.00  0.00     0.197 HD
BRANCH  11  13
ATOM     13  O4  NON d   1       5.726   9.112   3.408  0.00  0.00    -0.287 OA
ATOM     14  H16 NON d   1       6.044   9.859   2.865  0.00  0.00     0.244 HD
ENDBRANCH  11  13
ENDBRANCH   8   9
ENDBRANCH   7   8
ENDBRANCH   6   7
ENDBRANCH   5   6
ENDBRANCH   2   5
BRANCH   1  15
ATOM     15  C5  NON d   1      -0.186   4.094   0.003  0.00  0.00     0.034 A 
ATOM     16  C4  NON d   1      -1.367   4.844   0.042  0.00  0.00     0.032 A 
ATOM     17  C3  NON d   1      -2.623   4.213   0.031  0.00  0.00     0.039 A 
ATOM     18  C2  NON d   1      -2.724   2.822  -0.027  0.00  0.00     0.068 A 
ATOM     19  C13 NON d   1      -1.551   2.072  -0.094  0.00  0.00     0.039 A 
ATOM     20  C12 NON d   1      -0.295   2.705  -0.079  0.00  0.00     0.032 A 
BRANCH  18  21
ATOM     21  O1  NON d   1      -4.001   2.310   0.000  0.00  0.00    -0.356 OA
ATOM     22  C1  NON d   1      -4.001   0.770   0.000  0.00  0.00     0.210 C 
ENDBRANCH  18  21
ENDBRANCH   1  15
TORSDOF 8
