REMARK  7 active torsions:
REMARK  status: ('A' for Active; 'I' for Inactive)
REMARK    1  A    between atoms: C2_2  and  C3_3 
REMARK    2  A    between atoms: C3_3  and  C4_4 
REMARK    3  A    between atoms: C4_4  and  S1_5 
REMARK    4  A    between atoms: S1_5  and  N1_8 
REMARK    5  A    between atoms: C9_13  and  C10_14 
REMARK    6  A    between atoms: C11_15  and  C12_16 
REMARK       I    between atoms: C12_16  and  N2_18 
REMARK    7  A    between atoms: N2_18  and  O4_19 
ROOT
ATOM      1  N1  NON d   1       1.220  -1.303   0.000  0.00  0.00    -0.302 N 
ATOM      2  C5  NON d   1       2.109  -0.136  -0.222  0.00  0.00     0.174 C 
ATOM      3  C6  NON d   1       3.497  -0.728  -0.214  0.00  0.00    -0.032 A 
ATOM      4  C7  NON d   1       4.721  -0.088  -0.199  0.00  0.00     0.010 A 
ATOM      5  C8  NON d   1       5.884  -0.873  -0.159  0.00  0.00     0.012 A 
ATOM      6  C9  NON d   1       5.833  -2.287  -0.140  0.00  0.00    -0.035 A 
ATOM      7  C13 NON d   1       4.574  -2.909  -0.165  0.00  0.00     0.021 A 
ATOM      8  C14 NON d   1       3.426  -2.122  -0.200  0.00  0.00    -0.031 A 
ATOM      9  C15 NON d   1       1.989  -2.549  -0.211  0.00  0.00     0.174 C 
ENDROOT
BRANCH   6  10
ATOM     10  C10 NON d   1       7.114  -3.027  -0.074  0.00  0.00     0.017 C 
ATOM     11  C11 NON d   1       7.274  -4.362  -0.085  0.00  0.00     0.077 C 
BRANCH  11  12
ATOM     12  C12 NON d   1       8.635  -4.973   0.005  0.00  0.00     0.264 C 
ATOM     13  O3  NON d   1       9.649  -4.310   0.197  0.00  0.00    -0.266 OA
ATOM     14  N2  NON d   1       8.610  -6.338  -0.149  0.00  0.00    -0.234 N 
ATOM     15  H16 NON d   1       7.807  -6.838  -0.510  0.00  0.00     0.197 HD
BRANCH  14  16
ATOM     16  O4  NON d   1       9.853  -6.978  -0.339  0.00  0.00    -0.287 OA
ATOM     17  H17 NON d   1      10.278  -6.872   0.533  0.00  0.00     0.244 HD
ENDBRANCH  14  16
ENDBRANCH  11  12
ENDBRANCH   6  10
BRANCH   1  18
ATOM     18  S1  NON d   1      -0.320  -1.303   0.000  0.00  0.00     0.229 S 
ATOM     19  O1  NON d   1      -0.335  -0.142   0.912  0.00  0.00    -0.206 OA
ATOM     20  O2  NON d   1      -0.317  -1.082  -1.460  0.00  0.00    -0.206 OA
BRANCH  18  21
ATOM     21  C4  NON d   1      -1.860  -1.303   0.000  0.00  0.00     0.163 C 
BRANCH  21  22
ATOM     22  C3  NON d   1      -2.549  -1.893   1.242  0.00  0.00     0.016 C 
BRANCH  22  23
ATOM     23  C2  NON d   1      -4.068  -1.690   1.244  0.00  0.00    -0.004 C 
ATOM     24  C1  NON d   1      -4.798  -2.472   0.162  0.00  0.00     0.005 C 
ENDBRANCH  22  23
ENDBRANCH  21  22
ENDBRANCH  18  21
ENDBRANCH   1  18
TORSDOF 7
