@<TRIPOS>MOLECULE
*****
 52 53 0 0 0
SMALL
USER_CHARGES

@<TRIPOS>ATOM
      1 O1          6.6449   -9.2041   -3.1914 O.2     1  NONAME1    -0.2737
      2 C1          6.3827  -10.2361   -2.5777 C.2     1  NONAME1     0.2354
      3 C2          4.9913  -10.8202   -2.4100 C.3     1  NONAME1     0.0259
      4 C3          3.8315   -9.8632   -2.6858 C.3     1  NONAME1    -0.0447
      5 C4          3.3465   -9.0851   -1.4534 C.3     1  NONAME1    -0.0526
      6 C5          4.1240   -7.7951   -1.2019 C.3     1  NONAME1    -0.0527
      7 C6          3.6692   -7.0313    0.0520 C.3     1  NONAME1    -0.0460
      8 C7          2.4127   -6.1647   -0.1230 C.3     1  NONAME1     0.0105
      9 C8          1.0980   -6.8584    0.2024 C.2     1  NONAME1     0.1632
     10 O2          1.0314   -8.0566    0.4672 O.2     1  NONAME1    -0.2921
     11 C9         -0.1670   -6.0515    0.1898 C.ar    1  NONAME1     0.0175
     12 C10        -1.3889   -6.7143    0.3006 C.ar    1  NONAME1    -0.0495
     13 C11        -2.5996   -5.9994    0.3185 C.ar    1  NONAME1    -0.0400
     14 C12        -2.6605   -4.5972    0.2101 C.ar    1  NONAME1     0.0297
     15 N1         -3.8914   -3.8870    0.2548 N.pl3   1  NONAME1    -0.3299
     16 C13        -5.0824   -4.6502   -0.1755 C.3     1  NONAME1     0.0122
     17 C14        -6.4132   -3.9121   -0.0124 C.3     1  NONAME1    -0.0372
     18 C15        -6.3973   -2.4149   -0.2664 C.3     1  NONAME1    -0.0502
     19 C16        -5.1347   -1.7512    0.2450 C.3     1  NONAME1    -0.0372
     20 C17        -3.8758   -2.4852   -0.2002 C.3     1  NONAME1     0.0122
     21 C18        -1.4071   -3.9574    0.1250 C.ar    1  NONAME1    -0.0400
     22 C19        -0.1877   -4.6616    0.0997 C.ar    1  NONAME1    -0.0495
     23 N2          7.3568  -11.0351   -2.0182 N.am    1  NONAME1    -0.1975
     24 O3          8.6989  -10.6834   -2.2703 O.3     1  NONAME1    -0.2952
     25 H1          4.9353  -11.6360   -3.1447 H       1  NONAME1     0.0359
     26 H2          4.8934  -11.2792   -1.4197 H       1  NONAME1     0.0359
     27 H3          2.9868  -10.4796   -3.0201 H       1  NONAME1     0.0270
     28 H4          4.0600   -9.1791   -3.5100 H       1  NONAME1     0.0270
     29 H5          2.2941   -8.8326   -1.6199 H       1  NONAME1     0.0265
     30 H6          3.3828   -9.7266   -0.5644 H       1  NONAME1     0.0265
     31 H7          4.0576   -7.1415   -2.0802 H       1  NONAME1     0.0265
     32 H8          5.1839   -8.0429   -1.0746 H       1  NONAME1     0.0265
     33 H9          3.5641   -7.7185    0.8999 H       1  NONAME1     0.0269
     34 H10         4.4888   -6.3484    0.3117 H       1  NONAME1     0.0269
     35 H11         2.5088   -5.3319    0.5839 H       1  NONAME1     0.0345
     36 H12         2.3641   -5.7557   -1.1378 H       1  NONAME1     0.0345
     37 H13        -1.4182   -7.7995    0.3855 H       1  NONAME1     0.0625
     38 H14        -3.4948   -6.6034    0.4389 H       1  NONAME1     0.0636
     39 H15        -4.9599   -4.9564   -1.2218 H       1  NONAME1     0.0464
     40 H16        -5.1969   -5.5558    0.4297 H       1  NONAME1     0.0464
     41 H17        -7.1496   -4.3742   -0.6841 H       1  NONAME1     0.0280
     42 H18        -6.7903   -4.0887    1.0025 H       1  NONAME1     0.0280
     43 H19        -7.2682   -1.9594    0.2226 H       1  NONAME1     0.0266
     44 H20        -6.5080   -2.2187   -1.3388 H       1  NONAME1     0.0266
     45 H21        -5.1617   -1.7001    1.3407 H       1  NONAME1     0.0280
     46 H22        -5.1007   -0.7173   -0.1197 H       1  NONAME1     0.0280
     47 H23        -3.0489   -1.9205    0.2374 H       1  NONAME1     0.0464
     48 H24        -3.7820   -2.4473   -1.3004 H       1  NONAME1     0.0464
     49 H25        -1.3239   -2.8771    0.0874 H       1  NONAME1     0.0636
     50 H26         0.7315   -4.0842    0.0298 H       1  NONAME1     0.0625
     51 H27         7.1904  -11.9623   -1.6367 H       1  NONAME1     0.1822
     52 H28         8.6065   -9.9590   -2.9264 H       1  NONAME1     0.2414
@<TRIPOS>BOND
     1     1     2    2
     2     2     3    1
     3     3     4    1
     4     4     5    1
     5     5     6    1
     6     6     7    1
     7     7     8    1
     8     8     9    1
     9     9    10    2
    10     9    11    1
    11    11    12   ar
    12    12    13   ar
    13    13    14   ar
    14    14    15    1
    15    15    16    1
    16    16    17    1
    17    17    18    1
    18    18    19    1
    19    19    20    1
    20    15    20    1
    21    14    21   ar
    22    21    22   ar
    23    11    22   ar
    24     2    23   am
    25    23    24    1
    26     3    25    1
    27     3    26    1
    28     4    27    1
    29     4    28    1
    30     5    29    1
    31     5    30    1
    32     6    31    1
    33     6    32    1
    34     7    33    1
    35     7    34    1
    36     8    35    1
    37     8    36    1
    38    12    37    1
    39    13    38    1
    40    16    39    1
    41    16    40    1
    42    17    41    1
    43    17    42    1
    44    18    43    1
    45    18    44    1
    46    19    45    1
    47    19    46    1
    48    20    47    1
    49    20    48    1
    50    21    49    1
    51    22    50    1
    52    23    51    1
    53    24    52    1
