@<TRIPOS>MOLECULE
*****
 47 50 0 0 0
SMALL
USER_CHARGES

@<TRIPOS>ATOM
      1 N1         -1.1845  -10.0927    0.0690 N.pl3   1  NONAME1    -0.3565
      2 C1         -2.5983  -10.2123    0.0485 C.ar    1  NONAME1     0.0461
      3 C2         -3.1925  -11.4774    0.1624 C.ar    1  NONAME1    -0.0392
      4 C3         -4.5804  -11.6133    0.1219 C.ar    1  NONAME1    -0.0599
      5 C4         -5.3821  -10.4836   -0.0064 C.ar    1  NONAME1    -0.0599
      6 C5         -4.8018   -9.2139   -0.0743 C.ar    1  NONAME1    -0.0387
      7 C6         -3.4121   -9.0602   -0.0297 C.ar    1  NONAME1     0.0545
      8 N2         -2.7538   -7.8012   -0.0241 N.am    1  NONAME1    -0.2800
      9 C7         -3.3422   -6.5595   -0.1620 C.2     1  NONAME1     0.2483
     10 O1         -4.5400   -6.3635   -0.3479 O.2     1  NONAME1    -0.2699
     11 C8         -2.4553   -5.3535   -0.0762 C.ar    1  NONAME1     0.0370
     12 C9         -3.0947   -4.1255    0.1178 C.ar    1  NONAME1    -0.0494
     13 C10        -2.3628   -2.9412    0.1642 C.ar    1  NONAME1    -0.0578
     14 C11        -0.9636   -2.9296    0.0184 C.ar    1  NONAME1    -0.0466
     15 C12        -0.3233   -1.5604    0.0381 C.3     1  NONAME1    -0.0175
     16 C13         1.1478   -1.2517    0.3088 C.3     1  NONAME1     0.0301
     17 C14         2.0081   -2.1260    1.2384 C.3     1  NONAME1    -0.0168
     18 C15         3.4001   -1.8549    0.7313 C.ar    1  NONAME1    -0.0362
     19 C16         4.6097   -2.1304    1.3464 C.ar    1  NONAME1    -0.0579
     20 C17         5.7919   -1.7657    0.6874 C.ar    1  NONAME1    -0.0615
     21 C18         5.7590   -1.1422   -0.5732 C.ar    1  NONAME1    -0.0611
     22 C19         4.5414   -0.8933   -1.2044 C.ar    1  NONAME1    -0.0510
     23 C20         3.3925   -1.2705   -0.5342 C.ar    1  NONAME1     0.0209
     24 C21         2.0049   -1.0628   -0.9252 C.2     1  NONAME1     0.1671
     25 O2          1.6528   -0.6898   -2.0282 O.2     1  NONAME1    -0.2917
     26 C22        -0.3282   -4.1514   -0.2181 C.ar    1  NONAME1    -0.0578
     27 C23        -1.0632   -5.3588   -0.2436 C.ar    1  NONAME1    -0.0494
     28 H1         -0.7325  -11.0042    0.0346 H       1  NONAME1     0.1424
     29 H2         -0.8782   -9.5286   -0.7181 H       1  NONAME1     0.1424
     30 H3         -2.5824  -12.3703    0.2589 H       1  NONAME1     0.0636
     31 H4         -5.0368  -12.5976    0.1878 H       1  NONAME1     0.0618
     32 H5         -6.4646  -10.5821   -0.0362 H       1  NONAME1     0.0618
     33 H6         -5.4721   -8.3632   -0.1369 H       1  NONAME1     0.0637
     34 H7         -1.7711   -7.8629    0.2019 H       1  NONAME1     0.1552
     35 H8         -4.1782   -4.0763    0.2161 H       1  NONAME1     0.0625
     36 H9         -2.9087   -2.0070    0.2912 H       1  NONAME1     0.0620
     37 H10        -0.8668   -1.0010    0.8150 H       1  NONAME1     0.0320
     38 H11        -0.6076   -1.0841   -0.9111 H       1  NONAME1     0.0320
     39 H12         1.1474   -0.2390    0.7500 H       1  NONAME1     0.0387
     40 H13         1.8955   -1.8164    2.2819 H       1  NONAME1     0.0320
     41 H14         1.8049   -3.1937    1.1580 H       1  NONAME1     0.0320
     42 H15         4.6521   -2.6075    2.3210 H       1  NONAME1     0.0620
     43 H16         6.7539   -1.9583    1.1600 H       1  NONAME1     0.0618
     44 H17         6.6888   -0.8463   -1.0547 H       1  NONAME1     0.0618
     45 H18         4.4912   -0.3959   -2.1677 H       1  NONAME1     0.0625
     46 H19         0.7389   -4.1988   -0.4167 H       1  NONAME1     0.0620
     47 H20        -0.5243   -6.2805   -0.4392 H       1  NONAME1     0.0625
@<TRIPOS>BOND
     1     1     2    1
     2     2     3   ar
     3     3     4   ar
     4     4     5   ar
     5     5     6   ar
     6     6     7   ar
     7     2     7   ar
     8     7     8    1
     9     8     9   am
    10     9    10    2
    11     9    11    1
    12    11    12   ar
    13    12    13   ar
    14    13    14   ar
    15    14    15    1
    16    15    16    1
    17    16    17    1
    18    17    18    1
    19    18    19   ar
    20    19    20   ar
    21    20    21   ar
    22    21    22   ar
    23    22    23   ar
    24    18    23   ar
    25    23    24    1
    26    16    24    1
    27    24    25    2
    28    14    26   ar
    29    26    27   ar
    30    11    27   ar
    31     1    28    1
    32     1    29    1
    33     3    30    1
    34     4    31    1
    35     5    32    1
    36     6    33    1
    37     8    34    1
    38    12    35    1
    39    13    36    1
    40    15    37    1
    41    15    38    1
    42    16    39    1
    43    17    40    1
    44    17    41    1
    45    19    42    1
    46    20    43    1
    47    21    44    1
    48    22    45    1
    49    26    46    1
    50    27    47    1
