@<TRIPOS>MOLECULE
*****
 56 56 0 0 0
SMALL
USER_CHARGES

@<TRIPOS>ATOM
      1 C1         19.3482    1.4455   -0.9332 C.3     1  NONAME1    -0.0443
      2 C2         18.6958    1.4721    0.4569 C.3     1  NONAME1     0.0252
      3 C3         19.2079    2.7315    1.1784 C.3     1  NONAME1    -0.0443
      4 C4         19.1353    0.2227    1.2363 C.3     1  NONAME1    -0.0443
      5 N1         17.2097    1.5204    0.4896 N.am    1  NONAME1    -0.3218
      6 C5         16.2934    0.8106   -0.2495 C.2     1  NONAME1     0.1312
      7 S1         16.3454    0.5396   -1.8934 S.2     1  NONAME1    -0.0189
      8 N2         15.2938    0.2968    0.5795 N.am    1  NONAME1    -0.3153
      9 C6         14.0372   -0.3306    0.0000 C.3     1  NONAME1     0.0985
     10 C7         12.8844   -0.6920    1.0962 C.3     1  NONAME1    -0.0260
     11 C8         12.1432    0.4350    1.8308 C.3     1  NONAME1    -0.0509
     12 C9         10.7933    0.8604    1.2218 C.3     1  NONAME1    -0.0523
     13 C10         9.6391   -0.1564    1.3576 C.3     1  NONAME1    -0.0442
     14 C11         9.4294   -1.0371    0.1243 C.3     1  NONAME1    -0.0093
     15 S2          7.8870   -1.9927    0.2644 S.3     1  NONAME1    -0.1783
     16 C12        14.5413   -1.7858    0.0000 C.2     1  NONAME1     0.2335
     17 O1         13.8449   -2.6170   -0.6062 O.2     1  NONAME1    -0.2738
     18 N3         15.7397   -2.1873    0.5489 N.am    1  NONAME1    -0.3109
     19 C13        16.3138   -3.4372    0.0780 C.3     1  NONAME1     0.0232
     20 C14        17.7455   -3.6698    0.5387 C.3     1  NONAME1    -0.0345
     21 C15        17.9706   -5.1683    0.3398 C.3     1  NONAME1    -0.0513
     22 C16        16.5857   -5.8131    0.3194 C.3     1  NONAME1    -0.0513
     23 C17        15.5992   -4.6858    0.5996 C.3     1  NONAME1    -0.0345
     24 H1         19.1884    0.4942   -1.4462 H       1  NONAME1     0.0250
     25 H2         20.4342    1.5650   -0.8551 H       1  NONAME1     0.0250
     26 H3         18.9748    2.2549   -1.5722 H       1  NONAME1     0.0250
     27 H4         20.2845    2.6722    1.3703 H       1  NONAME1     0.0250
     28 H5         19.0233    3.6269    0.5731 H       1  NONAME1     0.0250
     29 H6         18.7021    2.8805    2.1397 H       1  NONAME1     0.0250
     30 H7         18.7989   -0.6914    0.7357 H       1  NONAME1     0.0250
     31 H8         18.7039    0.2164    2.2448 H       1  NONAME1     0.0250
     32 H9         20.2234    0.1725    1.3333 H       1  NONAME1     0.0250
     33 H10        16.8671    1.7856    1.4043 H       1  NONAME1     0.1482
     34 H11        15.2108    0.6520    1.5206 H       1  NONAME1     0.1485
     35 H12        13.5331    1.1246    0.0000 H       1  NONAME1     0.0594
     36 H13        13.2908   -1.3481    1.8793 H       1  NONAME1     0.0288
     37 H14        12.1349   -1.2708    0.5545 H       1  NONAME1     0.0288
     38 H15        12.7890    1.3117    1.9432 H       1  NONAME1     0.0266
     39 H16        11.9422    0.0910    2.8543 H       1  NONAME1     0.0266
     40 H17        10.9157    1.1780    0.1806 H       1  NONAME1     0.0266
     41 H18        10.4814    1.7540    1.7796 H       1  NONAME1     0.0266
     42 H19         9.7777   -0.7756    2.2521 H       1  NONAME1     0.0273
     43 H20         8.7204    0.4243    1.5214 H       1  NONAME1     0.0273
     44 H21         9.3734   -0.4312   -0.7850 H       1  NONAME1     0.0374
     45 H22        10.2362   -1.7600    0.0032 H       1  NONAME1     0.0374
     46 H23         8.0909   -2.7656   -0.8137 H       1  NONAME1     0.1016
     47 H24        16.3728   -1.4150    0.7219 H       1  NONAME1     0.1490
     48 H25        16.2873   -3.4327   -1.0209 H       1  NONAME1     0.0498
     49 H26        18.4659   -3.0726   -0.0298 H       1  NONAME1     0.0283
     50 H27        17.8642   -3.4104    1.6004 H       1  NONAME1     0.0283
     51 H28        18.5982   -5.5819    1.1360 H       1  NONAME1     0.0266
     52 H29        18.4815   -5.3611   -0.6113 H       1  NONAME1     0.0266
     53 H30        16.3961   -6.2487   -0.6706 H       1  NONAME1     0.0266
     54 H31        16.4935   -6.6179    1.0544 H       1  NONAME1     0.0266
     55 H32        14.6381   -4.8713    0.1115 H       1  NONAME1     0.0283
     56 H33        15.4146   -4.6031    1.6776 H       1  NONAME1     0.0283
@<TRIPOS>BOND
     1     1     2    1
     2     2     3    1
     3     2     4    1
     4     2     5    1
     5     5     6    1
     6     6     7    2
     7     6     8    1
     8     9     8    1
     9     9    10    1
    10    10    11    1
    11    11    12    1
    12    12    13    1
    13    13    14    1
    14    14    15    1
    15     9    16    1
    16    16    17    2
    17    16    18   am
    18    18    19    1
    19    19    20    1
    20    20    21    1
    21    21    22    1
    22    22    23    1
    23    19    23    1
    24     1    24    1
    25     1    25    1
    26     1    26    1
    27     3    27    1
    28     3    28    1
    29     3    29    1
    30     4    30    1
    31     4    31    1
    32     4    32    1
    33     5    33    1
    34     8    34    1
    35     9    35    1
    36    10    36    1
    37    10    37    1
    38    11    38    1
    39    11    39    1
    40    12    40    1
    41    12    41    1
    42    13    42    1
    43    13    43    1
    44    14    44    1
    45    14    45    1
    46    15    46    1
    47    18    47    1
    48    19    48    1
    49    20    49    1
    50    20    50    1
    51    21    51    1
    52    21    52    1
    53    22    53    1
    54    22    54    1
    55    23    55    1
    56    23    56    1
