@<TRIPOS>MOLECULE
*****
 42 44 0 0 0
SMALL
USER_CHARGES

@<TRIPOS>ATOM
      1 O1          9.8995    5.5978    0.1711 O.2     1  NONAME1    -0.2687
      2 C1          9.9281    4.3887   -0.0278 C.2     1  NONAME1     0.2593
      3 C2          8.7187    3.5305   -0.0741 C.2     1  NONAME1     0.0027
      4 C3          7.4901    4.0633    0.0303 C.2     1  NONAME1    -0.0496
      5 C4          6.2261    3.2977    0.0387 C.ar    1  NONAME1    -0.0245
      6 C5          6.1929    1.8984    0.2306 C.ar    1  NONAME1    -0.0543
      7 C6          4.9877    1.1924    0.2778 C.ar    1  NONAME1    -0.0562
      8 C7          3.8106    1.9005    0.1417 C.ar    1  NONAME1    -0.0254
      9 C8          3.8160    3.2826   -0.0575 C.ar    1  NONAME1    -0.0249
     10 C9          5.0094    3.9915   -0.1048 C.ar    1  NONAME1    -0.0496
     11 C10         2.4079    3.7791   -0.1944 C.3     1  NONAME1     0.0404
     12 N1          1.5925    2.5718   -0.0154 N.am    1  NONAME1    -0.2926
     13 C11         0.2201    2.6520   -0.0275 C.2     1  NONAME1     0.2192
     14 O2         -0.3372    3.7297   -0.2516 O.2     1  NONAME1    -0.2753
     15 C12        -0.5960    1.4123    0.3652 C.3     1  NONAME1     0.0358
     16 C13        -0.3645    0.1355   -0.4365 C.3     1  NONAME1    -0.0419
     17 C14        -1.5955   -0.7163   -0.1586 C.3     1  NONAME1    -0.0523
     18 C15        -2.7353    0.2625    0.0811 C.3     1  NONAME1    -0.0523
     19 C16        -2.0984    1.6459    0.1450 C.3     1  NONAME1    -0.0419
     20 C17         2.4128    1.3795    0.1544 C.3     1  NONAME1     0.0404
     21 N2         11.0920    3.6903   -0.2130 N.am    1  NONAME1    -0.1940
     22 O3         12.2959    4.4207   -0.1151 O.3     1  NONAME1    -0.2949
     23 H1          8.8828    2.4672   -0.1800 H       1  NONAME1     0.0670
     24 H2          7.3870    5.1450    0.1229 H       1  NONAME1     0.0625
     25 H3          7.1078    1.3278    0.3599 H       1  NONAME1     0.0624
     26 H4          4.9843    0.1168    0.4209 H       1  NONAME1     0.0621
     27 H5          4.9926    5.0689   -0.2493 H       1  NONAME1     0.0627
     28 H6          2.2165    4.1985   -1.1868 H       1  NONAME1     0.0514
     29 H7          2.1532    4.5027    0.5862 H       1  NONAME1     0.0514
     30 H8         -0.4179    1.2227    1.4325 H       1  NONAME1     0.0394
     31 H9          0.5266   -0.4137   -0.1248 H       1  NONAME1     0.0272
     32 H10        -0.2735    0.3549   -1.5066 H       1  NONAME1     0.0272
     33 H11        -1.8050   -1.4091   -0.9788 H       1  NONAME1     0.0265
     34 H12        -1.4351   -1.3183    0.7449 H       1  NONAME1     0.0265
     35 H13        -3.2514    0.0240    1.0175 H       1  NONAME1     0.0265
     36 H14        -3.4775    0.2131   -0.7228 H       1  NONAME1     0.0265
     37 H15        -2.2776    2.1644   -0.8060 H       1  NONAME1     0.0272
     38 H16        -2.5400    2.2610    0.9357 H       1  NONAME1     0.0272
     39 H17         2.2602    0.7194   -0.7029 H       1  NONAME1     0.0514
     40 H18         2.1618    0.8878    1.0977 H       1  NONAME1     0.0514
     41 H19        11.1731    2.6898   -0.3438 H       1  NONAME1     0.1825
     42 H20        11.9755    5.3254    0.0973 H       1  NONAME1     0.2414
@<TRIPOS>BOND
     1     1     2    2
     2     2     3    1
     3     3     4    2
     4     4     5    1
     5     5     6   ar
     6     6     7   ar
     7     7     8   ar
     8     8     9   ar
     9     9    10   ar
    10     5    10   ar
    11     9    11    1
    12    11    12    1
    13    12    13   am
    14    13    14    2
    15    13    15    1
    16    15    16    1
    17    16    17    1
    18    17    18    1
    19    18    19    1
    20    15    19    1
    21    12    20    1
    22     8    20    1
    23     2    21   am
    24    21    22    1
    25     3    23    1
    26     4    24    1
    27     6    25    1
    28     7    26    1
    29    10    27    1
    30    11    28    1
    31    11    29    1
    32    15    30    1
    33    16    31    1
    34    16    32    1
    35    17    33    1
    36    17    34    1
    37    18    35    1
    38    18    36    1
    39    19    37    1
    40    19    38    1
    41    20    39    1
    42    20    40    1
    43    21    41    1
    44    22    42    1
