@<TRIPOS>MOLECULE
*****
 56 59 0 0 0
SMALL
USER_CHARGES

@<TRIPOS>ATOM
      1 C1          0.0000   -3.0800    0.0000 C.3     1  NONAME1     0.0010
      2 N1          1.3337   -2.3100    0.0000 N.pl3   1  NONAME1    -0.3285
      3 C2          2.5104   -3.1380    0.4531 C.3     1  NONAME1     0.0369
      4 C3          2.5035   -4.6675    0.2900 C.ar    1  NONAME1    -0.0302
      5 C4          3.6500   -5.2874   -0.2422 C.ar    1  NONAME1    -0.0564
      6 C5          3.7628   -6.6846   -0.3310 C.ar    1  NONAME1    -0.0493
      7 C6          2.7276   -7.5274    0.0916 C.ar    1  NONAME1     0.0370
      8 C7          2.9406   -9.0126   -0.0332 C.2     1  NONAME1     0.2483
      9 O1          4.0876   -9.4108   -0.2299 O.2     1  NONAME1    -0.2699
     10 N2          1.8236   -9.8249    0.0477 N.am    1  NONAME1    -0.2799
     11 C8          1.7670  -11.2487    0.0316 C.ar    1  NONAME1     0.0551
     12 C9          2.8947  -12.0856   -0.0120 C.ar    1  NONAME1    -0.0310
     13 C10         2.8100  -13.4996    0.0704 C.ar    1  NONAME1    -0.0160
     14 C11         4.0255  -14.3845    0.0219 C.ar    1  NONAME1    -0.0178
     15 C12         5.3367  -13.8668    0.0714 C.ar    1  NONAME1    -0.0540
     16 C13         6.4722  -14.6889    0.0221 C.ar    1  NONAME1    -0.0612
     17 C14         6.3355  -16.0668   -0.0683 C.ar    1  NONAME1    -0.0617
     18 C15         5.0639  -16.6195   -0.1159 C.ar    1  NONAME1    -0.0612
     19 C16         3.9325  -15.7908   -0.0784 C.ar    1  NONAME1    -0.0540
     20 C17         1.5131  -14.0283    0.2163 C.ar    1  NONAME1    -0.0522
     21 C18         0.3734  -13.2142    0.2343 C.ar    1  NONAME1    -0.0387
     22 C19         0.4882  -11.8306    0.1076 C.ar    1  NONAME1     0.0461
     23 N3         -0.6763  -11.0251    0.0863 N.pl3   1  NONAME1    -0.3565
     24 C20         1.5936   -6.9318    0.6536 C.ar    1  NONAME1    -0.0493
     25 C21         1.5036   -5.5258    0.7803 C.ar    1  NONAME1    -0.0564
     26 C22         1.4179   -0.9258    0.1272 C.ar    1  NONAME1     0.0325
     27 C23         0.3035   -0.1113    0.3604 C.ar    1  NONAME1    -0.0247
     28 C24         0.4188    1.2772    0.3950 C.ar    1  NONAME1     0.0033
     29 N4          1.6127    1.8561    0.2201 N.ar    1  NONAME1    -0.3668
     30 C25         2.7189    1.1356    0.0097 C.ar    1  NONAME1     0.0033
     31 C26         2.6405   -0.2524   -0.0406 C.ar    1  NONAME1    -0.0247
     32 H1         -0.5902   -2.3115   -0.5315 H       1  NONAME1     0.0428
     33 H2         -1.3337   -3.8500    0.0000 H       1  NONAME1     0.0428
     34 H3          0.2866   -3.7655   -0.8224 H       1  NONAME1     0.0428
     35 H4          2.7175   -2.9220    1.5082 H       1  NONAME1     0.0513
     36 H5          3.3768   -2.8013   -0.1263 H       1  NONAME1     0.0513
     37 H6          4.5021   -4.6939   -0.5711 H       1  NONAME1     0.0621
     38 H7          4.6843   -7.1145   -0.7239 H       1  NONAME1     0.0625
     39 H8          0.9166   -9.4035    0.1828 H       1  NONAME1     0.1552
     40 H9          3.8676  -11.6239   -0.1117 H       1  NONAME1     0.0643
     41 H10         5.5198  -12.7988    0.1537 H       1  NONAME1     0.0624
     42 H11         7.4623  -14.2411    0.0562 H       1  NONAME1     0.0618
     43 H12         7.2138  -16.7044   -0.1031 H       1  NONAME1     0.0618
     44 H13         4.9436  -17.6977   -0.1864 H       1  NONAME1     0.0618
     45 H14         2.9711  -16.2916   -0.1380 H       1  NONAME1     0.0624
     46 H15         1.3471  -15.0958    0.3238 H       1  NONAME1     0.0624
     47 H16        -0.6006  -13.6848    0.3334 H       1  NONAME1     0.0637
     48 H17        -0.6745  -10.4449   -0.7514 H       1  NONAME1     0.1424
     49 H18        -1.5251  -11.5858    0.1067 H       1  NONAME1     0.1424
     50 H19         0.7775   -7.5307    1.0481 H       1  NONAME1     0.0625
     51 H20         0.6313   -5.1282    1.2925 H       1  NONAME1     0.0621
     52 H21        -0.6848   -0.5325    0.5200 H       1  NONAME1     0.0650
     53 H22        -0.4277    1.9366    0.5550 H       1  NONAME1     0.0807
     54 H23         1.6803    2.8738    0.2355 H       1  NONAME1     0.1648
     55 H24         3.6452    1.6815   -0.1342 H       1  NONAME1     0.0807
     56 H25         3.5594   -0.7868   -0.2594 H       1  NONAME1     0.0650
@<TRIPOS>BOND
     1     1     2    1
     2     2     3    1
     3     3     4    1
     4     4     5   ar
     5     5     6   ar
     6     6     7   ar
     7     7     8    1
     8     8     9    2
     9     8    10   am
    10    10    11    1
    11    11    12   ar
    12    12    13   ar
    13    13    14    1
    14    14    15   ar
    15    15    16   ar
    16    16    17   ar
    17    17    18   ar
    18    18    19   ar
    19    14    19   ar
    20    13    20   ar
    21    20    21   ar
    22    21    22   ar
    23    11    22   ar
    24    22    23    1
    25     7    24   ar
    26    24    25   ar
    27     4    25   ar
    28     2    26    1
    29    26    27   ar
    30    27    28   ar
    31    28    29   ar
    32    29    30   ar
    33    30    31   ar
    34    26    31   ar
    35     1    32    1
    36     1    33    1
    37     1    34    1
    38     3    35    1
    39     3    36    1
    40     5    37    1
    41     6    38    1
    42    10    39    1
    43    12    40    1
    44    15    41    1
    45    16    42    1
    46    17    43    1
    47    18    44    1
    48    19    45    1
    49    20    46    1
    50    21    47    1
    51    23    48    1
    52    23    49    1
    53    24    50    1
    54    25    51    1
    55    27    52    1
    56    28    53    1
    57    29    54    1
    58    30    55    1
    59    31    56    1
