REMARK  7 active torsions:
REMARK  status: ('A' for Active; 'I' for Inactive)
REMARK       I    between atoms: C1_2  and  N1_3 
REMARK    1  A    between atoms: C1_2  and  C2_5 
REMARK    2  A    between atoms: N1_3  and  O2_4 
REMARK    3  A    between atoms: C7_10  and  C8_11 
REMARK    4  A    between atoms: C8_11  and  N2_12 
REMARK    5  A    between atoms: N2_12  and  C9_13 
REMARK    6  A    between atoms: C9_13  and  C10_14 
REMARK    7  A    between atoms: C10_14  and  C11_15 
ROOT
ATOM      1  C2  NON d   1      -7.487   5.599  -0.037  0.00  0.00     0.076 A 
ATOM      2  C3  NON d   1      -6.537   6.605  -0.056  0.00  0.00     0.037 A 
ATOM      3  C4  NON d   1      -5.186   6.121  -0.109  0.00  0.00    -0.018 A 
ATOM      4  C5  NON d   1      -3.954   6.816  -0.158  0.00  0.00     0.013 A 
ATOM      5  C6  NON d   1      -2.736   6.121  -0.228  0.00  0.00     0.010 A 
ATOM      6  C7  NON d   1      -2.714   4.726  -0.235  0.00  0.00    -0.031 A 
ATOM      7  C17 NON d   1      -3.937   4.026  -0.188  0.00  0.00     0.028 A 
ATOM      8  C18 NON d   1      -5.154   4.730  -0.125  0.00  0.00     0.016 A 
ATOM      9  S1  NON d   1      -6.734   4.061  -0.066  0.00  0.00    -0.084 SA
ENDROOT
BRANCH   6  10
ATOM     10  C8  NON d   1      -1.467   3.884  -0.307  0.00  0.00     0.270 C 
BRANCH  10  11
ATOM     11  N2  NON d   1      -0.166   4.605  -0.177  0.00  0.00    -0.071 N 
ATOM     12  H8  NON d   1      -0.270   5.293   0.579  0.00  0.00     0.277 HD
ATOM     13  H9  NON d   1       0.001   5.138  -1.039  0.00  0.00     0.277 HD
BRANCH  11  14
ATOM     14  C9  NON d   1       1.030   3.758   0.156  0.00  0.00     0.237 C 
BRANCH  14  15
ATOM     15  C10 NON d   1       1.498   2.857  -0.996  0.00  0.00     0.066 C 
BRANCH  15  16
ATOM     16  C11 NON d   1       0.683   1.629  -1.337  0.00  0.00    -0.057 A 
ATOM     17  C12 NON d   1       0.777   1.111  -2.639  0.00  0.00     0.007 A 
ATOM     18  C13 NON d   1       0.050  -0.020  -3.018  0.00  0.00     0.001 A 
ATOM     19  C14 NON d   1      -0.788  -0.647  -2.103  0.00  0.00     0.000 A 
ATOM     20  C15 NON d   1      -0.863  -0.172  -0.797  0.00  0.00     0.001 A 
ATOM     21  C16 NON d   1      -0.105   0.936  -0.407  0.00  0.00     0.007 A 
ENDBRANCH  15  16
ENDBRANCH  14  15
ENDBRANCH  11  14
ENDBRANCH  10  11
ENDBRANCH   6  10
BRANCH   1  22
ATOM     22  C1  NON d   1      -8.949   5.671  -0.016  0.00  0.00     0.281 C 
ATOM     23  O1  NON d   1      -9.688   4.696  -0.102  0.00  0.00    -0.265 OA
ATOM     24  N1  NON d   1      -9.450   6.960   0.096  0.00  0.00    -0.233 N 
ATOM     25  H1  NON d   1      -8.880   7.703   0.476  0.00  0.00     0.197 HD
BRANCH  24  26
ATOM     26  O2  NON d   1     -10.827   7.063   0.397  0.00  0.00    -0.287 OA
ATOM     27  H2  NON d   1     -11.238   6.951  -0.482  0.00  0.00     0.244 HD
ENDBRANCH  24  26
ENDBRANCH   1  22
TORSDOF 7
