@<TRIPOS>MOLECULE
*****
 85 88 0 0 0
SMALL
USER_CHARGES

@<TRIPOS>ATOM
      1 C1          8.6885    9.0320    7.6486 C.3     1  NONAME1    -0.0586
      2 C2          8.9899   10.1550    6.6706 C.3     1  NONAME1     0.0030
      3 C3          8.9816    9.7030    5.2172 C.2     1  NONAME1     0.1331
      4 O1          8.5884    8.5841    4.8808 O.2     1  NONAME1    -0.2974
      5 C4          9.4615   10.7322    4.1998 C.3     1  NONAME1     0.0058
      6 C5          9.6037   10.1409    2.7992 C.3     1  NONAME1    -0.0464
      7 C6         10.3525   11.0382    1.7997 C.3     1  NONAME1    -0.0526
      8 C7          9.6915   12.4006    1.5629 C.3     1  NONAME1    -0.0509
      9 C8          9.9162   12.9491    0.1479 C.3     1  NONAME1    -0.0260
     10 C9         11.1952   13.7556   -0.1807 C.3     1  NONAME1     0.0994
     11 N1         12.5089   13.1303    0.1265 N.am    1  NONAME1    -0.3023
     12 C10        13.0225   12.2191   -0.7878 C.2     1  NONAME1     0.2380
     13 O2         12.3229   11.8501   -1.7378 O.2     1  NONAME1    -0.2735
     14 C11        14.3925   11.5808   -0.6176 C.3     1  NONAME1     0.1275
     15 C12        14.4257   10.5625    0.5288 C.3     1  NONAME1    -0.0340
     16 N2         15.6081   12.4225   -0.7009 N.ar    1  NONAME1    -0.2352
     17 N3         16.7409   11.6652   -0.7137 N.ar    1  NONAME1    -0.0647
     18 N4         17.3570   11.9123    0.4335 N.ar    1  NONAME1    -0.1376
     19 C13        16.8692   13.0967    0.9066 C.ar    1  NONAME1     0.0743
     20 C14        15.9540   13.5889   -0.0150 C.ar    1  NONAME1     0.0801
     21 C15        15.8419   14.9958   -0.5615 C.3     1  NONAME1     0.0669
     22 C16        17.1547   15.8195   -0.3285 C.3     1  NONAME1    -0.0265
     23 C17        18.1673   15.6759   -1.5004 C.3     1  NONAME1    -0.0447
     24 C18        19.2542   14.6359   -1.2250 C.3     1  NONAME1    -0.0626
     25 C19        18.8421   17.0179   -1.8079 C.3     1  NONAME1    -0.0626
     26 N5         14.6092   15.5613   -0.0356 N.am    1  NONAME1    -0.3054
     27 C20        14.2195   16.8861   -0.2991 C.2     1  NONAME1     0.2342
     28 O3         14.9923   17.7650   -0.6460 O.2     1  NONAME1    -0.2738
     29 C21        12.6714   17.0549   -0.3287 C.3     1  NONAME1     0.1034
     30 C22        12.1734   18.4649    0.0370 C.3     1  NONAME1     0.0013
     31 C23        12.2510   19.5123   -1.0562 C.ar    1  NONAME1    -0.0201
     32 C24        13.0138   19.4941   -2.2100 C.ar    1  NONAME1     0.0060
     33 N6         12.8140   20.6551   -2.9005 N.ar    1  NONAME1    -0.3604
     34 C25        11.9136   21.4501   -2.2380 C.ar    1  NONAME1     0.0467
     35 C26        11.4037   22.7072   -2.5824 C.ar    1  NONAME1    -0.0378
     36 C27        10.4757   23.2861   -1.7186 C.ar    1  NONAME1    -0.0598
     37 C28        10.0625   22.6353   -0.5586 C.ar    1  NONAME1    -0.0611
     38 C29        10.5878   21.3882   -0.2294 C.ar    1  NONAME1    -0.0523
     39 C30        11.5328   20.7644   -1.0839 C.ar    1  NONAME1     0.0029
     40 N7         12.0993   15.9763    0.5065 N.am    1  NONAME1    -0.3022
     41 C31        11.0150   15.2854    0.0207 C.2     1  NONAME1     0.2340
     42 O4         10.0302   15.8838   -0.4076 O.2     1  NONAME1    -0.2738
     43 H1          9.3444    8.1712    7.4804 H       1  NONAME1     0.0234
     44 H2          7.6525    8.6905    7.5510 H       1  NONAME1     0.0234
     45 H3          8.8316    9.3775    8.6778 H       1  NONAME1     0.0234
     46 H4          8.2517   10.9553    6.7857 H       1  NONAME1     0.0339
     47 H5          9.9820   10.5618    6.8922 H       1  NONAME1     0.0339
     48 H6         10.4309   11.1062    4.5421 H       1  NONAME1     0.0342
     49 H7          8.7424   11.5588    4.1968 H       1  NONAME1     0.0342
     50 H8         10.1390    9.1843    2.8587 H       1  NONAME1     0.0269
     51 H9          8.6068    9.9020    2.4043 H       1  NONAME1     0.0269
     52 H10        11.3839   11.1869    2.1371 H       1  NONAME1     0.0265
     53 H11        10.4076   10.4820    0.8559 H       1  NONAME1     0.0265
     54 H12         8.6055   12.2719    1.6788 H       1  NONAME1     0.0266
     55 H13         9.9996   13.1247    2.3240 H       1  NONAME1     0.0266
     56 H14         9.8284   12.1193   -0.5651 H       1  NONAME1     0.0288
     57 H15         9.0527   13.5934   -0.0694 H       1  NONAME1     0.0288
     58 H16        11.1887   13.7612   -1.2834 H       1  NONAME1     0.0594
     59 H17        12.9193   13.2215    1.0486 H       1  NONAME1     0.1495
     60 H18        14.4936   10.9832   -1.5402 H       1  NONAME1     0.0639
     61 H19        13.5477    9.9095    0.5022 H       1  NONAME1     0.0255
     62 H20        14.4716   11.0473    1.5075 H       1  NONAME1     0.0255
     63 H21        15.3028    9.9065    0.4429 H       1  NONAME1     0.0255
     64 H22        17.3897   13.6108    1.7028 H       1  NONAME1     0.0867
     65 H23        15.6618   14.9410   -1.6409 H       1  NONAME1     0.0564
     66 H24        17.6397   15.5661    0.6220 H       1  NONAME1     0.0289
     67 H25        16.9345   16.8809   -0.2133 H       1  NONAME1     0.0289
     68 H26        17.6333   15.3758   -2.4097 H       1  NONAME1     0.0296
     69 H27        19.9390   14.5613   -2.0775 H       1  NONAME1     0.0232
     70 H28        19.8483   14.9012   -0.3437 H       1  NONAME1     0.0232
     71 H29        18.8320   13.6430   -1.0690 H       1  NONAME1     0.0232
     72 H30        18.0971   17.7930   -2.0156 H       1  NONAME1     0.0232
     73 H31        19.4656   17.3542   -0.9728 H       1  NONAME1     0.0232
     74 H32        19.4811   16.9315   -2.6940 H       1  NONAME1     0.0232
     75 H33        13.8298   14.9269   -0.1332 H       1  NONAME1     0.1494
     76 H34        12.3813   16.8326   -1.3658 H       1  NONAME1     0.0598
     77 H35        12.7174   18.8392    0.9125 H       1  NONAME1     0.0337
     78 H36        11.1181   18.3907    0.3341 H       1  NONAME1     0.0337
     79 H37        13.7122   18.7620   -2.5985 H       1  NONAME1     0.0810
     80 H38        13.2627   20.9037   -3.7713 H       1  NONAME1     0.1653
     81 H39        11.7176   23.2175   -3.4880 H       1  NONAME1     0.0638
     82 H40        10.0604   24.2654   -1.9622 H       1  NONAME1     0.0618
     83 H41         9.3399   23.1033    0.0979 H       1  NONAME1     0.0618
     84 H42        10.2631   20.8775    0.6690 H       1  NONAME1     0.0624
     85 H43        12.6850   15.5735    1.2255 H       1  NONAME1     0.1495
@<TRIPOS>BOND
     1     1     2    1
     2     2     3    1
     3     3     4    2
     4     3     5    1
     5     5     6    1
     6     6     7    1
     7     7     8    1
     8     8     9    1
     9    10     9    1
    10    10    11    1
    11    11    12   am
    12    12    13    2
    13    14    12    1
    14    14    15    1
    15    14    16    1
    16    16    17   ar
    17    17    18   ar
    18    18    19   ar
    19    19    20   ar
    20    16    20   ar
    21    21    20    1
    22    21    22    1
    23    22    23    1
    24    23    24    1
    25    23    25    1
    26    21    26    1
    27    26    27   am
    28    27    28    2
    29    29    27    1
    30    29    30    1
    31    30    31    1
    32    31    32   ar
    33    32    33   ar
    34    33    34   ar
    35    34    35   ar
    36    35    36   ar
    37    36    37   ar
    38    37    38   ar
    39    38    39   ar
    40    31    39   ar
    41    34    39   ar
    42    29    40    1
    43    40    41   am
    44    10    41    1
    45    41    42    2
    46     1    43    1
    47     1    44    1
    48     1    45    1
    49     2    46    1
    50     2    47    1
    51     5    48    1
    52     5    49    1
    53     6    50    1
    54     6    51    1
    55     7    52    1
    56     7    53    1
    57     8    54    1
    58     8    55    1
    59     9    56    1
    60     9    57    1
    61    10    58    1
    62    11    59    1
    63    14    60    1
    64    15    61    1
    65    15    62    1
    66    15    63    1
    67    19    64    1
    68    21    65    1
    69    22    66    1
    70    22    67    1
    71    23    68    1
    72    24    69    1
    73    24    70    1
    74    24    71    1
    75    25    72    1
    76    25    73    1
    77    25    74    1
    78    26    75    1
    79    29    76    1
    80    30    77    1
    81    30    78    1
    82    32    79    1
    83    33    80    1
    84    35    81    1
    85    36    82    1
    86    37    83    1
    87    38    84    1
    88    40    85    1
