@<TRIPOS>MOLECULE
*****
 35 37 0 0 0
SMALL
USER_CHARGES

@<TRIPOS>ATOM
      1 O1          5.0919   -5.9511   -0.5537 O.3     1  NONAME1    -0.5041
      2 C1          4.5945   -7.2116   -0.2524 C.ar    1  NONAME1     0.1476
      3 C2          5.3794   -8.1533    0.2916 C.ar    1  NONAME1    -0.0162
      4 C3          4.8497   -9.4410    0.6157 C.ar    1  NONAME1    -0.0420
      5 C4          3.5412   -9.6702    0.5166 C.ar    1  NONAME1     0.0061
      6 N1          2.6302   -8.7342    0.0033 N.ar    1  NONAME1    -0.3342
      7 C5          1.2973   -9.3173   -0.3136 C.3     1  NONAME1     0.0489
      8 C6         -0.0338   -8.6428   -0.0453 C.ar    1  NONAME1    -0.0277
      9 C7         -1.1599   -9.3605   -0.4879 C.ar    1  NONAME1    -0.0563
     10 C8         -2.4549   -8.8464   -0.3973 C.ar    1  NONAME1    -0.0537
     11 C9         -2.7052   -7.5813    0.1484 C.ar    1  NONAME1    -0.0178
     12 C10        -4.0841   -7.0269    0.1545 C.ar    1  NONAME1    -0.0150
     13 C11        -5.2130   -7.8566    0.2786 C.ar    1  NONAME1    -0.0359
     14 C12        -6.4895   -7.3130    0.2043 C.ar    1  NONAME1     0.0281
     15 N2         -6.7327   -6.0009    0.0278 N.ar    1  NONAME1    -0.2632
     16 C13        -5.6504   -5.2042   -0.0776 C.ar    1  NONAME1     0.0281
     17 C14        -4.3372   -5.6600   -0.0249 C.ar    1  NONAME1    -0.0359
     18 C15        -1.5816   -6.8838    0.6451 C.ar    1  NONAME1    -0.0537
     19 C16        -0.2691   -7.4115    0.5679 C.ar    1  NONAME1    -0.0563
     20 C17         3.1362   -7.5438   -0.5945 C.ar    1  NONAME1     0.1291
     21 S1          2.2628   -6.5562   -1.6596 S.2     1  NONAME1    -0.0288
     22 H1          6.0221   -5.9109   -0.2934 H       1  NONAME1     0.2923
     23 H2          6.4248   -7.9753    0.5044 H       1  NONAME1     0.0655
     24 H3          5.5347  -10.2163    0.9482 H       1  NONAME1     0.0633
     25 H4          3.1584  -10.6542    0.7819 H       1  NONAME1     0.0809
     26 H5          1.2186  -10.2646    0.2387 H       1  NONAME1     0.0541
     27 H6          1.3369   -9.5716   -1.3817 H       1  NONAME1     0.0541
     28 H7         -1.0309  -10.3411   -0.9431 H       1  NONAME1     0.0621
     29 H8         -3.2642   -9.4482   -0.8055 H       1  NONAME1     0.0624
     30 H9         -5.1164   -8.9267    0.4286 H       1  NONAME1     0.0639
     31 H10        -7.3700   -7.9449    0.2757 H       1  NONAME1     0.0830
     32 H11        -5.8698   -4.1497   -0.2263 H       1  NONAME1     0.0830
     33 H12        -3.5315   -4.9482   -0.1545 H       1  NONAME1     0.0639
     34 H13        -1.7092   -5.9016    1.0957 H       1  NONAME1     0.0624
     35 H14         0.5534   -6.8158    0.9592 H       1  NONAME1     0.0621
@<TRIPOS>BOND
     1     1     2    1
     2     2     3   ar
     3     3     4   ar
     4     4     5   ar
     5     5     6   ar
     6     6     7    1
     7     7     8    1
     8     8     9   ar
     9     9    10   ar
    10    10    11   ar
    11    11    12    1
    12    12    13   ar
    13    13    14   ar
    14    14    15   ar
    15    15    16   ar
    16    16    17   ar
    17    12    17   ar
    18    11    18   ar
    19    18    19   ar
    20     8    19   ar
    21     6    20   ar
    22     2    20   ar
    23    20    21    2
    24     1    22    1
    25     3    23    1
    26     4    24    1
    27     5    25    1
    28     7    26    1
    29     7    27    1
    30     9    28    1
    31    10    29    1
    32    13    30    1
    33    14    31    1
    34    16    32    1
    35    17    33    1
    36    18    34    1
    37    19    35    1
