REMARK  11 active torsions:
REMARK  status: ('A' for Active; 'I' for Inactive)
REMARK    1  A    between atoms: N1_1  and  C1_2 
REMARK    2  A    between atoms: C6_7  and  N2_8 
REMARK       I    between atoms: N2_8  and  C7_9 
REMARK    3  A    between atoms: C7_9  and  C8_11 
REMARK    4  A    between atoms: C11_14  and  C12_15 
REMARK    5  A    between atoms: C12_15  and  N3_16 
REMARK    6  A    between atoms: N3_16  and  C13_17 
REMARK    7  A    between atoms: N3_16  and  C15_20 
REMARK    8  A    between atoms: C13_17  and  C14_18 
REMARK    9  A    between atoms: C14_18  and  O2_19 
REMARK   10  A    between atoms: C15_20  and  C16_21 
REMARK   11  A    between atoms: C19_24  and  C20_25 
ROOT
ATOM      1  C12 NON d   1       2.143  -9.087   0.654  0.00  0.00     0.273 C 
ENDROOT
BRANCH   1   2
ATOM      2  C11 NON d   1       0.905  -9.879   0.330  0.00  0.00    -0.033 A 
ATOM      3  C10 NON d   1       0.995 -11.167  -0.212  0.00  0.00     0.010 A 
ATOM      4  C9  NON d   1      -0.157 -11.941  -0.399  0.00  0.00     0.017 A 
ATOM      5  C8  NON d   1      -1.430 -11.447  -0.071  0.00  0.00     0.032 A 
ATOM      6  C29 NON d   1      -1.522 -10.158   0.461  0.00  0.00     0.017 A 
ATOM      7  C28 NON d   1      -0.367  -9.392   0.671  0.00  0.00     0.010 A 
BRANCH   5   8
ATOM      8  C7  NON d   1      -2.607 -12.367  -0.247  0.00  0.00     0.256 C 
ATOM      9  N2  NON d   1      -3.861 -11.812  -0.100  0.00  0.00    -0.321 N 
ATOM     10  H7  NON d   1      -3.978 -10.819   0.050  0.00  0.00     0.169 HD
ATOM     11  O1  NON d   1      -2.369 -13.538  -0.519  0.00  0.00    -0.267 OA
BRANCH   9  12
ATOM     12  C6  NON d   1      -5.109 -12.482  -0.110  0.00  0.00     0.056 A 
ATOM     13  C5  NON d   1      -5.258 -13.867  -0.172  0.00  0.00     0.031 A 
ATOM     14  C4  NON d   1      -6.529 -14.443  -0.142  0.00  0.00     0.002 A 
ATOM     15  C3  NON d   1      -7.665 -13.636  -0.045  0.00  0.00     0.002 A 
ATOM     16  C2  NON d   1      -7.533 -12.247   0.010  0.00  0.00     0.025 A 
ATOM     17  C1  NON d   1      -6.259 -11.665  -0.007  0.00  0.00     0.033 A 
BRANCH  17  18
ATOM     18  N1  NON d   1      -6.124 -10.249  -0.050  0.00  0.00    -0.301 NA
ATOM     19  H1  NON d   1      -7.017  -9.793   0.129  0.00  0.00     0.124 HD
ATOM     20  H2  NON d   1      -5.792  -9.979  -0.975  0.00  0.00     0.124 HD
ENDBRANCH  17  18
ENDBRANCH   9  12
ENDBRANCH   5   8
ENDBRANCH   1   2
BRANCH   1  21
ATOM     21  N3  NON d   1       2.549  -7.966  -0.287  0.00  0.00    -0.061 N 
ATOM     22  H12 NON d   1       2.713  -8.422  -1.187  0.00  0.00     0.280 HD
BRANCH  21  23
ATOM     23  C13 NON d   1       3.868  -7.365   0.183  0.00  0.00     0.261 C 
BRANCH  23  24
ATOM     24  C14 NON d   1       4.855  -7.175  -0.969  0.00  0.00     0.192 C 
BRANCH  24  25
ATOM     25  O2  NON d   1       6.088  -6.736  -0.421  0.00  0.00    -0.399 OA
ATOM     26  H17 NON d   1       6.350  -5.894  -0.839  0.00  0.00     0.209 HD
ENDBRANCH  24  25
ENDBRANCH  23  24
ENDBRANCH  21  23
BRANCH  21  27
ATOM     27  C15 NON d   1       1.517  -6.872  -0.503  0.00  0.00     0.273 C 
BRANCH  27  28
ATOM     28  C16 NON d   1       0.462  -7.116  -1.551  0.00  0.00    -0.033 A 
ATOM     29  C17 NON d   1      -0.780  -6.478  -1.433  0.00  0.00     0.010 A 
ATOM     30  C18 NON d   1      -1.782  -6.647  -2.405  0.00  0.00     0.013 A 
ATOM     31  C19 NON d   1      -1.589  -7.443  -3.549  0.00  0.00    -0.026 A 
ATOM     32  C26 NON d   1      -0.320  -8.037  -3.664  0.00  0.00     0.013 A 
ATOM     33  C27 NON d   1       0.686  -7.876  -2.699  0.00  0.00     0.010 A 
BRANCH  31  34
ATOM     34  C20 NON d   1      -2.653  -7.643  -4.586  0.00  0.00    -0.026 A 
ATOM     35  C21 NON d   1      -3.843  -6.888  -4.606  0.00  0.00     0.012 A 
ATOM     36  C22 NON d   1      -4.835  -7.080  -5.581  0.00  0.00     0.001 A 
ATOM     37  C23 NON d   1      -4.663  -8.030  -6.577  0.00  0.00     0.000 A 
ATOM     38  C24 NON d   1      -3.503  -8.790  -6.596  0.00  0.00     0.001 A 
ATOM     39  C25 NON d   1      -2.523  -8.603  -5.612  0.00  0.00     0.012 A 
ENDBRANCH  31  34
ENDBRANCH  27  28
ENDBRANCH  21  27
ENDBRANCH   1  21
TORSDOF 11
