REMARK  11 active torsions:
REMARK  status: ('A' for Active; 'I' for Inactive)
REMARK    1  A    between atoms: C2_2  and  C3_4 
REMARK    2  A    between atoms: C3_4  and  C4_5 
REMARK    3  A    between atoms: C4_5  and  C5_6 
REMARK    4  A    between atoms: C5_6  and  C6_7 
REMARK    5  A    between atoms: C6_7  and  C7_8 
REMARK    6  A    between atoms: C8_9  and  C7_8 
REMARK    7  A    between atoms: C8_9  and  N1_10 
REMARK    8  A    between atoms: C8_9  and  C16_22 
REMARK    9  A    between atoms: N1_10  and  S1_11 
REMARK   10  A    between atoms: S1_11  and  C9_14 
REMARK   11  A    between atoms: C17_24  and  C18_25 
ROOT
ATOM      1  C9  NON d   1       4.480  -1.089   0.037  0.00  0.00     0.081 A 
ATOM      2  C10 NON d   1       5.055  -0.401   1.135  0.00  0.00     0.025 A 
ATOM      3  C11 NON d   1       6.246   0.335   1.042  0.00  0.00     0.003 A 
ATOM      4  C12 NON d   1       6.926   0.409  -0.161  0.00  0.00     0.023 A 
ATOM      5  C13 NON d   1       6.411  -0.245  -1.276  0.00  0.00     0.046 A 
ATOM      6  C14 NON d   1       7.114  -0.192  -2.528  0.00  0.00     0.099 C 
ATOM      7  N2  NON d   1       7.673  -0.148  -3.541  0.00  0.00    -0.191 NA
ATOM      8  C15 NON d   1       5.201  -0.962  -1.176  0.00  0.00     0.048 A 
ENDROOT
BRANCH   1   9
ATOM      9  S1  NON d   1       3.147  -1.859   0.018  0.00  0.00     0.259 S 
ATOM     10  O2  NON d   1       3.807  -3.116  -0.360  0.00  0.00    -0.201 OA
ATOM     11  O3  NON d   1       2.885  -1.593   1.443  0.00  0.00    -0.201 OA
BRANCH   9  12
ATOM     12  N1  NON d   1       1.813  -2.629   0.000  0.00  0.00    -0.303 N 
ATOM     13  H15 NON d   1       1.956  -3.424  -0.631  0.00  0.00     0.173 HD
BRANCH  12  14
ATOM     14  C8  NON d   1       0.479  -1.859   0.000  0.00  0.00     0.162 C 
BRANCH  14  15
ATOM     15  C7  NON d   1      -0.999  -2.332  -0.317  0.00  0.00     0.034 C 
BRANCH  15  16
ATOM     16  C6  NON d   1      -1.254  -3.199  -1.583  0.00  0.00     0.002 C 
BRANCH  16  17
ATOM     17  C5  NON d   1      -0.597  -4.594  -1.586  0.00  0.00     0.000 C 
BRANCH  17  18
ATOM     18  C4  NON d   1      -1.101  -5.584  -2.638  0.00  0.00     0.007 C 
BRANCH  18  19
ATOM     19  C3  NON d   1      -0.789  -5.165  -4.072  0.00  0.00     0.077 C 
BRANCH  19  20
ATOM     20  C2  NON d   1      -1.847  -4.269  -4.687  0.00  0.00     0.123 C 
ATOM     21  C1  NON d   1      -1.485  -3.582  -5.975  0.00  0.00     0.091 C 
ATOM     22  O1  NON d   1      -2.967  -4.129  -4.198  0.00  0.00    -0.298 OA
ENDBRANCH  19  20
ENDBRANCH  18  19
ENDBRANCH  17  18
ENDBRANCH  16  17
ENDBRANCH  15  16
ENDBRANCH  14  15
BRANCH  14  23
ATOM     23  C16 NON d   1       0.479  -0.319   0.000  0.00  0.00     0.128 C 
ATOM     24  N3  NON d   1      -0.404   0.492  -0.563  0.00  0.00    -0.231 NA
ATOM     25  C17 NON d   1      -0.114   1.766  -0.116  0.00  0.00     0.084 C 
ATOM     26  C24 NON d   1       1.065   1.753   0.594  0.00  0.00     0.122 C 
ATOM     27  N4  NON d   1       1.322   0.428   0.795  0.00  0.00    -0.350 N 
ATOM     28  H26 NON d   1       2.005   0.040   1.437  0.00  0.00     0.166 HD
BRANCH  25  29
ATOM     29  C18 NON d   1      -1.006   2.911  -0.214  0.00  0.00    -0.006 A 
ATOM     30  C19 NON d   1      -2.394   2.705  -0.209  0.00  0.00     0.014 A 
ATOM     31  C20 NON d   1      -3.276   3.789  -0.146  0.00  0.00     0.001 A 
ATOM     32  C21 NON d   1      -2.780   5.090  -0.099  0.00  0.00     0.000 A 
ATOM     33  C22 NON d   1      -1.404   5.310  -0.124  0.00  0.00     0.001 A 
ATOM     34  C23 NON d   1      -0.522   4.227  -0.181  0.00  0.00     0.014 A 
ENDBRANCH  25  29
ENDBRANCH  14  23
ENDBRANCH  12  14
ENDBRANCH   9  12
ENDBRANCH   1   9
TORSDOF 11
