REMARK  11 active torsions:
REMARK  status: ('A' for Active; 'I' for Inactive)
REMARK    1  A    between atoms: C1_2  and  C2_3 
REMARK       I    between atoms: C1_2  and  N3_27 
REMARK    2  A    between atoms: C3_4  and  C4_5 
REMARK    3  A    between atoms: C7_8  and  C8_9 
REMARK    4  A    between atoms: C8_9  and  N1_10 
REMARK    5  A    between atoms: N1_10  and  C9_11 
REMARK    6  A    between atoms: N1_10  and  C11_14 
REMARK    7  A    between atoms: C9_11  and  C10_12 
REMARK    8  A    between atoms: C10_12  and  O2_13 
REMARK    9  A    between atoms: C11_14  and  C12_15 
REMARK   10  A    between atoms: C12_15  and  C13_16 
REMARK   11  A    between atoms: N3_27  and  O3_28 
ROOT
ATOM      1  N1  NON d   1       7.599  -2.795   0.000  0.00  0.00    -0.065 N 
ATOM      2  H7  NON d   1       6.265  -2.025   0.000  0.00  0.00     0.280 HD
ENDROOT
BRANCH   1   3
ATOM      3  C8  NON d   1       7.981  -1.299   0.039  0.00  0.00     0.273 C 
BRANCH   3   4
ATOM      4  C7  NON d   1       7.336  -0.555   1.214  0.00  0.00    -0.033 A 
ATOM      5  C6  NON d   1       7.009   0.798   1.102  0.00  0.00     0.009 A 
ATOM      6  C5  NON d   1       6.353   1.471   2.148  0.00  0.00     0.012 A 
ATOM      7  C4  NON d   1       5.977   0.821   3.336  0.00  0.00    -0.036 A 
ATOM      8  C22 NON d   1       6.346  -0.519   3.469  0.00  0.00     0.012 A 
ATOM      9  C21 NON d   1       7.021  -1.191   2.432  0.00  0.00     0.009 A 
BRANCH   7  10
ATOM     10  C3  NON d   1       5.257   1.590   4.373  0.00  0.00     0.017 C 
ATOM     11  C2  NON d   1       4.565   1.078   5.413  0.00  0.00     0.077 C 
BRANCH  11  12
ATOM     12  C1  NON d   1       3.788   1.879   6.408  0.00  0.00     0.264 C 
ATOM     13  O1  NON d   1       2.880   1.346   7.039  0.00  0.00    -0.266 OA
ATOM     14  N3  NON d   1       4.186   3.177   6.576  0.00  0.00    -0.234 N 
ATOM     15  H25 NON d   1       5.064   3.535   6.226  0.00  0.00     0.197 HD
BRANCH  14  16
ATOM     16  O3  NON d   1       3.620   3.891   7.655  0.00  0.00    -0.287 OA
ATOM     17  H26 NON d   1       2.661   3.787   7.496  0.00  0.00     0.244 HD
ENDBRANCH  14  16
ENDBRANCH  11  12
ENDBRANCH   7  10
ENDBRANCH   3   4
ENDBRANCH   1   3
BRANCH   1  18
ATOM     18  C9  NON d   1       6.578  -3.640  -0.810  0.00  0.00     0.261 C 
BRANCH  18  19
ATOM     19  C10 NON d   1       5.326  -3.782   0.093  0.00  0.00     0.192 C 
BRANCH  19  20
ATOM     20  O2  NON d   1       4.894  -2.430   0.333  0.00  0.00    -0.399 OA
ATOM     21  H12 NON d   1       4.126  -2.481   0.944  0.00  0.00     0.209 HD
ENDBRANCH  19  20
ENDBRANCH  18  19
ENDBRANCH   1  18
BRANCH   1  22
ATOM     22  C11 NON d   1       8.933  -3.565   0.000  0.00  0.00     0.241 C 
BRANCH  22  23
ATOM     23  C12 NON d   1       9.002  -5.095   0.107  0.00  0.00     0.084 C 
BRANCH  23  24
ATOM     24  C13 NON d   1       8.325  -5.733   1.270  0.00  0.00     0.012 A 
ATOM     25  C14 NON d   1       7.890  -5.248   2.486  0.00  0.00     0.038 A 
ATOM     26  C15 NON d   1       7.288  -6.316   3.205  0.00  0.00    -0.008 A 
ATOM     27  C16 NON d   1       6.633  -6.416   4.446  0.00  0.00     0.014 A 
ATOM     28  C20 NON d   1       7.455  -7.467   2.439  0.00  0.00     0.042 A 
ATOM     29  C17 NON d   1       6.167  -7.665   4.874  0.00  0.00     0.001 A 
ATOM     30  C18 NON d   1       6.364  -8.802   4.093  0.00  0.00     0.002 A 
ATOM     31  C19 NON d   1       7.018  -8.727   2.859  0.00  0.00     0.030 A 
ATOM     32  N2  NON d   1       8.110  -7.095   1.289  0.00  0.00    -0.359 N 
ATOM     33  H22 NON d   1       8.395  -7.749   0.572  0.00  0.00     0.166 HD
ENDBRANCH  23  24
ENDBRANCH  22  23
ENDBRANCH   1  22
TORSDOF 11
