@<TRIPOS>MOLECULE
*****
 69 74 0 0 0
SMALL
USER_CHARGES

@<TRIPOS>ATOM
      1 N1        -13.2822   -0.9779    0.1058 N.pl3   1  NONAME1    -0.3565
      2 C1        -14.0509    0.2113    0.0914 C.ar    1  NONAME1     0.0461
      3 C2        -15.4431    0.1304    0.2351 C.ar    1  NONAME1    -0.0392
      4 C3        -16.2280    1.2828    0.2187 C.ar    1  NONAME1    -0.0599
      5 C4        -15.6227    2.5285    0.0956 C.ar    1  NONAME1    -0.0599
      6 C5        -14.2306    2.6240    0.0139 C.ar    1  NONAME1    -0.0387
      7 C6        -13.4266    1.4778    0.0354 C.ar    1  NONAME1     0.0545
      8 N2        -12.0030    1.5141    0.0393 N.am    1  NONAME1    -0.2800
      9 C7        -11.2103    2.6356   -0.1226 C.2     1  NONAME1     0.2483
     10 O1        -11.6378    3.7640   -0.3605 O.2     1  NONAME1    -0.2699
     11 C8         -9.7171    2.4768   -0.0200 C.ar    1  NONAME1     0.0370
     12 C9         -8.9773    3.6650    0.0498 C.ar    1  NONAME1    -0.0493
     13 C10        -7.5834    3.6461    0.0800 C.ar    1  NONAME1    -0.0561
     14 C11        -6.8690    2.4379    0.0429 C.ar    1  NONAME1    -0.0260
     15 C12        -5.3606    2.5486    0.0127 C.3     1  NONAME1     0.0684
     16 N3         -4.5497    1.3281    0.0525 N.2     1  NONAME1    -0.2453
     17 C13        -3.2712    1.4618    0.0351 C.ar    1  NONAME1     0.2290
     18 N4         -2.6238    2.7103   -0.0105 N.ar    1  NONAME1    -0.2984
     19 C14        -1.2863    2.8540   -0.0005 C.ar    1  NONAME1     0.1759
     20 N5         -0.7589    4.1259    0.0819 N.pl3   1  NONAME1    -0.3135
     21 C15         0.5829    4.4512    0.4660 C.3     1  NONAME1     0.0233
     22 C16         1.4444    5.3016   -0.4159 C.3     1  NONAME1    -0.0328
     23 C17         1.8374    3.8784   -0.1091 C.3     1  NONAME1    -0.0328
     24 N6         -0.5555    1.7827   -0.0452 N.ar    1  NONAME1    -0.3018
     25 C18        -1.0876    0.5850   -0.0349 C.ar    1  NONAME1     0.1987
     26 N7         -0.4229   -0.5479   -0.1346 N.pl3   1  NONAME1    -0.3113
     27 C19         0.9884   -0.8402   -0.4781 C.3     1  NONAME1     0.0312
     28 C20         2.0147    0.1608    0.0719 C.3     1  NONAME1    -0.0086
     29 C21         3.2532   -0.6687    0.1105 C.ar    1  NONAME1    -0.0424
     30 C22         4.5677   -0.2336    0.1509 C.ar    1  NONAME1    -0.0583
     31 C23         5.5758   -1.1965    0.1658 C.ar    1  NONAME1    -0.0615
     32 C24         5.2577   -2.5643    0.1556 C.ar    1  NONAME1    -0.0615
     33 C25         3.9244   -2.9890    0.1297 C.ar    1  NONAME1    -0.0583
     34 C26         2.9290   -2.0288    0.0940 C.ar    1  NONAME1    -0.0424
     35 C27         1.4408   -2.2181    0.0537 C.3     1  NONAME1    -0.0086
     36 N8         -2.4916    0.3953    0.0724 N.ar    1  NONAME1    -0.1807
     37 C28        -7.5986    1.2458   -0.0061 C.ar    1  NONAME1    -0.0561
     38 C29        -9.0140    1.2625   -0.0361 C.ar    1  NONAME1    -0.0493
     39 H1        -13.8617   -1.8074    0.0080 H       1  NONAME1     0.1424
     40 H2        -12.5853   -0.9540   -0.6357 H       1  NONAME1     0.1424
     41 H3        -15.9340   -0.8334    0.3353 H       1  NONAME1     0.0636
     42 H4        -17.3085    1.2105    0.3076 H       1  NONAME1     0.0618
     43 H5        -16.2255    3.4326    0.0859 H       1  NONAME1     0.0618
     44 H6        -13.8059    3.6207   -0.0384 H       1  NONAME1     0.0637
     45 H7        -11.5721    0.6265    0.2572 H       1  NONAME1     0.1552
     46 H8         -9.4853    4.6287    0.0633 H       1  NONAME1     0.0625
     47 H9         -7.0594    4.5987    0.1153 H       1  NONAME1     0.0621
     48 H10        -5.1191    3.0919   -0.9112 H       1  NONAME1     0.0559
     49 H11        -5.0849    3.1751    0.8712 H       1  NONAME1     0.0559
     50 H12        -3.1984    3.5320   -0.0377 H       1  NONAME1     0.1714
     51 H13        -1.4210    4.8896    0.1852 H       1  NONAME1     0.1491
     52 H14         0.6077    4.8007    1.5015 H       1  NONAME1     0.0498
     53 H15         2.0309    6.0926    0.0409 H       1  NONAME1     0.0284
     54 H16         1.1185    5.5222   -1.4259 H       1  NONAME1     0.0284
     55 H17         2.6784    3.7255    0.5616 H       1  NONAME1     0.0284
     56 H18         1.8341    3.2243   -0.9711 H       1  NONAME1     0.0284
     57 H19         0.4306    1.8947   -0.0692 H       1  NONAME1     0.1712
     58 H20        -1.0602   -1.3436   -0.0770 H       1  NONAME1     0.1492
     59 H21         1.0496   -0.8507   -1.5762 H       1  NONAME1     0.0505
     60 H22         2.1483    0.9977   -0.6163 H       1  NONAME1     0.0331
     61 H23         1.7623    0.5156    1.0757 H       1  NONAME1     0.0331
     62 H24         4.8213    0.8209    0.1605 H       1  NONAME1     0.0620
     63 H25         6.6194   -0.8880    0.1846 H       1  NONAME1     0.0618
     64 H26         6.0608   -3.2989    0.1686 H       1  NONAME1     0.0618
     65 H27         3.6888   -4.0481    0.1248 H       1  NONAME1     0.0620
     66 H28         1.0539   -2.4154    1.0594 H       1  NONAME1     0.0331
     67 H29         1.1423   -3.0228   -0.6246 H       1  NONAME1     0.0331
     68 H30        -7.0748    0.2915   -0.0366 H       1  NONAME1     0.0621
     69 H31        -9.5283    0.3093   -0.0990 H       1  NONAME1     0.0625
@<TRIPOS>BOND
     1     1     2    1
     2     2     3   ar
     3     3     4   ar
     4     4     5   ar
     5     5     6   ar
     6     6     7   ar
     7     2     7   ar
     8     7     8    1
     9     8     9   am
    10     9    10    2
    11     9    11    1
    12    11    12   ar
    13    12    13   ar
    14    13    14   ar
    15    14    15    1
    16    16    15    1
    17    16    17    2
    18    17    18   ar
    19    18    19   ar
    20    19    20    1
    21    20    21    1
    22    21    22    1
    23    22    23    1
    24    21    23    1
    25    19    24   ar
    26    24    25   ar
    27    25    26    1
    28    26    27    1
    29    27    28    1
    30    28    29    1
    31    29    30   ar
    32    30    31   ar
    33    31    32   ar
    34    32    33   ar
    35    33    34   ar
    36    29    34   ar
    37    34    35    1
    38    27    35    1
    39    25    36   ar
    40    17    36   ar
    41    14    37   ar
    42    37    38   ar
    43    11    38   ar
    44     1    39    1
    45     1    40    1
    46     3    41    1
    47     4    42    1
    48     5    43    1
    49     6    44    1
    50     8    45    1
    51    12    46    1
    52    13    47    1
    53    15    48    1
    54    15    49    1
    55    18    50    1
    56    20    51    1
    57    21    52    1
    58    22    53    1
    59    22    54    1
    60    23    55    1
    61    23    56    1
    62    24    57    1
    63    26    58    1
    64    27    59    1
    65    28    60    1
    66    28    61    1
    67    30    62    1
    68    31    63    1
    69    32    64    1
    70    33    65    1
    71    35    66    1
    72    35    67    1
    73    37    68    1
    74    38    69    1
