REMARK  11 active torsions:
REMARK  status: ('A' for Active; 'I' for Inactive)
REMARK    1  A    between atoms: C2_2  and  C3_3 
REMARK    2  A    between atoms: C3_3  and  C4_5 
REMARK    3  A    between atoms: C4_5  and  C5_6 
REMARK    4  A    between atoms: C5_6  and  C6_7 
REMARK    5  A    between atoms: C6_7  and  C7_8 
REMARK    6  A    between atoms: C7_8  and  C8_9 
REMARK    7  A    between atoms: C9_10  and  C8_9 
REMARK    8  A    between atoms: C15_21  and  C16_22 
REMARK    9  A    between atoms: C16_22  and  C17_23 
REMARK   10  A    between atoms: C21_29  and  C22_30 
REMARK   11  A    between atoms: C22_30  and  C23_31 
ROOT
ATOM      1  C9  NON d   1      11.195  13.756  -0.181  0.00  0.00     0.176 C 
ATOM      2  N1  NON d   1      12.509  13.130   0.127  0.00  0.00    -0.346 N 
ATOM      3  C10 NON d   1      13.023  12.219  -0.788  0.00  0.00     0.242 C 
ATOM      4  O2  NON d   1      12.323  11.850  -1.738  0.00  0.00    -0.271 OA
ATOM      5  C11 NON d   1      14.393  11.581  -0.618  0.00  0.00     0.194 C 
ATOM      6  C12 NON d   1      14.426  10.562   0.529  0.00  0.00     0.044 C 
ATOM      7  N2  NON d   1      15.608  12.422  -0.701  0.00  0.00    -0.261 N 
ATOM      8  N3  NON d   1      16.741  11.665  -0.714  0.00  0.00     0.005 NA
ATOM      9  N4  NON d   1      17.357  11.912   0.433  0.00  0.00    -0.170 NA
ATOM     10  C13 NON d   1      16.869  13.097   0.907  0.00  0.00     0.164 C 
ATOM     11  C14 NON d   1      15.954  13.589  -0.015  0.00  0.00     0.069 C 
ATOM     12  C15 NON d   1      15.842  14.996  -0.561  0.00  0.00     0.137 C 
ATOM     13  N5  NON d   1      14.609  15.561  -0.036  0.00  0.00    -0.349 N 
ATOM     14  C20 NON d   1      14.220  16.886  -0.299  0.00  0.00     0.241 C 
ATOM     15  O3  NON d   1      14.992  17.765  -0.646  0.00  0.00    -0.271 OA
ATOM     16  C21 NON d   1      12.671  17.055  -0.329  0.00  0.00     0.181 C 
ATOM     17  N7  NON d   1      12.099  15.976   0.506  0.00  0.00    -0.346 N 
ATOM     18  C31 NON d   1      11.015  15.285   0.021  0.00  0.00     0.241 C 
ATOM     19  O4  NON d   1      10.030  15.884  -0.408  0.00  0.00    -0.271 OA
ATOM     20  H17 NON d   1      12.919  13.222   1.049  0.00  0.00     0.163 HD
ATOM     21  H33 NON d   1      13.830  14.927  -0.133  0.00  0.00     0.163 HD
ATOM     22  H43 NON d   1      12.685  15.573   1.226  0.00  0.00     0.163 HD
ENDROOT
BRANCH  16  23
ATOM     23  C22 NON d   1      12.173  18.465   0.037  0.00  0.00     0.075 C 
BRANCH  23  24
ATOM     24  C23 NON d   1      12.251  19.512  -1.056  0.00  0.00    -0.028 A 
ATOM     25  C24 NON d   1      13.014  19.494  -2.210  0.00  0.00     0.096 A 
ATOM     26  N6  NON d   1      12.814  20.655  -2.901  0.00  0.00    -0.365 N 
ATOM     27  C25 NON d   1      11.914  21.450  -2.238  0.00  0.00     0.042 A 
ATOM     28  H38 NON d   1      13.263  20.904  -3.771  0.00  0.00     0.165 HD
ATOM     29  C26 NON d   1      11.404  22.707  -2.582  0.00  0.00     0.030 A 
ATOM     30  C30 NON d   1      11.533  20.764  -1.084  0.00  0.00    -0.002 A 
ATOM     31  C27 NON d   1      10.476  23.286  -1.719  0.00  0.00     0.002 A 
ATOM     32  C28 NON d   1      10.062  22.635  -0.559  0.00  0.00     0.001 A 
ATOM     33  C29 NON d   1      10.588  21.388  -0.229  0.00  0.00     0.014 A 
ENDBRANCH  23  24
ENDBRANCH  16  23
BRANCH  12  34
ATOM     34  C16 NON d   1      17.155  15.819  -0.329  0.00  0.00     0.035 C 
BRANCH  34  35
ATOM     35  C17 NON d   1      18.167  15.676  -1.500  0.00  0.00    -0.020 C 
ATOM     36  C18 NON d   1      19.254  14.636  -1.225  0.00  0.00     0.009 C 
ATOM     37  C19 NON d   1      18.842  17.018  -1.808  0.00  0.00     0.009 C 
ENDBRANCH  34  35
ENDBRANCH  12  34
BRANCH   1  38
ATOM     38  C8  NON d   1       9.916  12.949   0.148  0.00  0.00     0.035 C 
BRANCH  38  39
ATOM     39  C7  NON d   1       9.691  12.401   1.563  0.00  0.00     0.002 C 
BRANCH  39  40
ATOM     40  C6  NON d   1      10.352  11.038   1.800  0.00  0.00     0.000 C 
BRANCH  40  41
ATOM     41  C5  NON d   1       9.604  10.141   2.799  0.00  0.00     0.007 C 
BRANCH  41  42
ATOM     42  C4  NON d   1       9.461  10.732   4.200  0.00  0.00     0.078 C 
BRANCH  42  43
ATOM     43  C3  NON d   1       8.982   9.703   5.217  0.00  0.00     0.126 C 
ATOM     44  O1  NON d   1       8.588   8.584   4.881  0.00  0.00    -0.298 OA
BRANCH  43  45
ATOM     45  C2  NON d   1       8.990  10.155   6.671  0.00  0.00     0.074 C 
ATOM     46  C1  NON d   1       8.688   9.032   7.649  0.00  0.00     0.013 C 
ENDBRANCH  43  45
ENDBRANCH  42  43
ENDBRANCH  41  42
ENDBRANCH  40  41
ENDBRANCH  39  40
ENDBRANCH  38  39
ENDBRANCH   1  38
TORSDOF 11
