REMARK  9 active torsions:
REMARK  status: ('A' for Active; 'I' for Inactive)
REMARK    1  A    between atoms: O1_2  and  C2_3 
REMARK    2  A    between atoms: C5_6  and  C6_7 
REMARK    3  A    between atoms: C9_11  and  N2_12 
REMARK    4  A    between atoms: N2_12  and  C10_13 
REMARK    5  A    between atoms: C10_13  and  C11_14 
REMARK    6  A    between atoms: C14_17  and  C15_18 
REMARK       I    between atoms: C15_18  and  N3_20 
REMARK    7  A    between atoms: N3_20  and  C16_21 
REMARK    8  A    between atoms: C21_26  and  N4_27 
REMARK    9  A    between atoms: C25_32  and  O3_33 
ROOT
ATOM      1  C11 NON d   1       3.926 -23.174   0.011  0.00  0.00    -0.045 A 
ATOM      2  C12 NON d   1       3.976 -24.587   0.057  0.00  0.00     0.009 A 
ATOM      3  C13 NON d   1       2.815 -25.382  -0.024  0.00  0.00     0.017 A 
ATOM      4  C14 NON d   1       1.560 -24.780  -0.145  0.00  0.00     0.032 A 
ATOM      5  C22 NON d   1       1.509 -23.373  -0.185  0.00  0.00     0.017 A 
ATOM      6  C23 NON d   1       2.668 -22.584  -0.109  0.00  0.00     0.009 A 
ENDROOT
BRANCH   1   7
ATOM      7  C10 NON d   1       5.232 -22.389   0.118  0.00  0.00     0.134 C 
BRANCH   7   8
ATOM      8  N2  NON d   1       5.142 -20.953  -0.165  0.00  0.00    -0.257 NA
ATOM      9  H8  NON d   1       4.489 -20.422   0.394  0.00  0.00     0.131 HD
BRANCH   8  10
ATOM     10  C9  NON d   1       6.371 -20.280  -0.095  0.00  0.00     0.202 A 
ATOM     11  N1  NON d   1       7.486 -21.024  -0.081  0.00  0.00    -0.231 NA
ATOM     12  C8  NON d   1       8.651 -20.385   0.017  0.00  0.00     0.122 A 
ATOM     13  C7  NON d   1       8.751 -19.020   0.080  0.00  0.00     0.052 A 
ATOM     14  C6  NON d   1       7.576 -18.280   0.023  0.00  0.00     0.071 A 
ATOM     15  N5  NON d   1       6.372 -18.924  -0.030  0.00  0.00    -0.218 NA
BRANCH  14  16
ATOM     16  C5  NON d   1       7.615 -16.766  -0.015  0.00  0.00    -0.004 A 
ATOM     17  C4  NON d   1       8.843 -16.074  -0.134  0.00  0.00     0.017 A 
ATOM     18  C3  NON d   1       8.931 -14.677  -0.196  0.00  0.00     0.040 A 
ATOM     19  C2  NON d   1       7.785 -13.892  -0.132  0.00  0.00     0.101 A 
ATOM     20  C25 NON d   1       6.541 -14.509  -0.034  0.00  0.00     0.102 A 
ATOM     21  C24 NON d   1       6.469 -15.936   0.029  0.00  0.00     0.053 A 
BRANCH  19  22
ATOM     22  O1  NON d   1       7.918 -12.537  -0.272  0.00  0.00    -0.353 OA
ATOM     23  C1  NON d   1       8.422 -11.949   0.927  0.00  0.00     0.210 C 
ENDBRANCH  19  22
BRANCH  20  24
ATOM     24  O3  NON d   1       5.335 -13.860   0.000  0.00  0.00    -0.353 OA
ATOM     25  C26 NON d   1       5.335 -12.320   0.000  0.00  0.00     0.210 C 
ENDBRANCH  20  24
ENDBRANCH  14  16
ENDBRANCH   8  10
ENDBRANCH   7   8
ENDBRANCH   1   7
BRANCH   4  26
ATOM     26  C15 NON d   1       0.252 -25.518  -0.270  0.00  0.00     0.256 C 
ATOM     27  O2  NON d   1      -0.718 -24.878  -0.672  0.00  0.00    -0.267 OA
ATOM     28  N3  NON d   1       0.227 -26.869   0.047  0.00  0.00    -0.321 N 
ATOM     29  H13 NON d   1       1.110 -27.320   0.215  0.00  0.00     0.169 HD
BRANCH  28  30
ATOM     30  C16 NON d   1      -0.898 -27.756   0.045  0.00  0.00     0.056 A 
ATOM     31  C17 NON d   1      -0.579 -29.130  -0.001  0.00  0.00     0.031 A 
ATOM     32  C18 NON d   1      -1.572 -30.116  -0.017  0.00  0.00     0.002 A 
ATOM     33  C19 NON d   1      -2.909 -29.753   0.047  0.00  0.00     0.002 A 
ATOM     34  C20 NON d   1      -3.246 -28.404   0.128  0.00  0.00     0.025 A 
ATOM     35  C21 NON d   1      -2.265 -27.391   0.092  0.00  0.00     0.033 A 
BRANCH  35  36
ATOM     36  N4  NON d   1      -2.715 -26.088   0.392  0.00  0.00    -0.301 NA
ATOM     37  H18 NON d   1      -2.065 -25.393   0.009  0.00  0.00     0.124 HD
ATOM     38  H19 NON d   1      -3.652 -25.904   0.051  0.00  0.00     0.124 HD
ENDBRANCH  35  36
ENDBRANCH  28  30
ENDBRANCH   4  26
TORSDOF 9
