@<TRIPOS>MOLECULE
*****
 54 55 0 0 0
SMALL
USER_CHARGES

@<TRIPOS>ATOM
      1 C1         -4.0010    8.4700    0.0000 C.3     1  NONAME1     0.0010
      2 N1         -4.0010    6.9300    0.0000 N.pl3   1  NONAME1    -0.3286
      3 C2         -5.2449    6.1944    0.3322 C.3     1  NONAME1     0.0369
      4 C3         -6.6152    6.8798    0.2531 C.ar    1  NONAME1    -0.0301
      5 C4         -7.7156    6.0990   -0.1646 C.ar    1  NONAME1    -0.0557
      6 C5         -9.0124    6.6247   -0.2275 C.ar    1  NONAME1    -0.0431
      7 C6         -9.2346    7.9535    0.1109 C.ar    1  NONAME1     0.0410
      8 Cl1       -10.8164    8.6192    0.0008 Cl      1  NONAME1    -0.0835
      9 C7         -8.1804    8.7378    0.5630 C.ar    1  NONAME1    -0.0431
     10 C8         -6.8961    8.1873    0.6810 C.ar    1  NONAME1    -0.0557
     11 C9         -2.7663    6.2627    0.1020 C.ar    1  NONAME1     0.0299
     12 C10        -1.5566    6.9568    0.2822 C.ar    1  NONAME1    -0.0372
     13 C11        -0.3034    6.3261    0.2556 C.ar    1  NONAME1    -0.0182
     14 C12        -0.2076    4.9505    0.0846 C.ar    1  NONAME1     0.1206
     15 O1          0.9617    4.2339    0.0283 O.3     1  NONAME1    -0.4920
     16 C13         2.1647    5.0073    0.1327 C.3     1  NONAME1     0.0896
     17 C14         3.3854    4.0925    0.1361 C.3     1  NONAME1    -0.0186
     18 C15         4.7297    4.8343    0.0424 C.3     1  NONAME1    -0.0500
     19 C16         5.2031    5.5462    1.3219 C.3     1  NONAME1    -0.0525
     20 C17         4.6473    6.9640    1.4980 C.3     1  NONAME1    -0.0447
     21 C18         5.0818    7.6219    2.8087 C.3     1  NONAME1     0.0259
     22 C19         6.4113    8.3510    2.7566 C.2     1  NONAME1     0.2354
     23 O2          7.1687    8.3263    1.7970 O.2     1  NONAME1    -0.2737
     24 N2          6.6258    9.0718    3.9200 N.am    1  NONAME1    -0.1975
     25 O3          7.9186    9.6293    4.0692 O.3     1  NONAME1    -0.2952
     26 C20        -1.3878    4.2241   -0.0445 C.ar    1  NONAME1    -0.0182
     27 C21        -2.6417    4.8706   -0.0377 C.ar    1  NONAME1    -0.0372
     28 H1         -3.1349    8.5996   -0.6776 H       1  NONAME1     0.0428
     29 H2         -4.0010   10.0100    0.0000 H       1  NONAME1     0.0428
     30 H3         -4.8297    8.5675   -0.7278 H       1  NONAME1     0.0428
     31 H4         -5.3070    5.3655   -0.3850 H       1  NONAME1     0.0513
     32 H5         -5.1593    5.7613    1.3359 H       1  NONAME1     0.0513
     33 H6         -7.5737    5.0531   -0.4340 H       1  NONAME1     0.0621
     34 H7         -9.8392    5.9914   -0.5382 H       1  NONAME1     0.0632
     35 H8         -8.3492    9.7756    0.8393 H       1  NONAME1     0.0632
     36 H9         -6.1264    8.8195    1.1103 H       1  NONAME1     0.0621
     37 H10        -1.5397    8.0307    0.4432 H       1  NONAME1     0.0637
     38 H11         0.5705    6.9585    0.3614 H       1  NONAME1     0.0655
     39 H12         2.1384    5.5536    1.0774 H       1  NONAME1     0.0696
     40 H13         2.2314    5.6968   -0.7179 H       1  NONAME1     0.0696
     41 H14         3.3056    3.4066   -0.7172 H       1  NONAME1     0.0298
     42 H15         3.3634    3.4525    1.0266 H       1  NONAME1     0.0298
     43 H16         5.4867    4.0765   -0.2000 H       1  NONAME1     0.0266
     44 H17         4.7193    5.5343   -0.8015 H       1  NONAME1     0.0266
     45 H18         4.9667    4.9273    2.1960 H       1  NONAME1     0.0265
     46 H19         6.2980    5.6171    1.2790 H       1  NONAME1     0.0265
     47 H20         4.9324    7.5872    0.6426 H       1  NONAME1     0.0270
     48 H21         3.5577    6.9285    1.5124 H       1  NONAME1     0.0270
     49 H22         5.1215    6.8764    3.6140 H       1  NONAME1     0.0359
     50 H23         4.3188    8.3613    3.0916 H       1  NONAME1     0.0359
     51 H24         6.1886    8.7800    4.7885 H       1  NONAME1     0.1822
     52 H25         7.8163   10.5028    3.6465 H       1  NONAME1     0.2414
     53 H26        -1.3455    3.1460   -0.1793 H       1  NONAME1     0.0655
     54 H27        -3.5144    4.2430   -0.1879 H       1  NONAME1     0.0637
@<TRIPOS>BOND
     1     1     2    1
     2     2     3    1
     3     3     4    1
     4     4     5   ar
     5     5     6   ar
     6     6     7   ar
     7     7     8    1
     8     7     9   ar
     9     9    10   ar
    10     4    10   ar
    11     2    11    1
    12    11    12   ar
    13    12    13   ar
    14    13    14   ar
    15    14    15    1
    16    15    16    1
    17    16    17    1
    18    17    18    1
    19    18    19    1
    20    19    20    1
    21    20    21    1
    22    21    22    1
    23    22    23    2
    24    22    24   am
    25    24    25    1
    26    14    26   ar
    27    26    27   ar
    28    11    27   ar
    29     1    28    1
    30     1    29    1
    31     1    30    1
    32     3    31    1
    33     3    32    1
    34     5    33    1
    35     6    34    1
    36     9    35    1
    37    10    36    1
    38    12    37    1
    39    13    38    1
    40    16    39    1
    41    16    40    1
    42    17    41    1
    43    17    42    1
    44    18    43    1
    45    18    44    1
    46    19    45    1
    47    19    46    1
    48    20    47    1
    49    20    48    1
    50    21    49    1
    51    21    50    1
    52    24    51    1
    53    25    52    1
    54    26    53    1
    55    27    54    1
