REMARK  7 active torsions:
REMARK  status: ('A' for Active; 'I' for Inactive)
REMARK    1  A    between atoms: C3_3  and  C4_4 
REMARK    2  A    between atoms: C4_4  and  N1_5 
REMARK    3  A    between atoms: N1_5  and  C5_6 
REMARK    4  A    between atoms: C8_9  and  C9_10 
REMARK       I    between atoms: C9_10  and  N2_12 
REMARK    5  A    between atoms: N2_12  and  C10_13 
REMARK    6  A    between atoms: C12_15  and  C13_16 
REMARK    7  A    between atoms: C21_24  and  N3_25 
ROOT
ATOM      1  C9  NON d   1      -2.663  -6.460  -0.156  0.00  0.00     0.256 C 
ATOM      2  O1  NON d   1      -2.567  -5.258  -0.388  0.00  0.00    -0.267 OA
ATOM      3  N2  NON d   1      -1.593  -7.328  -0.017  0.00  0.00    -0.321 N 
ATOM      4  H9  NON d   1      -1.761  -8.295   0.223  0.00  0.00     0.169 HD
ENDROOT
BRANCH   1   5
ATOM      5  C8  NON d   1      -4.055  -7.020  -0.026  0.00  0.00     0.032 A 
ATOM      6  C7  NON d   1      -5.104  -6.094   0.075  0.00  0.00     0.019 A 
ATOM      7  C6  NON d   1      -6.444  -6.504   0.150  0.00  0.00     0.024 A 
ATOM      8  C5  NON d   1      -6.799  -7.854   0.088  0.00  0.00     0.008 A 
ATOM      9  C23 NON d   1      -5.742  -8.780   0.043  0.00  0.00     0.024 A 
ATOM     10  C22 NON d   1      -4.388  -8.377  -0.025  0.00  0.00     0.019 A 
BRANCH   8  11
ATOM     11  N1  NON d   1      -8.124  -8.320   0.201  0.00  0.00    -0.289 NA
ATOM     12  H6  NON d   1      -8.254  -9.190  -0.308  0.00  0.00     0.128 HD
BRANCH  11  13
ATOM     13  C4  NON d   1      -9.226  -7.374  -0.021  0.00  0.00     0.134 C 
BRANCH  13  14
ATOM     14  C3  NON d   1     -10.659  -7.853   0.016  0.00  0.00    -0.002 A 
ATOM     15  C2  NON d   1     -11.804  -7.045   0.000  0.00  0.00     0.035 A 
ATOM     16  C1  NON d   1     -11.804  -5.505   0.000  0.00  0.00     0.070 C 
ATOM     17  N5  NON d   1     -12.871  -7.895   0.071  0.00  0.00    -0.278 N 
ATOM     18  N4  NON d   1     -12.506  -9.194   0.080  0.00  0.00    -0.185 NA
ATOM     19  C25 NON d   1     -14.275  -7.564   0.122  0.00  0.00     0.179 C 
ATOM     20  C24 NON d   1     -11.171  -9.162   0.070  0.00  0.00     0.149 A 
ENDBRANCH  13  14
ENDBRANCH  11  13
ENDBRANCH   8  11
ENDBRANCH   1   5
BRANCH   3  21
ATOM     21  C10 NON d   1      -0.205  -6.994  -0.022  0.00  0.00     0.057 A 
ATOM     22  C11 NON d   1       0.286  -5.678  -0.075  0.00  0.00     0.043 A 
ATOM     23  C12 NON d   1       1.659  -5.360   0.055  0.00  0.00    -0.024 A 
ATOM     24  C19 NON d   1       2.527  -6.451   0.241  0.00  0.00     0.014 A 
ATOM     25  C20 NON d   1       2.064  -7.774   0.257  0.00  0.00     0.026 A 
ATOM     26  C21 NON d   1       0.709  -8.058   0.079  0.00  0.00     0.033 A 
BRANCH  23  27
ATOM     27  C13 NON d   1       2.159  -3.943   0.024  0.00  0.00    -0.026 A 
ATOM     28  C14 NON d   1       1.285  -2.838   0.115  0.00  0.00     0.012 A 
ATOM     29  C15 NON d   1       1.743  -1.512   0.085  0.00  0.00     0.001 A 
ATOM     30  C16 NON d   1       3.100  -1.244  -0.024  0.00  0.00     0.000 A 
ATOM     31  C17 NON d   1       3.995  -2.302  -0.108  0.00  0.00     0.001 A 
ATOM     32  C18 NON d   1       3.529  -3.626  -0.093  0.00  0.00     0.012 A 
ENDBRANCH  23  27
BRANCH  26  33
ATOM     33  N3  NON d   1       0.263  -9.401   0.098  0.00  0.00    -0.301 NA
ATOM     34  H18 NON d   1      -0.370  -9.567  -0.682  0.00  0.00     0.124 HD
ATOM     35  H19 NON d   1       1.039 -10.058   0.054  0.00  0.00     0.124 HD
ENDBRANCH  26  33
ENDBRANCH   3  21
TORSDOF 7
