@<TRIPOS>MOLECULE
*****
 38 40 0 0 0
SMALL
USER_CHARGES

@<TRIPOS>ATOM
      1 O1          7.5649   -3.3199    0.9419 O.2     1  NONAME1    -0.2734
      2 C1          6.6264   -2.7647    0.3801 C.2     1  NONAME1     0.2387
      3 C2          5.3176   -3.4591    0.0567 C.3     1  NONAME1     0.1179
      4 N1          5.3659   -4.9146   -0.0072 N.ar    1  NONAME1    -0.2620
      5 C3          6.4274   -5.7364   -0.2488 C.ar    1  NONAME1     0.0266
      6 C4          5.9331   -7.0177   -0.2334 C.ar    1  NONAME1    -0.0158
      7 C5          4.5393   -6.8763   -0.0501 C.ar    1  NONAME1     0.0993
      8 C6          3.5400   -7.9967   -0.0022 C.ar    1  NONAME1     0.0400
      9 C7          3.8688   -9.3352   -0.0436 C.ar    1  NONAME1    -0.0447
     10 C8          2.7182  -10.1791    0.0024 C.ar    1  NONAME1    -0.0418
     11 C9          1.5368   -9.4619    0.0669 C.ar    1  NONAME1     0.0764
     12 C10         0.1560   -9.9207    0.1094 C.2     1  NONAME1     0.2731
     13 O2         -0.8337   -9.1876    0.1597 O.2     1  NONAME1    -0.2675
     14 N2         -0.0208  -11.2891    0.0707 N.am    1  NONAME1    -0.1930
     15 O3         -1.3544  -11.7572    0.0128 O.3     1  NONAME1    -0.2949
     16 S1          1.8516   -7.7724    0.1034 S.2     1  NONAME1    -0.0820
     17 N3          4.1949   -5.5867    0.0602 N.ar    1  NONAME1    -0.1703
     18 N4          6.6120   -1.4204    0.0154 N.am    1  NONAME1    -0.2839
     19 C11         7.7151   -0.5380    0.0248 C.ar    1  NONAME1     0.0348
     20 C12         7.4470    0.8321   -0.0969 C.ar    1  NONAME1    -0.0404
     21 C13         8.4888    1.7639   -0.1116 C.ar    1  NONAME1    -0.0586
     22 C14         9.8101    1.3315   -0.0272 C.ar    1  NONAME1    -0.0433
     23 C15        10.0814   -0.0305    0.0750 C.ar    1  NONAME1     0.0427
     24 Cl1        11.7166   -0.5658    0.1466 Cl      1  NONAME1    -0.0835
     25 C16         9.0435   -0.9643    0.1058 C.ar    1  NONAME1    -0.0221
     26 H1          4.9486   -3.1256   -0.9193 H       1  NONAME1     0.0605
     27 H2          4.5915   -3.1915    0.8324 H       1  NONAME1     0.0605
     28 H3          7.4354   -5.3672   -0.3791 H       1  NONAME1     0.0826
     29 H4          6.5079   -7.9227   -0.3613 H       1  NONAME1     0.0655
     30 H5          4.8833   -9.7097   -0.0993 H       1  NONAME1     0.0630
     31 H6          2.7816  -11.2594   -0.0166 H       1  NONAME1     0.0631
     32 H7          0.7074  -11.9690   -0.0996 H       1  NONAME1     0.1825
     33 H8         -1.8672  -10.9181    0.0303 H       1  NONAME1     0.2414
     34 H9          5.7099   -1.0039   -0.1841 H       1  NONAME1     0.1549
     35 H10         6.4254    1.1981   -0.1635 H       1  NONAME1     0.0636
     36 H11         8.2697    2.8260   -0.1893 H       1  NONAME1     0.0619
     37 H12        10.6208    2.0549   -0.0456 H       1  NONAME1     0.0632
     38 H13         9.2984   -2.0175    0.1683 H       1  NONAME1     0.0651
@<TRIPOS>BOND
     1     1     2    2
     2     2     3    1
     3     3     4    1
     4     4     5   ar
     5     5     6   ar
     6     6     7   ar
     7     7     8    1
     8     8     9   ar
     9     9    10   ar
    10    10    11   ar
    11    11    12    1
    12    12    13    2
    13    12    14   am
    14    14    15    1
    15    11    16   ar
    16     8    16   ar
    17     7    17   ar
    18     4    17   ar
    19     2    18   am
    20    18    19    1
    21    19    20   ar
    22    20    21   ar
    23    21    22   ar
    24    22    23   ar
    25    23    24    1
    26    23    25   ar
    27    19    25   ar
    28     3    26    1
    29     3    27    1
    30     5    28    1
    31     6    29    1
    32     9    30    1
    33    10    31    1
    34    14    32    1
    35    15    33    1
    36    18    34    1
    37    20    35    1
    38    21    36    1
    39    22    37    1
    40    25    38    1
