@<TRIPOS>MOLECULE
*****
 72 73 0 0 0
SMALL
USER_CHARGES

@<TRIPOS>ATOM
      1 C1          9.6305   -3.8315   -0.7021 C.3     1  NONAME1    -0.0446
      2 C2          9.6065   -2.3609   -0.3930 C.2     1  NONAME1    -0.0608
      3 C3          8.6563   -1.4474   -0.7024 C.2     1  NONAME1     0.0917
      4 N1          7.6566   -1.7589   -1.5959 N.am    1  NONAME1    -0.2801
      5 C4          6.3893   -1.2912   -1.8000 C.2     1  NONAME1     0.2385
      6 O1          6.0241   -1.1730   -2.9790 O.2     1  NONAME1    -0.2734
      7 C5          5.3264   -1.1338   -0.6660 C.3     1  NONAME1     0.1095
      8 C6          5.8954   -1.2263    0.7618 C.3     1  NONAME1     0.0309
      9 S1          4.8384   -1.9269    2.1465 S.3     1  NONAME1    -0.0908
     10 S2          3.8756   -0.3394    3.1269 S.3     1  NONAME1    -0.0928
     11 C7          5.0889    0.9364    2.8077 C.3     1  NONAME1     0.0074
     12 C8          4.8835    2.4360    2.8908 C.3     1  NONAME1    -0.0248
     13 C9          5.7672    3.1488    1.8529 C.2     1  NONAME1    -0.0837
     14 C10         5.8917    2.6958    0.5823 C.2     1  NONAME1    -0.0474
     15 C11         6.1138    3.4525   -0.6844 C.3     1  NONAME1     0.1295
     16 C12         5.0192    4.5382   -0.7855 C.3     1  NONAME1     0.0647
     17 C13         3.6268    3.9366   -0.5188 C.2     1  NONAME1     0.2175
     18 O2          2.8582    4.4062    0.3111 O.2     1  NONAME1    -0.2757
     19 N2          3.3347    2.7526   -1.2079 N.am    1  NONAME1    -0.3036
     20 C14         2.5994    1.6880   -0.4922 C.3     1  NONAME1     0.1017
     21 C15         1.0591    1.6262   -0.7094 C.3     1  NONAME1    -0.0197
     22 C16         0.3990    2.8212   -1.3977 C.3     1  NONAME1    -0.0605
     23 C17         0.3610    1.3990    0.6439 C.3     1  NONAME1    -0.0605
     24 C18         3.2208    0.2299   -0.5854 C.2     1  NONAME1     0.2342
     25 O3          2.6007   -0.7557   -0.1646 O.2     1  NONAME1    -0.2738
     26 N3          4.5396    0.1021   -0.9631 N.am    1  NONAME1    -0.3017
     27 O4          7.4506    3.8985   -0.9405 O.3     1  NONAME1    -0.4554
     28 C19         8.4042    3.7076   -0.0007 C.2     1  NONAME1     0.3285
     29 O5          8.7955    4.6503    0.6834 O.2     1  NONAME1    -0.2487
     30 C20         9.1132    2.3119    0.0092 C.3     1  NONAME1     0.1230
     31 C21        10.6265    2.4553   -0.4091 C.3     1  NONAME1    -0.0178
     32 C22        10.9118    3.5686   -1.4223 C.3     1  NONAME1    -0.0605
     33 C23        11.5292    2.6132    0.8233 C.3     1  NONAME1    -0.0605
     34 N4          8.5513    1.0781   -0.6316 N.am    1  NONAME1    -0.2971
     35 C24         8.8301   -0.1227    0.0150 C.2     1  NONAME1     0.2586
     36 O6          9.2841   -0.1395    1.1657 O.2     1  NONAME1    -0.2688
     37 H1          8.7013   -4.1906   -1.1451 H       1  NONAME1     0.0272
     38 H2          9.7694   -4.3787    0.2411 H       1  NONAME1     0.0272
     39 H3         10.4683   -4.0765   -1.3548 H       1  NONAME1     0.0272
     40 H4         10.4154   -2.0671    0.2776 H       1  NONAME1     0.0589
     41 H5          7.9608   -2.3470   -2.3670 H       1  NONAME1     0.1550
     42 H6          4.6556   -1.9915   -0.8069 H       1  NONAME1     0.0603
     43 H7          6.3844   -0.2903    1.0357 H       1  NONAME1     0.0407
     44 H8          6.7137   -1.9447    0.7761 H       1  NONAME1     0.0407
     45 H9          6.0735    0.6516    3.1815 H       1  NONAME1     0.0387
     46 H10         5.0366    0.7784    1.7521 H       1  NONAME1     0.0387
     47 H11         3.8434    2.7063    2.6647 H       1  NONAME1     0.0315
     48 H12         5.1045    2.8033    3.8966 H       1  NONAME1     0.0315
     49 H13         6.1386    4.1361    2.1237 H       1  NONAME1     0.0570
     50 H14         5.4475    1.7579    0.3223 H       1  NONAME1     0.0605
     51 H15         5.9226    2.7593   -1.5151 H       1  NONAME1     0.0784
     52 H16         5.2085    5.2946   -0.0033 H       1  NONAME1     0.0398
     53 H17         5.0413    5.0702   -1.7329 H       1  NONAME1     0.0398
     54 H18         3.0511    2.9192   -2.1637 H       1  NONAME1     0.1495
     55 H19         2.7663    1.9262    0.5700 H       1  NONAME1     0.0597
     56 H20         0.8406    0.7510   -1.3369 H       1  NONAME1     0.0318
     57 H21        -0.6815    2.6483   -1.4890 H       1  NONAME1     0.0233
     58 H22         0.5286    3.7478   -0.8307 H       1  NONAME1     0.0233
     59 H23         0.7840    2.9677   -2.4107 H       1  NONAME1     0.0233
     60 H24         0.8569    0.6200    1.2308 H       1  NONAME1     0.0233
     61 H25         0.3602    2.3158    1.2441 H       1  NONAME1     0.0233
     62 H26        -0.6788    1.0895    0.4963 H       1  NONAME1     0.0233
     63 H27         4.7260    0.5324   -1.8643 H       1  NONAME1     0.1495
     64 H28         9.0908    2.0918    1.0853 H       1  NONAME1     0.0617
     65 H29        10.9457    1.5229   -0.8963 H       1  NONAME1     0.0319
     66 H30        10.2579    3.4929   -2.2940 H       1  NONAME1     0.0233
     67 H31        10.8055    4.5656   -0.9798 H       1  NONAME1     0.0233
     68 H32        11.9490    3.4928   -1.7795 H       1  NONAME1     0.0233
     69 H33        12.5149    3.0075    0.5534 H       1  NONAME1     0.0233
     70 H34        11.6876    1.6385    1.2988 H       1  NONAME1     0.0233
     71 H35        11.0908    3.2829    1.5689 H       1  NONAME1     0.0233
     72 H36         8.4002    1.0871   -1.6325 H       1  NONAME1     0.1499
@<TRIPOS>BOND
     1     1     2    1
     2     2     3    2
     3     3     4    1
     4     4     5   am
     5     5     6    2
     6     7     5    1
     7     7     8    1
     8     8     9    1
     9     9    10    1
    10    10    11    1
    11    11    12    1
    12    12    13    1
    13    13    14    2
    14    15    14    1
    15    15    16    1
    16    16    17    1
    17    17    18    2
    18    17    19   am
    19    20    19    1
    20    20    21    1
    21    21    22    1
    22    21    23    1
    23    20    24    1
    24    24    25    2
    25    24    26   am
    26     7    26    1
    27    15    27    1
    28    27    28    1
    29    28    29    2
    30    30    28    1
    31    30    31    1
    32    31    32    1
    33    31    33    1
    34    30    34    1
    35    34    35   am
    36     3    35    1
    37    35    36    2
    38     1    37    1
    39     1    38    1
    40     1    39    1
    41     2    40    1
    42     4    41    1
    43     7    42    1
    44     8    43    1
    45     8    44    1
    46    11    45    1
    47    11    46    1
    48    12    47    1
    49    12    48    1
    50    13    49    1
    51    14    50    1
    52    15    51    1
    53    16    52    1
    54    16    53    1
    55    19    54    1
    56    20    55    1
    57    21    56    1
    58    22    57    1
    59    22    58    1
    60    22    59    1
    61    23    60    1
    62    23    61    1
    63    23    62    1
    64    26    63    1
    65    30    64    1
    66    31    65    1
    67    32    66    1
    68    32    67    1
    69    32    68    1
    70    33    69    1
    71    33    70    1
    72    33    71    1
    73    34    72    1
