REMARK  8 active torsions:
REMARK  status: ('A' for Active; 'I' for Inactive)
REMARK       I    between atoms: C1_2  and  N1_3 
REMARK    1  A    between atoms: C1_2  and  C4_7 
REMARK    2  A    between atoms: N1_3  and  C2_4 
REMARK    3  A    between atoms: C2_4  and  C3_5 
REMARK    4  A    between atoms: C3_5  and  S1_6 
REMARK    5  A    between atoms: C4_7  and  C5_8 
REMARK    6  A    between atoms: C5_8  and  C6_9 
REMARK    7  A    between atoms: C10_13  and  N2_14 
REMARK    8  A    between atoms: N3_18  and  O4_19 
ROOT
ATOM      1  C4  NON d   1      -3.954  -5.702   0.019  0.00  0.00     0.133 C 
ATOM      2  N3  NON d   1      -3.526  -6.901   0.310  0.00  0.00    -0.135 NA
ENDROOT
BRANCH   1   3
ATOM      3  C1  NON d   1      -2.819  -4.682  -0.244  0.00  0.00     0.268 C 
ATOM      4  O1  NON d   1      -3.067  -3.513  -0.495  0.00  0.00    -0.266 OA
ATOM      5  N1  NON d   1      -1.554  -5.200  -0.081  0.00  0.00    -0.355 N 
ATOM      6  H1  NON d   1      -1.489  -6.206   0.048  0.00  0.00     0.162 HD
BRANCH   5   7
ATOM      7  C2  NON d   1      -0.359  -4.388  -0.180  0.00  0.00     0.133 C 
BRANCH   7   8
ATOM      8  C3  NON d   1       0.914  -5.157   0.164  0.00  0.00     0.090 C 
BRANCH   8   9
ATOM      9  S1  NON d   1       1.208  -6.527  -1.001  0.00  0.00    -0.181 SA
ATOM     10  H6  NON d   1       2.436  -6.842  -0.562  0.00  0.00     0.101 HD
ENDBRANCH   8   9
ENDBRANCH   7   8
ENDBRANCH   5   7
ENDBRANCH   1   3
BRANCH   1  11
ATOM     11  C5  NON d   1      -5.323  -5.057   0.045  0.00  0.00     0.106 C 
BRANCH  11  12
ATOM     12  C6  NON d   1      -6.681  -5.728  -0.043  0.00  0.00    -0.050 A 
ATOM     13  C7  NON d   1      -6.953  -7.047  -0.408  0.00  0.00     0.007 A 
ATOM     14  C8  NON d   1      -8.265  -7.548  -0.403  0.00  0.00     0.003 A 
ATOM     15  C9  NON d   1      -9.346  -6.712  -0.127  0.00  0.00     0.036 A 
ATOM     16  C10 NON d   1      -9.104  -5.364   0.135  0.00  0.00     0.103 A 
ATOM     17  C11 NON d   1      -7.789  -4.881   0.193  0.00  0.00     0.043 A 
BRANCH  16  18
ATOM     18  N2  NON d   1     -10.229  -4.441   0.322  0.00  0.00    -0.116 N 
ATOM     19  O2  NON d   1     -11.369  -4.924   0.394  0.00  0.00    -0.532 OA
ATOM     20  O3  NON d   1      -9.976  -3.228   0.384  0.00  0.00    -0.532 OA
ENDBRANCH  16  18
ENDBRANCH  11  12
ENDBRANCH   1  11
BRANCH   2  21
ATOM     21  O4  NON d   1      -4.501  -7.755   0.800  0.00  0.00    -0.266 OA
ATOM     22  H13 NON d   1      -4.035  -8.614   0.833  0.00  0.00     0.247 HD
ENDBRANCH   2  21
TORSDOF 8
