@<TRIPOS>MOLECULE
*****
 58 61 0 0 0
SMALL
USER_CHARGES

@<TRIPOS>ATOM
      1 C1          6.6684   -0.7700    0.0000 C.3     1  NONAME1    -0.0380
      2 C2          6.6684   -2.3100    0.0000 C.ar    1  NONAME1    -0.0291
      3 C3          7.7696   -3.0756   -0.3662 C.ar    1  NONAME1    -0.0553
      4 C4          7.6666   -4.4617   -0.3341 C.ar    1  NONAME1    -0.0405
      5 C5          6.4968   -5.1016    0.1056 C.ar    1  NONAME1     0.0292
      6 N1          6.3464   -6.5085    0.1140 N.pl3   1  NONAME1    -0.3397
      7 C6          7.5778   -7.2914    0.0410 C.3     1  NONAME1     0.0344
      8 C7          7.4029   -8.7918    0.1025 C.ar    1  NONAME1    -0.0304
      9 C8          8.5703   -9.5636    0.2237 C.ar    1  NONAME1    -0.0565
     10 C9          8.5204  -10.9589    0.2229 C.ar    1  NONAME1    -0.0543
     11 C10         7.2998  -11.6321    0.1044 C.ar    1  NONAME1    -0.0249
     12 C11         7.3282  -13.1064    0.1122 C.2     1  NONAME1    -0.0496
     13 C12         6.2650  -13.9215    0.0398 C.2     1  NONAME1     0.0027
     14 C13         6.4585  -15.3887    0.0877 C.2     1  NONAME1     0.2593
     15 O1          7.5165  -15.9308    0.3939 O.2     1  NONAME1    -0.2687
     16 N2          5.3262  -16.0953   -0.2216 N.am    1  NONAME1    -0.1940
     17 O2          5.4007  -17.5022   -0.1217 O.3     1  NONAME1    -0.2949
     18 C14         6.1336  -10.8632   -0.0244 C.ar    1  NONAME1    -0.0543
     19 C15         6.1835   -9.4592   -0.0333 C.ar    1  NONAME1    -0.0565
     20 C16         5.3864   -4.2946    0.4301 C.ar    1  NONAME1    -0.0193
     21 C17         5.4322   -2.8849    0.3758 C.ar    1  NONAME1     0.0382
     22 N3          4.2576   -2.1663    0.7575 N.pl3   1  NONAME1    -0.2833
     23 C18         3.8424   -0.8147    0.7860 C.ar    1  NONAME1     0.2200
     24 N4          2.5629   -0.6235    0.4308 N.ar    1  NONAME1    -0.2226
     25 C19         2.1213    0.6479    0.3438 C.ar    1  NONAME1     0.0332
     26 C20         2.8984    1.7529    0.5886 C.ar    1  NONAME1    -0.0174
     27 C21         4.1942    1.5001    0.9748 C.ar    1  NONAME1     0.0775
     28 C22         5.2150    2.5776    1.0963 C.ar    1  NONAME1     0.0186
     29 C23         5.1727    3.7624    0.3347 C.ar    1  NONAME1    -0.0497
     30 C24         6.2302    4.6776    0.3583 C.ar    1  NONAME1    -0.0430
     31 C25         7.3251    4.3960    1.1525 C.ar    1  NONAME1     0.0276
     32 N5          7.4093    3.2985    1.9283 N.ar    1  NONAME1    -0.2626
     33 C26         6.3620    2.4282    1.8821 C.ar    1  NONAME1     0.0367
     34 N6          4.6350    0.2186    1.1330 N.ar    1  NONAME1    -0.2142
     35 H1          7.5868   -0.6817    0.6157 H       1  NONAME1     0.0278
     36 H2          6.6684    0.7700    0.0000 H       1  NONAME1     0.0278
     37 H3          6.9196   -0.6842   -1.0771 H       1  NONAME1     0.0278
     38 H4          8.6958   -2.6022   -0.6773 H       1  NONAME1     0.0621
     39 H5          8.5409   -5.0216   -0.6475 H       1  NONAME1     0.0636
     40 H6          5.7440   -6.7987    0.8805 H       1  NONAME1     0.1464
     41 H7          8.2342   -6.9984    0.8708 H       1  NONAME1     0.0511
     42 H8          8.0833   -7.0918   -0.9115 H       1  NONAME1     0.0511
     43 H9          9.5406   -9.0759    0.3035 H       1  NONAME1     0.0621
     44 H10         9.4551  -11.5099    0.3088 H       1  NONAME1     0.0624
     45 H11         8.3211  -13.5523    0.1843 H       1  NONAME1     0.0625
     46 H12         5.2508  -13.5550   -0.0357 H       1  NONAME1     0.0670
     47 H13         4.4272  -15.6974   -0.4644 H       1  NONAME1     0.1825
     48 H14         6.3105  -17.6383    0.2233 H       1  NONAME1     0.2414
     49 H15         5.1607  -11.3329   -0.1324 H       1  NONAME1     0.0624
     50 H16         5.2593   -8.9006   -0.1647 H       1  NONAME1     0.0621
     51 H17         4.4582   -4.7791    0.7240 H       1  NONAME1     0.0655
     52 H18         3.4177   -2.6844    0.5214 H       1  NONAME1     0.1550
     53 H19         1.0882    0.7578    0.0267 H       1  NONAME1     0.0831
     54 H20         2.5053    2.7519    0.4582 H       1  NONAME1     0.0654
     55 H21         4.3415    3.9727   -0.3333 H       1  NONAME1     0.0625
     56 H22         6.2119    5.5739   -0.2533 H       1  NONAME1     0.0633
     57 H23         8.1885    5.0559    1.1777 H       1  NONAME1     0.0829
     58 H24         6.5079    1.5352    2.4868 H       1  NONAME1     0.0836
@<TRIPOS>BOND
     1     1     2    1
     2     2     3   ar
     3     3     4   ar
     4     4     5   ar
     5     5     6    1
     6     6     7    1
     7     7     8    1
     8     8     9   ar
     9     9    10   ar
    10    10    11   ar
    11    11    12    1
    12    12    13    2
    13    13    14    1
    14    14    15    2
    15    14    16   am
    16    16    17    1
    17    11    18   ar
    18    18    19   ar
    19     8    19   ar
    20     5    20   ar
    21    20    21   ar
    22     2    21   ar
    23    21    22    1
    24    22    23    1
    25    23    24   ar
    26    24    25   ar
    27    25    26   ar
    28    26    27   ar
    29    27    28    1
    30    28    29   ar
    31    29    30   ar
    32    30    31   ar
    33    31    32   ar
    34    32    33   ar
    35    28    33   ar
    36    27    34   ar
    37    23    34   ar
    38     1    35    1
    39     1    36    1
    40     1    37    1
    41     3    38    1
    42     4    39    1
    43     6    40    1
    44     7    41    1
    45     7    42    1
    46     9    43    1
    47    10    44    1
    48    12    45    1
    49    13    46    1
    50    16    47    1
    51    17    48    1
    52    18    49    1
    53    19    50    1
    54    20    51    1
    55    22    52    1
    56    25    53    1
    57    26    54    1
    58    29    55    1
    59    30    56    1
    60    31    57    1
    61    33    58    1
