@<TRIPOS>MOLECULE
*****
 56 59 0 0 0
SMALL
USER_CHARGES

@<TRIPOS>ATOM
      1 N1          4.5154  -12.5935   -0.0583 N.pl3   1  NONAME1    -0.3565
      2 C1          4.6419  -14.0028   -0.0445 C.ar    1  NONAME1     0.0461
      3 C2          5.8970  -14.5879   -0.1997 C.ar    1  NONAME1    -0.0387
      4 C3          6.0410  -15.9818   -0.1855 C.ar    1  NONAME1    -0.0522
      5 C4          4.9418  -16.8486   -0.0313 C.ar    1  NONAME1    -0.0160
      6 C5          5.0974  -18.3416   -0.0054 C.ar    1  NONAME1    -0.0178
      7 C6          6.3607  -18.9667    0.0579 C.ar    1  NONAME1    -0.0540
      8 C7          6.5074  -20.3613    0.0707 C.ar    1  NONAME1    -0.0612
      9 C8          5.3892  -21.1825    0.0338 C.ar    1  NONAME1    -0.0617
     10 C9          4.1278  -20.6083   -0.0196 C.ar    1  NONAME1    -0.0612
     11 C10         3.9885  -19.2140   -0.0437 C.ar    1  NONAME1    -0.0540
     12 C11         3.6768  -16.2243    0.0694 C.ar    1  NONAME1    -0.0310
     13 C12         3.5083  -14.8330    0.0252 C.ar    1  NONAME1     0.0551
     14 N2          2.2417  -14.1917    0.0031 N.am    1  NONAME1    -0.2799
     15 C13         0.9917  -14.7731    0.1222 C.2     1  NONAME1     0.2483
     16 O1          0.7785  -15.9680    0.3083 O.2     1  NONAME1    -0.2699
     17 C14        -0.1994  -13.8609    0.0365 C.ar    1  NONAME1     0.0370
     18 C15        -1.4731  -14.4505   -0.0303 C.ar    1  NONAME1    -0.0493
     19 C16        -2.6393  -13.6717   -0.0602 C.ar    1  NONAME1    -0.0564
     20 C17        -2.5619  -12.2776   -0.0147 C.ar    1  NONAME1    -0.0302
     21 C18        -3.7562  -11.3516    0.0049 C.3     1  NONAME1     0.0400
     22 N3         -5.0573  -11.9676   -0.0590 N.am    1  NONAME1    -0.2767
     23 C19        -6.1596  -11.1736   -0.2565 C.2     1  NONAME1     0.4059
     24 O2         -6.1040   -9.9977   -0.5878 O.2     1  NONAME1    -0.2260
     25 O3         -7.3166  -11.8996    0.0123 O.3     1  NONAME1    -0.4115
     26 C20        -8.6323  -11.3709   -0.0132 C.ar    1  NONAME1     0.1332
     27 C21        -9.6543  -12.3235   -0.0430 C.ar    1  NONAME1    -0.0192
     28 C22       -10.9883  -11.9126   -0.0348 C.ar    1  NONAME1    -0.0583
     29 C23       -11.2993  -10.5537    0.0066 C.ar    1  NONAME1    -0.0615
     30 C24       -10.2758   -9.6063    0.0433 C.ar    1  NONAME1    -0.0583
     31 C25        -8.9385  -10.0125    0.0408 C.ar    1  NONAME1    -0.0192
     32 C26        -1.2841  -11.6902    0.0349 C.ar    1  NONAME1    -0.0564
     33 C27        -0.1170  -12.4661    0.0620 C.ar    1  NONAME1    -0.0493
     34 H1          5.4196  -12.1307    0.0120 H       1  NONAME1     0.1424
     35 H2          3.9139  -12.2894    0.7041 H       1  NONAME1     0.1424
     36 H3          6.7849  -13.9722   -0.3140 H       1  NONAME1     0.0637
     37 H4          7.0498  -16.3652   -0.3050 H       1  NONAME1     0.0624
     38 H5          7.2768  -18.3863    0.1045 H       1  NONAME1     0.0624
     39 H6          7.5010  -20.7998    0.1122 H       1  NONAME1     0.0618
     40 H7          5.4993  -22.2624    0.0470 H       1  NONAME1     0.0618
     41 H8          3.2417  -21.2375   -0.0456 H       1  NONAME1     0.0618
     42 H9          2.9709  -18.8364   -0.0986 H       1  NONAME1     0.0624
     43 H10         2.7946  -16.8414    0.1639 H       1  NONAME1     0.0643
     44 H11         2.3144  -13.2120   -0.2302 H       1  NONAME1     0.1552
     45 H12        -1.5670  -15.5362   -0.0516 H       1  NONAME1     0.0625
     46 H13        -3.5946  -14.1863   -0.1152 H       1  NONAME1     0.0621
     47 H14        -3.6686  -10.6448   -0.8295 H       1  NONAME1     0.0513
     48 H15        -3.7325  -10.7752    0.9382 H       1  NONAME1     0.0513
     49 H16        -5.2365  -12.8321    0.4286 H       1  NONAME1     0.1523
     50 H17        -9.4148  -13.3823   -0.0707 H       1  NONAME1     0.0654
     51 H18       -11.7860  -12.6511   -0.0583 H       1  NONAME1     0.0619
     52 H19       -12.3392  -10.2312    0.0120 H       1  NONAME1     0.0618
     53 H20       -10.5179   -8.5468    0.0776 H       1  NONAME1     0.0619
     54 H21        -8.1693   -9.2492    0.0865 H       1  NONAME1     0.0654
     55 H22        -1.1906  -10.6046    0.0628 H       1  NONAME1     0.0621
     56 H23         0.8291  -11.9413    0.1253 H       1  NONAME1     0.0625
@<TRIPOS>BOND
     1     1     2    1
     2     2     3   ar
     3     3     4   ar
     4     4     5   ar
     5     5     6    1
     6     6     7   ar
     7     7     8   ar
     8     8     9   ar
     9     9    10   ar
    10    10    11   ar
    11     6    11   ar
    12     5    12   ar
    13    12    13   ar
    14     2    13   ar
    15    13    14    1
    16    14    15   am
    17    15    16    2
    18    15    17    1
    19    17    18   ar
    20    18    19   ar
    21    19    20   ar
    22    20    21    1
    23    21    22    1
    24    22    23   am
    25    23    24    2
    26    23    25    1
    27    25    26    1
    28    26    27   ar
    29    27    28   ar
    30    28    29   ar
    31    29    30   ar
    32    30    31   ar
    33    26    31   ar
    34    20    32   ar
    35    32    33   ar
    36    17    33   ar
    37     1    34    1
    38     1    35    1
    39     3    36    1
    40     4    37    1
    41     7    38    1
    42     8    39    1
    43     9    40    1
    44    10    41    1
    45    11    42    1
    46    12    43    1
    47    14    44    1
    48    18    45    1
    49    19    46    1
    50    21    47    1
    51    21    48    1
    52    22    49    1
    53    27    50    1
    54    28    51    1
    55    29    52    1
    56    30    53    1
    57    31    54    1
    58    32    55    1
    59    33    56    1
