@<TRIPOS>MOLECULE
*****
 40 41 0 0 0
SMALL
USER_CHARGES

@<TRIPOS>ATOM
      1 C1          7.3432  -15.7987   -2.3009 C.3     1  NONAME1    -0.0558
      2 C2          8.6847  -15.0423   -2.2914 C.3     1  NONAME1    -0.0036
      3 S1          8.6868  -13.6172   -1.1649 S.3     1  NONAME1    -0.1113
      4 C3         10.4081  -13.1536   -1.1827 C.2     1  NONAME1     0.0854
      5 S2         11.3289  -13.0688   -2.5830 S.2     1  NONAME1    -0.0372
      6 S3         10.9748  -12.7462    0.4417 S.3     1  NONAME1    -0.1030
      7 C4         12.3556  -11.5935    0.1742 C.3     1  NONAME1     0.0623
      8 C5         13.7189  -12.2826    0.1239 C.2     1  NONAME1     0.1733
      9 O1         13.8653  -13.5034    0.1624 O.2     1  NONAME1    -0.2912
     10 C6         14.9484  -11.4207    0.0434 C.ar    1  NONAME1     0.0200
     11 C7         14.8659  -10.0279   -0.0451 C.ar    1  NONAME1    -0.0511
     12 C8         16.0301   -9.2650   -0.1083 C.ar    1  NONAME1    -0.0593
     13 C9         17.2837   -9.8808   -0.0803 C.ar    1  NONAME1    -0.0404
     14 C10        17.3994  -11.2690    0.0111 C.ar    1  NONAME1     0.0343
     15 N1         18.6457  -11.9548    0.0429 N.am    1  NONAME1    -0.2814
     16 C11        19.9081  -11.3677    0.0597 C.2     1  NONAME1     0.2497
     17 O2         20.1227  -10.1576    0.0940 O.2     1  NONAME1    -0.2698
     18 C12        21.1120  -12.2530    0.0401 C.ar    1  NONAME1     0.0551
     19 C13        22.3801  -11.6509    0.0371 C.ar    1  NONAME1    -0.0467
     20 C14        23.5351  -12.4281    0.0120 C.ar    1  NONAME1    -0.0429
     21 C15        23.3924  -13.8034   -0.0091 C.ar    1  NONAME1     0.0276
     22 N2         22.1944  -14.4276   -0.0060 N.ar    1  NONAME1    -0.2625
     23 C16        21.0850  -13.6401    0.0177 C.ar    1  NONAME1     0.0397
     24 C17        16.2200  -12.0327    0.0665 C.ar    1  NONAME1    -0.0300
     25 H1          7.6617  -16.5511   -3.0521 H       1  NONAME1     0.0238
     26 H2          6.0018  -16.5550   -2.3103 H       1  NONAME1     0.0238
     27 H3          7.4656  -16.2439   -1.2908 H       1  NONAME1     0.0238
     28 H4          8.8631  -14.6667   -3.3042 H       1  NONAME1     0.0377
     29 H5          9.4980  -15.7231   -2.0140 H       1  NONAME1     0.0377
     30 H6         12.1966  -10.9883   -0.7221 H       1  NONAME1     0.0461
     31 H7         12.3546  -10.9229    1.0402 H       1  NONAME1     0.0461
     32 H8         13.9177   -9.5007   -0.0688 H       1  NONAME1     0.0625
     33 H9         15.9723   -8.1814   -0.1805 H       1  NONAME1     0.0618
     34 H10        18.1523   -9.2328   -0.1395 H       1  NONAME1     0.0636
     35 H11        18.5707  -12.9617    0.0697 H       1  NONAME1     0.1551
     36 H12        22.4752  -10.5653    0.0524 H       1  NONAME1     0.0626
     37 H13        24.5185  -11.9688    0.0074 H       1  NONAME1     0.0633
     38 H14        24.2613  -14.4557   -0.0299 H       1  NONAME1     0.0829
     39 H15        20.1654  -14.2122    0.0161 H       1  NONAME1     0.0837
     40 H16        16.2774  -13.1177    0.1373 H       1  NONAME1     0.0643
@<TRIPOS>BOND
     1     1     2    1
     2     2     3    1
     3     3     4    1
     4     4     5    2
     5     4     6    1
     6     6     7    1
     7     7     8    1
     8     8     9    2
     9     8    10    1
    10    10    11   ar
    11    11    12   ar
    12    12    13   ar
    13    13    14   ar
    14    14    15    1
    15    15    16   am
    16    16    17    2
    17    16    18    1
    18    18    19   ar
    19    19    20   ar
    20    20    21   ar
    21    21    22   ar
    22    22    23   ar
    23    18    23   ar
    24    14    24   ar
    25    10    24   ar
    26     1    25    1
    27     1    26    1
    28     1    27    1
    29     2    28    1
    30     2    29    1
    31     7    30    1
    32     7    31    1
    33    11    32    1
    34    12    33    1
    35    13    34    1
    36    15    35    1
    37    19    36    1
    38    20    37    1
    39    21    38    1
    40    23    39    1
    41    24    40    1
