@<TRIPOS>MOLECULE
*****
 51 54 0 0 0
SMALL
USER_CHARGES

@<TRIPOS>ATOM
      1 N1         -9.9776  -10.0772   -0.1019 N.pl3   1  NONAME1    -0.3565
      2 C1         -9.8732  -11.4904   -0.0435 C.ar    1  NONAME1     0.0461
      3 C2         -8.6050  -12.0875   -0.1378 C.ar    1  NONAME1    -0.0392
      4 C3         -8.4642  -13.4741   -0.0843 C.ar    1  NONAME1    -0.0599
      5 C4         -9.5932  -14.2750    0.0283 C.ar    1  NONAME1    -0.0599
      6 C5        -10.8642  -13.6936    0.0649 C.ar    1  NONAME1    -0.0387
      7 C6        -11.0280  -12.3035    0.0065 C.ar    1  NONAME1     0.0545
      8 N2        -12.3016  -11.6597   -0.0275 N.am    1  NONAME1    -0.2800
      9 C7        -13.5335  -12.2795    0.1024 C.2     1  NONAME1     0.2483
     10 O1        -13.6855  -13.4847    0.2932 O.2     1  NONAME1    -0.2699
     11 C8        -14.7805  -11.4434    0.0285 C.ar    1  NONAME1     0.0370
     12 C9        -15.9926  -12.1471    0.0452 C.ar    1  NONAME1    -0.0493
     13 C10       -17.2252  -11.4897    0.0326 C.ar    1  NONAME1    -0.0571
     14 C11       -17.3060  -10.0928   -0.0221 C.ar    1  NONAME1    -0.0371
     15 C12       -18.6367   -9.3355   -0.0176 C.3     1  NONAME1     0.0261
     16 S1        -20.0938  -10.3725   -0.3413 S.3     1  NONAME1    -0.0838
     17 C13       -21.4468   -9.2772   -0.1840 C.2     1  NONAME1     0.1809
     18 N3        -22.6534   -9.9059   -0.1053 N.2     1  NONAME1    -0.2279
     19 C14       -23.7474   -9.2203   -0.0827 C.2     1  NONAME1     0.0599
     20 C15       -25.0675   -9.9335   -0.0354 C.ar    1  NONAME1    -0.0032
     21 C16       -25.0812  -11.3369   -0.0087 C.ar    1  NONAME1    -0.0529
     22 C17       -26.2900  -12.0379    0.0196 C.ar    1  NONAME1    -0.0611
     23 C18       -27.4975  -11.3446    0.0215 C.ar    1  NONAME1    -0.0617
     24 C19       -27.4964   -9.9509   -0.0035 C.ar    1  NONAME1    -0.0611
     25 C20       -26.2873   -9.2439   -0.0325 C.ar    1  NONAME1    -0.0529
     26 C21       -23.7223   -7.7302   -0.1187 C.3     1  NONAME1     0.0690
     27 C22       -22.3351   -7.1666   -0.1128 C.2     1  NONAME1     0.2442
     28 O2        -22.1908   -5.9458   -0.0709 O.2     1  NONAME1    -0.2732
     29 N4        -21.2616   -8.0078   -0.1852 N.am    1  NONAME1    -0.1548
     30 C23       -16.0881   -9.3828   -0.0354 C.ar    1  NONAME1    -0.0571
     31 C24       -14.8379  -10.0461   -0.0113 C.ar    1  NONAME1    -0.0493
     32 H1         -9.0698   -9.6308    0.0036 H       1  NONAME1     0.1424
     33 H2        -10.6176   -9.7403    0.6141 H       1  NONAME1     0.1424
     34 H3         -7.7103  -11.4781   -0.2281 H       1  NONAME1     0.0636
     35 H4         -7.4783  -13.9293   -0.1309 H       1  NONAME1     0.0618
     36 H5         -9.4973  -15.3574    0.0688 H       1  NONAME1     0.0618
     37 H6        -11.7091  -14.3714    0.1150 H       1  NONAME1     0.0637
     38 H7        -12.2527  -10.6729   -0.2346 H       1  NONAME1     0.1552
     39 H8        -15.9948  -13.2365    0.0785 H       1  NONAME1     0.0625
     40 H9        -18.1128  -12.1160    0.0665 H       1  NONAME1     0.0621
     41 H10       -18.5952   -8.5614   -0.7917 H       1  NONAME1     0.0429
     42 H11       -18.7504   -8.8511    0.9587 H       1  NONAME1     0.0429
     43 H12       -24.1500  -11.9006   -0.0138 H       1  NONAME1     0.0624
     44 H13       -26.2862  -13.1257    0.0370 H       1  NONAME1     0.0618
     45 H14       -28.4382  -11.8902    0.0414 H       1  NONAME1     0.0618
     46 H15       -28.4421   -9.4126   -0.0032 H       1  NONAME1     0.0618
     47 H16       -26.3358   -8.1603   -0.0543 H       1  NONAME1     0.0624
     48 H17       -24.2247   -7.3874   -1.0297 H       1  NONAME1     0.0423
     49 H18       -24.2459   -7.3416    0.7614 H       1  NONAME1     0.0423
     50 H19       -16.1002   -8.2931   -0.0558 H       1  NONAME1     0.0621
     51 H20       -13.9388   -9.4388   -0.0082 H       1  NONAME1     0.0625
@<TRIPOS>BOND
     1     1     2    1
     2     2     3   ar
     3     3     4   ar
     4     4     5   ar
     5     5     6   ar
     6     6     7   ar
     7     2     7   ar
     8     7     8    1
     9     8     9   am
    10     9    10    2
    11     9    11    1
    12    11    12   ar
    13    12    13   ar
    14    13    14   ar
    15    14    15    1
    16    15    16    1
    17    16    17    1
    18    17    18    1
    19    18    19    2
    20    19    20    1
    21    20    21   ar
    22    21    22   ar
    23    22    23   ar
    24    23    24   ar
    25    24    25   ar
    26    20    25   ar
    27    19    26    1
    28    26    27    1
    29    27    28    2
    30    27    29    1
    31    17    29    2
    32    14    30   ar
    33    30    31   ar
    34    11    31   ar
    35     1    32    1
    36     1    33    1
    37     3    34    1
    38     4    35    1
    39     5    36    1
    40     6    37    1
    41     8    38    1
    42    12    39    1
    43    13    40    1
    44    15    41    1
    45    15    42    1
    46    21    43    1
    47    22    44    1
    48    23    45    1
    49    24    46    1
    50    25    47    1
    51    26    48    1
    52    26    49    1
    53    30    50    1
    54    31    51    1
