@<TRIPOS>MOLECULE
*****
 27 28 0 0 0
SMALL
USER_CHARGES

@<TRIPOS>ATOM
      1 C1          2.3453   -0.3364    0.0000 C.3     1  NONAME1     0.0309
      2 N1          2.3453   -1.8764    0.0000 N.ar    1  NONAME1    -0.2657
      3 N2          3.4982   -2.5647   -0.0721 N.ar    1  NONAME1    -0.1669
      4 C2          3.1058   -3.8534   -0.0714 C.ar    1  NONAME1     0.1658
      5 C3          4.0633   -5.0093   -0.1316 C.3     1  NONAME1     0.4359
      6 F1          4.4555   -5.4033    1.1089 F       1  NONAME1    -0.1644
      7 F2          5.1883   -4.7412   -0.8429 F       1  NONAME1    -0.1644
      8 F3          3.4886   -6.0991   -0.7143 F       1  NONAME1    -0.1644
      9 C4          1.6895   -3.9495    0.0041 C.ar    1  NONAME1    -0.0038
     10 C5          1.2076   -2.6551    0.0379 C.ar    1  NONAME1     0.0757
     11 C6         -0.1657   -2.2041    0.0901 C.ar    1  NONAME1     0.0379
     12 C7         -1.2970   -3.0023    0.1166 C.ar    1  NONAME1    -0.0447
     13 C8         -2.5112   -2.2501    0.1613 C.ar    1  NONAME1    -0.0418
     14 C9         -2.2871   -0.8888    0.1599 C.ar    1  NONAME1     0.0764
     15 C10        -3.2796    0.1713    0.1993 C.2     1  NONAME1     0.2731
     16 O1         -4.4850   -0.0336    0.3398 O.2     1  NONAME1    -0.2675
     17 N3         -2.8049    1.4569    0.0626 N.am    1  NONAME1    -0.1930
     18 O2         -3.7386    2.5143    0.0864 O.3     1  NONAME1    -0.2949
     19 S1         -0.6204   -0.5529    0.1205 S.2     1  NONAME1    -0.0821
     20 H1          3.1780   -0.2730    0.7296 H       1  NONAME1     0.0473
     21 H2          2.3453    1.2036    0.0000 H       1  NONAME1     0.0473
     22 H3          2.7505   -0.2820   -1.0312 H       1  NONAME1     0.0473
     23 H4          1.1082   -4.8620    0.0205 H       1  NONAME1     0.0660
     24 H5         -1.2704   -4.0853    0.1033 H       1  NONAME1     0.0630
     25 H6         -3.5045   -2.6856    0.1882 H       1  NONAME1     0.0631
     26 H7         -1.8314    1.6913   -0.0907 H       1  NONAME1     0.1825
     27 H8         -4.5863    2.0407    0.2328 H       1  NONAME1     0.2414
@<TRIPOS>BOND
     1     1     2    1
     2     2     3   ar
     3     3     4   ar
     4     4     5    1
     5     5     6    1
     6     5     7    1
     7     5     8    1
     8     4     9   ar
     9     9    10   ar
    10     2    10   ar
    11    10    11    1
    12    11    12   ar
    13    12    13   ar
    14    13    14   ar
    15    14    15    1
    16    15    16    2
    17    15    17   am
    18    17    18    1
    19    14    19   ar
    20    11    19   ar
    21     1    20    1
    22     1    21    1
    23     1    22    1
    24     9    23    1
    25    12    24    1
    26    13    25    1
    27    17    26    1
    28    18    27    1
