REMARK  5 active torsions:
REMARK  status: ('A' for Active; 'I' for Inactive)
REMARK    1  A    between atoms: C1_2  and  C2_3 
REMARK       I    between atoms: C1_2  and  N2_28 
REMARK    2  A    between atoms: C3_4  and  C4_5 
REMARK    3  A    between atoms: N1_17  and  C15_18 
REMARK    4  A    between atoms: C15_18  and  C16_19 
REMARK    5  A    between atoms: N2_28  and  O4_29 
ROOT
ATOM      1  C4  NON d   1      10.704   2.332  -0.440  0.00  0.00    -0.035 A 
ATOM      2  C5  NON d   1      10.177   3.633  -0.422  0.00  0.00     0.014 A 
ATOM      3  C6  NON d   1       8.780   3.859  -0.348  0.00  0.00     0.038 A 
ATOM      4  C7  NON d   1       7.888   2.790  -0.281  0.00  0.00     0.083 A 
ATOM      5  C8  NON d   1       8.429   1.514  -0.321  0.00  0.00     0.044 A 
ATOM      6  C9  NON d   1       9.801   1.266  -0.419  0.00  0.00     0.029 A 
ATOM      7  C10 NON d   1       7.542   0.443   0.069  0.00  0.00     0.165 C 
ATOM      8  O2  NON d   1       7.735  -0.730  -0.210  0.00  0.00    -0.292 OA
ATOM      9  C11 NON d   1       6.445   0.951   0.940  0.00  0.00     0.122 C 
ATOM     10  C12 NON d   1       5.496   1.940   0.000  0.00  0.00     0.078 C 
ATOM     11  C13 NON d   1       4.428   0.830   0.000  0.00  0.00     0.069 C 
ATOM     12  C14 NON d   1       3.035   1.331  -0.474  0.00  0.00     0.276 C 
ATOM     13  N1  NON d   1       2.778   2.781  -0.457  0.00  0.00     0.092 N 
ATOM     14  C22 NON d   1       3.478   3.503   0.600  0.00  0.00     0.276 C 
ATOM     15  C23 NON d   1       4.691   2.779   1.152  0.00  0.00     0.069 C 
ATOM     16  O3  NON d   1       6.564   3.050   0.000  0.00  0.00    -0.339 OA
ENDROOT
BRANCH  13  17
ATOM     17  C15 NON d   1       1.310   3.012  -0.437  0.00  0.00     0.311 C 
BRANCH  17  18
ATOM     18  C16 NON d   1       0.766   4.433  -0.405  0.00  0.00    -0.030 A 
ATOM     19  C17 NON d   1      -0.557   4.620   0.042  0.00  0.00     0.009 A 
ATOM     20  C18 NON d   1      -1.134   5.890   0.102  0.00  0.00     0.001 A 
ATOM     21  C19 NON d   1      -0.393   7.002  -0.285  0.00  0.00     0.000 A 
ATOM     22  C20 NON d   1       0.907   6.837  -0.757  0.00  0.00     0.001 A 
ATOM     23  C21 NON d   1       1.473   5.559  -0.841  0.00  0.00     0.009 A 
ENDBRANCH  17  18
ENDBRANCH  13  17
BRANCH   1  24
ATOM     24  C3  NON d   1      12.141   1.982  -0.438  0.00  0.00     0.017 C 
ATOM     25  C2  NON d   1      13.183   2.779  -0.155  0.00  0.00     0.077 C 
BRANCH  25  26
ATOM     26  C1  NON d   1      14.604   2.311  -0.157  0.00  0.00     0.264 C 
ATOM     27  O1  NON d   1      15.511   3.113  -0.338  0.00  0.00    -0.266 OA
ATOM     28  N2  NON d   1      14.784   0.971   0.107  0.00  0.00    -0.234 N 
ATOM     29  H23 NON d   1      14.058   0.425   0.554  0.00  0.00     0.197 HD
BRANCH  28  30
ATOM     30  O4  NON d   1      16.105   0.572   0.419  0.00  0.00    -0.287 OA
ATOM     31  H24 NON d   1      16.518   0.524  -0.463  0.00  0.00     0.244 HD
ENDBRANCH  28  30
ENDBRANCH  25  26
ENDBRANCH   1  24
TORSDOF 5
