REMARK  10 active torsions:
REMARK  status: ('A' for Active; 'I' for Inactive)
REMARK    1  A    between atoms: O1_2  and  C2_3 
REMARK    2  A    between atoms: C6_8  and  C7_9 
REMARK    3  A    between atoms: C14_17  and  C15_18 
REMARK    4  A    between atoms: C15_18  and  C16_19 
REMARK    5  A    between atoms: C16_19  and  N3_20 
REMARK    6  A    between atoms: N3_20  and  C17_21 
REMARK    7  A    between atoms: C17_21  and  C18_22 
REMARK    8  A    between atoms: C21_25  and  C22_26 
REMARK    9  A    between atoms: C23_27  and  C24_28 
REMARK       I    between atoms: C24_28  and  N4_30 
REMARK   10  A    between atoms: N4_30  and  O3_31 
ROOT
ATOM      1  C15 NON d   1       1.533  -3.962  -0.192  0.00  0.00     0.069 C 
ENDROOT
BRANCH   1   2
ATOM      2  C14 NON d   1       1.880  -2.599   0.381  0.00  0.00    -0.016 C 
ATOM      3  C13 NON d   1       3.288  -2.247   0.420  0.00  0.00    -0.001 A 
ATOM      4  C12 NON d   1       4.466  -2.858  -0.072  0.00  0.00     0.014 A 
ATOM      5  C8  NON d   1       3.408  -1.042   1.091  0.00  0.00     0.043 A 
ATOM      6  C11 NON d   1       5.694  -2.196   0.049  0.00  0.00     0.001 A 
ATOM      7  C10 NON d   1       5.767  -0.962   0.684  0.00  0.00     0.002 A 
ATOM      8  C9  NON d   1       4.630  -0.372   1.245  0.00  0.00     0.030 A 
ATOM      9  N2  NON d   1       2.146  -0.722   1.525  0.00  0.00    -0.354 N 
ATOM     10  C7  NON d   1       1.186  -1.461   0.846  0.00  0.00     0.054 C 
ATOM     11  H7  NON d   1       1.945   0.084   2.103  0.00  0.00     0.166 HD
BRANCH  10  12
ATOM     12  C6  NON d   1      -0.237  -1.047   0.893  0.00  0.00     0.042 C 
ATOM     13  C5  NON d   1      -1.119  -1.970   1.458  0.00  0.00     0.132 C 
ATOM     14  N1  NON d   1      -2.468  -1.940   1.376  0.00  0.00    -0.272 NA
ATOM     15  C4  NON d   1      -3.006  -0.836   0.834  0.00  0.00     0.119 C 
ATOM     16  C3  NON d   1      -2.247   0.226   0.386  0.00  0.00     0.057 C 
ATOM     17  C2  NON d   1      -0.844   0.153   0.428  0.00  0.00     0.083 C 
BRANCH  17  18
ATOM     18  O1  NON d   1      -0.320   1.365   0.000  0.00  0.00    -0.355 OA
ATOM     19  C1  NON d   1       1.220   1.365   0.000  0.00  0.00     0.210 C 
ENDBRANCH  17  18
ENDBRANCH  10  12
ENDBRANCH   1   2
BRANCH   1  20
ATOM     20  C16 NON d   1       0.137  -4.560  -0.165  0.00  0.00     0.237 C 
BRANCH  20  21
ATOM     21  N3  NON d   1      -0.638  -4.147  -1.373  0.00  0.00    -0.071 N 
ATOM     22  H16 NON d   1      -0.518  -3.131  -1.487  0.00  0.00     0.277 HD
ATOM     23  H17 NON d   1      -0.245  -4.573  -2.221  0.00  0.00     0.277 HD
BRANCH  21  24
ATOM     24  C17 NON d   1      -2.109  -4.394  -1.345  0.00  0.00     0.270 C 
BRANCH  24  25
ATOM     25  C18 NON d   1      -2.624  -5.812  -1.320  0.00  0.00    -0.033 A 
ATOM     26  C19 NON d   1      -1.862  -6.969  -1.515  0.00  0.00     0.009 A 
ATOM     27  C20 NON d   1      -2.458  -8.243  -1.449  0.00  0.00     0.012 A 
ATOM     28  C21 NON d   1      -3.834  -8.399  -1.227  0.00  0.00    -0.036 A 
ATOM     29  C25 NON d   1      -4.597  -7.241  -1.063  0.00  0.00     0.012 A 
ATOM     30  C26 NON d   1      -4.004  -5.974  -1.111  0.00  0.00     0.009 A 
BRANCH  28  31
ATOM     31  C22 NON d   1      -4.406  -9.759  -1.150  0.00  0.00     0.017 C 
ATOM     32  C23 NON d   1      -5.718 -10.050  -1.146  0.00  0.00     0.077 C 
BRANCH  32  33
ATOM     33  C24 NON d   1      -6.201 -11.459  -1.071  0.00  0.00     0.264 C 
ATOM     34  O2  NON d   1      -5.452 -12.421  -1.160  0.00  0.00    -0.266 OA
ATOM     35  N4  NON d   1      -7.562 -11.518  -0.882  0.00  0.00    -0.234 N 
ATOM     36  H24 NON d   1      -8.094 -10.717  -0.566  0.00  0.00     0.197 HD
BRANCH  35  37
ATOM     37  O3  NON d   1      -8.090 -12.775  -0.520  0.00  0.00    -0.287 OA
ATOM     38  H25 NON d   1      -8.075 -13.257  -1.369  0.00  0.00     0.244 HD
ENDBRANCH  35  37
ENDBRANCH  32  33
ENDBRANCH  28  31
ENDBRANCH  24  25
ENDBRANCH  21  24
ENDBRANCH  20  21
ENDBRANCH   1  20
TORSDOF 10
