@<TRIPOS>MOLECULE
*****
 74 76 0 0 0
SMALL
USER_CHARGES

@<TRIPOS>ATOM
      1 C1         -6.6073   -1.5166    0.0000 C.3     1  NONAME1    -0.0354
      2 C2         -6.8747    0.0000    0.0000 C.3     1  NONAME1     0.1050
      3 C3         -7.6178    0.0563    1.3997 C.3     1  NONAME1    -0.0354
      4 N1         -5.3904    0.4910    0.0703 N.am    1  NONAME1    -0.3004
      5 C4         -4.2492   -0.1601    0.5333 C.2     1  NONAME1     0.2341
      6 O1         -4.2518   -1.1088    1.2962 O.2     1  NONAME1    -0.2738
      7 C5         -2.9907    0.4408   -0.1613 C.3     1  NONAME1     0.0994
      8 C6         -1.6669   -0.2827    0.1523 C.3     1  NONAME1    -0.0260
      9 C7         -1.1899   -1.2226   -0.9927 C.3     1  NONAME1    -0.0509
     10 C8         -2.0104   -2.5125   -1.1489 C.3     1  NONAME1    -0.0525
     11 C9         -1.6047   -3.3854   -2.3558 C.3     1  NONAME1    -0.0447
     12 C10        -0.3085   -4.1792   -2.1659 C.3     1  NONAME1     0.0259
     13 C11        -0.0615   -5.1839   -3.2915 C.2     1  NONAME1     0.2354
     14 O2         -0.9051   -5.5077   -4.1166 O.2     1  NONAME1    -0.2737
     15 N2          1.1986   -5.7505   -3.2235 N.am    1  NONAME1    -0.1975
     16 O3          1.5733   -6.5893   -4.2940 O.3     1  NONAME1    -0.2952
     17 N3         -3.0282    1.8962    0.1200 N.am    1  NONAME1    -0.3025
     18 C12        -2.3685    2.7973   -0.6864 C.2     1  NONAME1     0.2342
     19 O4         -1.3626    2.4842   -1.3237 O.2     1  NONAME1    -0.2738
     20 C13        -2.9155    4.2478   -0.7130 C.3     1  NONAME1     0.1023
     21 C14        -2.0106    5.1911    0.0772 C.3     1  NONAME1    -0.0243
     22 C15        -2.8769    6.4369    0.1714 C.3     1  NONAME1    -0.0350
     23 C16        -4.2717    5.8641    0.4229 C.3     1  NONAME1     0.0156
     24 N4         -4.2547    4.5106   -0.1403 N.am    1  NONAME1    -0.2884
     25 C17        -5.3965    4.0470   -0.8122 C.2     1  NONAME1     0.2368
     26 O5         -5.3062    3.5449   -1.9362 O.2     1  NONAME1    -0.2735
     27 C18        -6.6484    3.8378    0.0825 C.3     1  NONAME1     0.1036
     28 C19        -7.9052    4.6693   -0.1559 C.3     1  NONAME1    -0.0007
     29 C20        -8.2899    5.6932    0.9239 C.ar    1  NONAME1    -0.0451
     30 C21        -7.5034    6.0508    2.0304 C.ar    1  NONAME1    -0.0585
     31 C22        -7.9324    7.0006    2.9629 C.ar    1  NONAME1    -0.0615
     32 C23        -9.1665    7.6154    2.8166 C.ar    1  NONAME1    -0.0617
     33 C24        -9.9717    7.2747    1.7348 C.ar    1  NONAME1    -0.0615
     34 C25        -9.5379    6.3278    0.7991 C.ar    1  NONAME1    -0.0585
     35 N5         -6.8434    2.3853    0.1673 N.am    1  NONAME1    -0.3019
     36 C26        -7.3639    1.3506   -0.6588 C.2     1  NONAME1     0.2366
     37 O6         -8.0767    1.4873   -1.6340 O.2     1  NONAME1    -0.2735
     38 H1         -7.6588   -1.8066   -0.2199 H       1  NONAME1     0.0255
     39 H2         -6.3399   -3.0332    0.0000 H       1  NONAME1     0.0255
     40 H3         -6.1011   -1.5382   -0.9919 H       1  NONAME1     0.0255
     41 H4         -7.6680    1.0355    1.8834 H       1  NONAME1     0.0255
     42 H5         -8.6627   -0.2512    1.2447 H       1  NONAME1     0.0255
     43 H6         -7.1742   -0.6198    2.1395 H       1  NONAME1     0.0255
     44 H7         -5.1710    1.1031   -0.7191 H       1  NONAME1     0.1497
     45 H8         -3.1727    0.3553   -1.2420 H       1  NONAME1     0.0594
     46 H9         -1.7362   -0.8592    1.0814 H       1  NONAME1     0.0288
     47 H10        -0.8737    0.4574    0.3085 H       1  NONAME1     0.0288
     48 H11        -1.1964   -0.6682   -1.9398 H       1  NONAME1     0.0266
     49 H12        -0.1452   -1.4933   -0.7993 H       1  NONAME1     0.0266
     50 H13        -1.9434   -3.1066   -0.2299 H       1  NONAME1     0.0265
     51 H14        -3.0657   -2.2471   -1.2788 H       1  NONAME1     0.0265
     52 H15        -1.5262   -2.7673   -3.2584 H       1  NONAME1     0.0270
     53 H16        -2.4226   -4.0934   -2.5426 H       1  NONAME1     0.0270
     54 H17        -0.3589   -4.7557   -1.2330 H       1  NONAME1     0.0359
     55 H18         0.5459   -3.5006   -2.1060 H       1  NONAME1     0.0359
     56 H19         1.9586   -5.2971   -2.7308 H       1  NONAME1     0.1822
     57 H20         0.8941   -7.2921   -4.2564 H       1  NONAME1     0.2414
     58 H21        -3.8364    2.2581    0.6088 H       1  NONAME1     0.1495
     59 H22        -2.9496    4.5508   -1.7671 H       1  NONAME1     0.0597
     60 H23        -1.0523    5.3778   -0.4157 H       1  NONAME1     0.0288
     61 H24        -1.8046    4.8004    1.0834 H       1  NONAME1     0.0288
     62 H25        -2.8545    6.9731   -0.7871 H       1  NONAME1     0.0281
     63 H26        -2.5554    7.1327    0.9515 H       1  NONAME1     0.0281
     64 H27        -4.4597    5.7894    1.4965 H       1  NONAME1     0.0465
     65 H28        -5.0456    6.4786   -0.0491 H       1  NONAME1     0.0465
     66 H29        -6.2913    4.0249    1.0966 H       1  NONAME1     0.0598
     67 H30        -7.8186    5.2077   -1.1068 H       1  NONAME1     0.0336
     68 H31        -8.7623    3.9864   -0.2371 H       1  NONAME1     0.0336
     69 H32        -6.5363    5.6043    2.2313 H       1  NONAME1     0.0620
     70 H33        -7.2968    7.2523    3.8132 H       1  NONAME1     0.0618
     71 H34        -9.5044    8.3507    3.5429 H       1  NONAME1     0.0618
     72 H35       -10.9450    7.7448    1.6179 H       1  NONAME1     0.0618
     73 H36       -10.1957    6.0789   -0.0322 H       1  NONAME1     0.0620
     74 H37        -6.2053    1.9931    0.8535 H       1  NONAME1     0.1495
@<TRIPOS>BOND
     1     1     2    1
     2     2     3    1
     3     2     4    1
     4     4     5   am
     5     5     6    2
     6     7     5    1
     7     7     8    1
     8     8     9    1
     9     9    10    1
    10    10    11    1
    11    11    12    1
    12    12    13    1
    13    13    14    2
    14    13    15   am
    15    15    16    1
    16     7    17    1
    17    17    18   am
    18    18    19    2
    19    20    18    1
    20    20    21    1
    21    21    22    1
    22    22    23    1
    23    23    24    1
    24    20    24    1
    25    24    25   am
    26    25    26    2
    27    27    25    1
    28    27    28    1
    29    28    29    1
    30    29    30   ar
    31    30    31   ar
    32    31    32   ar
    33    32    33   ar
    34    33    34   ar
    35    29    34   ar
    36    27    35    1
    37    35    36   am
    38     2    36    1
    39    36    37    2
    40     1    38    1
    41     1    39    1
    42     1    40    1
    43     3    41    1
    44     3    42    1
    45     3    43    1
    46     4    44    1
    47     7    45    1
    48     8    46    1
    49     8    47    1
    50     9    48    1
    51     9    49    1
    52    10    50    1
    53    10    51    1
    54    11    52    1
    55    11    53    1
    56    12    54    1
    57    12    55    1
    58    15    56    1
    59    16    57    1
    60    17    58    1
    61    20    59    1
    62    21    60    1
    63    21    61    1
    64    22    62    1
    65    22    63    1
    66    23    64    1
    67    23    65    1
    68    27    66    1
    69    28    67    1
    70    28    68    1
    71    30    69    1
    72    31    70    1
    73    32    71    1
    74    33    72    1
    75    34    73    1
    76    35    74    1
