REMARK  5 active torsions:
REMARK  status: ('A' for Active; 'I' for Inactive)
REMARK    1  A    between atoms: C1_2  and  C2_3 
REMARK       I    between atoms: C1_2  and  N1_11 
REMARK    2  A    between atoms: C2_3  and  C3_4 
REMARK    3  A    between atoms: N1_11  and  C9_12 
REMARK    4  A    between atoms: C14_17  and  C15_18 
REMARK       I    between atoms: C15_18  and  N2_20 
REMARK    5  A    between atoms: N2_20  and  O3_21 
ROOT
ATOM      1  C9  NON d   1       6.274   3.279   0.010  0.00  0.00     0.036 A 
ATOM      2  C10 NON d   1       6.051   1.909   0.100  0.00  0.00     0.030 A 
ATOM      3  C11 NON d   1       4.747   1.390   0.106  0.00  0.00     0.015 A 
ATOM      4  C12 NON d   1       3.631   2.254   0.039  0.00  0.00    -0.018 A 
ATOM      5  C13 NON d   1       2.222   1.972   0.056  0.00  0.00     0.037 A 
ATOM      6  C14 NON d   1       1.435   3.104  -0.012  0.00  0.00     0.076 A 
ATOM      7  S1  NON d   1       2.401   4.511  -0.129  0.00  0.00    -0.084 SA
ATOM      8  C16 NON d   1       3.872   3.623  -0.061  0.00  0.00     0.018 A 
ATOM      9  C17 NON d   1       5.180   4.148  -0.091  0.00  0.00     0.049 A 
ENDROOT
BRANCH   1  10
ATOM     10  N1  NON d   1       7.562   3.855  -0.025  0.00  0.00    -0.327 N 
ATOM     11  C1  NON d   1       8.761   3.236   0.317  0.00  0.00     0.226 C 
ATOM     12  O1  NON d   1       8.852   2.142   0.862  0.00  0.00    -0.273 OA
ATOM     13  H7  NON d   1       7.602   4.846  -0.226  0.00  0.00     0.169 HD
BRANCH  11  14
ATOM     14  C2  NON d   1       9.959   4.124  -0.017  0.00  0.00     0.141 C 
BRANCH  14  15
ATOM     15  C3  NON d   1      11.348   3.514  -0.009  0.00  0.00    -0.049 A 
ATOM     16  C4  NON d   1      12.452   4.381   0.102  0.00  0.00     0.011 A 
ATOM     17  C5  NON d   1      13.759   3.889   0.072  0.00  0.00     0.043 A 
ATOM     18  C6  NON d   1      13.972   2.525  -0.072  0.00  0.00     0.116 A 
ATOM     19  F1  NON d   1      15.224   2.050  -0.095  0.00  0.00    -0.206 F 
ATOM     20  C7  NON d   1      12.904   1.650  -0.202  0.00  0.00     0.043 A 
ATOM     21  C8  NON d   1      11.596   2.144  -0.188  0.00  0.00     0.011 A 
ENDBRANCH  14  15
ENDBRANCH  11  14
ENDBRANCH   1  10
BRANCH   6  22
ATOM     22  C15 NON d   1      -0.023   3.167   0.020  0.00  0.00     0.281 C 
ATOM     23  O2  NON d   1      -0.743   2.197   0.236  0.00  0.00    -0.265 OA
ATOM     24  N2  NON d   1      -0.566   4.415  -0.212  0.00  0.00    -0.233 N 
ATOM     25  H11 NON d   1      -0.003   5.232  -0.412  0.00  0.00     0.197 HD
BRANCH  24  26
ATOM     26  O3  NON d   1      -1.964   4.565  -0.234  0.00  0.00    -0.287 OA
ATOM     27  H12 NON d   1      -2.271   3.843   0.352  0.00  0.00     0.244 HD
ENDBRANCH  24  26
ENDBRANCH   6  22
TORSDOF 5
