@<TRIPOS>MOLECULE
*****
 63 66 0 0 0
SMALL
USER_CHARGES

@<TRIPOS>ATOM
      1 O1         11.7129    0.8765    2.9760 O.2     1  NONAME1    -0.2737
      2 C1         11.7744    2.0618    2.6724 C.2     1  NONAME1     0.2354
      3 C2         10.5685    2.9807    2.5903 C.3     1  NONAME1     0.0259
      4 C3          9.2144    2.3328    2.8918 C.3     1  NONAME1    -0.0447
      5 C4          8.5059    1.7185    1.6738 C.3     1  NONAME1    -0.0526
      6 C5          8.8291    0.2411    1.3969 C.3     1  NONAME1    -0.0519
      7 C6          8.4665   -0.2311   -0.0243 C.3     1  NONAME1    -0.0335
      8 C7          7.0028   -0.5798   -0.3659 C.3     1  NONAME1     0.1122
      9 C8          5.9830    0.4037    0.2092 C.2     1  NONAME1     0.2291
     10 O2          5.2488    0.1099    1.1479 O.2     1  NONAME1    -0.2746
     11 N1          6.0361    1.6547   -0.3849 N.am    1  NONAME1    -0.2849
     12 C9          5.0771    2.6714   -0.1930 C.ar    1  NONAME1     0.0341
     13 C10         3.7322    2.3894    0.0250 C.ar    1  NONAME1    -0.0384
     14 C11         2.8026    3.4320    0.1163 C.ar    1  NONAME1    -0.0340
     15 C12         3.1851    4.7625    0.0357 C.ar    1  NONAME1     0.0711
     16 N2          2.2549    5.7277    0.1392 N.ar    1  NONAME1    -0.2550
     17 C13         2.6657    7.0134    0.0888 C.ar    1  NONAME1     0.0283
     18 C14         3.9858    7.3951   -0.0559 C.ar    1  NONAME1    -0.0430
     19 C15         4.9434    6.3959   -0.1798 C.ar    1  NONAME1    -0.0511
     20 C16         4.5544    5.0490   -0.1483 C.ar    1  NONAME1     0.0021
     21 C17         5.4870    4.0032   -0.2912 C.ar    1  NONAME1    -0.0313
     22 C18         6.4773   -2.0264   -0.2711 C.2     1  NONAME1     0.2291
     23 O3          5.3165   -2.2464   -0.6276 O.2     1  NONAME1    -0.2746
     24 N3          7.3679   -3.0286    0.0673 N.am    1  NONAME1    -0.2849
     25 C19         7.0854   -4.4216    0.0921 C.ar    1  NONAME1     0.0341
     26 C20         8.1660   -5.3071    0.1366 C.ar    1  NONAME1    -0.0384
     27 C21         7.9552   -6.6951    0.1247 C.ar    1  NONAME1    -0.0340
     28 C22         6.6836   -7.2456    0.0897 C.ar    1  NONAME1     0.0711
     29 N4          6.5330   -8.5843    0.0769 N.ar    1  NONAME1    -0.2550
     30 C23         5.2761   -9.0820    0.0491 C.ar    1  NONAME1     0.0283
     31 C24         4.1393   -8.2976    0.0342 C.ar    1  NONAME1    -0.0430
     32 C25         4.3017   -6.9178    0.0441 C.ar    1  NONAME1    -0.0511
     33 C26         5.5895   -6.3614    0.0686 C.ar    1  NONAME1     0.0021
     34 C27         5.7977   -4.9650    0.0702 C.ar    1  NONAME1    -0.0313
     35 N5         12.9471    2.7518    2.4060 N.am    1  NONAME1    -0.1975
     36 O4         14.0970    1.9594    2.2034 O.3     1  NONAME1    -0.2952
     37 H1         10.7383    3.7729    3.3324 H       1  NONAME1     0.0359
     38 H2         10.5550    3.4597    1.6042 H       1  NONAME1     0.0359
     39 H3          8.5634    3.1442    3.2482 H       1  NONAME1     0.0270
     40 H4          9.2823    1.6095    3.7109 H       1  NONAME1     0.0270
     41 H5          8.7070    2.3310    0.7869 H       1  NONAME1     0.0265
     42 H6          7.4335    1.7966    1.8763 H       1  NONAME1     0.0265
     43 H7          8.3600   -0.4009    2.1501 H       1  NONAME1     0.0266
     44 H8          9.9101    0.1056    1.4959 H       1  NONAME1     0.0266
     45 H9          8.7927    0.5548   -0.7197 H       1  NONAME1     0.0277
     46 H10         9.1122   -1.0803   -0.2684 H       1  NONAME1     0.0277
     47 H11         6.9517   -0.4276   -1.4576 H       1  NONAME1     0.0489
     48 H12         6.9132    1.9353   -0.7961 H       1  NONAME1     0.1548
     49 H13         3.3739    1.3644    0.0834 H       1  NONAME1     0.0637
     50 H14         1.7501    3.1951    0.2530 H       1  NONAME1     0.0639
     51 H15         1.8743    7.7527    0.1754 H       1  NONAME1     0.0830
     52 H16         4.2598    8.4437   -0.0745 H       1  NONAME1     0.0633
     53 H17         5.9885    6.6713   -0.2923 H       1  NONAME1     0.0625
     54 H18         6.5360    4.2411   -0.4420 H       1  NONAME1     0.0643
     55 H19         8.3376   -2.7910    0.2142 H       1  NONAME1     0.1548
     56 H20         9.1895   -4.9444    0.1534 H       1  NONAME1     0.0637
     57 H21         8.8116   -7.3675    0.1393 H       1  NONAME1     0.0639
     58 H22         5.2068  -10.1669    0.0397 H       1  NONAME1     0.0830
     59 H23         3.1523   -8.7469    0.0125 H       1  NONAME1     0.0633
     60 H24         3.4243   -6.2773    0.0255 H       1  NONAME1     0.0625
     61 H25         4.9211   -4.3219    0.0699 H       1  NONAME1     0.0643
     62 H26        12.9255    3.6238    1.8879 H       1  NONAME1     0.1822
     63 H27        14.5546    2.0393    3.0616 H       1  NONAME1     0.2414
@<TRIPOS>BOND
     1     1     2    2
     2     2     3    1
     3     3     4    1
     4     4     5    1
     5     5     6    1
     6     6     7    1
     7     7     8    1
     8     8     9    1
     9     9    10    2
    10     9    11   am
    11    11    12    1
    12    12    13   ar
    13    13    14   ar
    14    14    15   ar
    15    15    16   ar
    16    16    17   ar
    17    17    18   ar
    18    18    19   ar
    19    19    20   ar
    20    15    20   ar
    21    20    21   ar
    22    12    21   ar
    23     8    22    1
    24    22    23    2
    25    22    24   am
    26    24    25    1
    27    25    26   ar
    28    26    27   ar
    29    27    28   ar
    30    28    29   ar
    31    29    30   ar
    32    30    31   ar
    33    31    32   ar
    34    32    33   ar
    35    28    33   ar
    36    33    34   ar
    37    25    34   ar
    38     2    35   am
    39    35    36    1
    40     3    37    1
    41     3    38    1
    42     4    39    1
    43     4    40    1
    44     5    41    1
    45     5    42    1
    46     6    43    1
    47     6    44    1
    48     7    45    1
    49     7    46    1
    50     8    47    1
    51    11    48    1
    52    13    49    1
    53    14    50    1
    54    17    51    1
    55    18    52    1
    56    19    53    1
    57    21    54    1
    58    24    55    1
    59    26    56    1
    60    27    57    1
    61    30    58    1
    62    31    59    1
    63    32    60    1
    64    34    61    1
    65    35    62    1
    66    36    63    1
