@<TRIPOS>MOLECULE
*****
 55 57 0 0 0
SMALL
USER_CHARGES

@<TRIPOS>ATOM
      1 C1         -6.9491  -16.4495    1.7585 C.3     1  NONAME1    -0.0578
      2 C2         -6.0852  -15.2278    1.4848 C.3     1  NONAME1    -0.0065
      3 C3         -4.8117  -15.4598    0.6507 C.3     1  NONAME1    -0.0578
      4 C4         -6.8554  -14.0529    0.8150 C.3     1  NONAME1    -0.0310
      5 N1         -6.1171  -13.3464   -0.3211 N.4     1  NONAME1     0.2305
      6 C5         -5.0199  -12.3375   -0.0324 C.3     1  NONAME1    -0.0077
      7 C6         -3.5839  -12.7784   -0.2702 C.ar    1  NONAME1    -0.0029
      8 C7         -2.5944  -12.4384    0.6750 C.ar    1  NONAME1    -0.0528
      9 C8         -1.3092  -13.0031    0.6232 C.ar    1  NONAME1    -0.0492
     10 C9         -0.9868  -13.9067   -0.3893 C.ar    1  NONAME1     0.0370
     11 C10         0.0936  -14.8966   -0.1448 C.2     1  NONAME1     0.2483
     12 O1         -0.2784  -15.9196    0.4183 O.2     1  NONAME1    -0.2699
     13 N2          1.3822  -14.5051   -0.4667 N.am    1  NONAME1    -0.2785
     14 C11         2.5648  -15.2987   -0.3287 C.ar    1  NONAME1     0.0762
     15 C12         3.8031  -14.6204   -0.2438 C.ar    1  NONAME1    -0.0292
     16 C13         5.0449  -15.2866   -0.0494 C.ar    1  NONAME1    -0.0159
     17 C14         6.3634  -14.5635    0.0023 C.ar    1  NONAME1    -0.0178
     18 C15         6.4539  -13.1597    0.0806 C.ar    1  NONAME1    -0.0540
     19 C16         7.6864  -12.4863    0.0949 C.ar    1  NONAME1    -0.0612
     20 C17         8.8769  -13.1982    0.0482 C.ar    1  NONAME1    -0.0617
     21 C18         8.8351  -14.5824   -0.0179 C.ar    1  NONAME1    -0.0612
     22 C19         7.5997  -15.2485   -0.0474 C.ar    1  NONAME1    -0.0540
     23 C20         4.9807  -16.6862    0.0786 C.ar    1  NONAME1    -0.0505
     24 C21         3.7764  -17.3824   -0.0585 C.ar    1  NONAME1    -0.0178
     25 C22         2.5911  -16.6964   -0.2891 C.ar    1  NONAME1     0.1380
     26 O2          1.4962  -17.4473   -0.5998 O.3     1  NONAME1    -0.5049
     27 C23        -1.9008  -14.1286   -1.4256 C.ar    1  NONAME1    -0.0492
     28 C24        -3.1799  -13.5346   -1.3871 C.ar    1  NONAME1    -0.0528
     29 H1         -7.7922  -16.1800    2.4050 H       1  NONAME1     0.0234
     30 H2         -7.3484  -16.8843    0.8393 H       1  NONAME1     0.0234
     31 H3         -6.3688  -17.2191    2.2803 H       1  NONAME1     0.0234
     32 H4         -5.7495  -14.8457    2.4596 H       1  NONAME1     0.0347
     33 H5         -4.3310  -16.1438    1.3809 H       1  NONAME1     0.0234
     34 H6         -3.5381  -15.6918   -0.1835 H       1  NONAME1     0.0234
     35 H7         -5.3003  -16.0769   -0.1331 H       1  NONAME1     0.0234
     36 H8         -7.7765  -14.4251    0.3528 H       1  NONAME1     0.0816
     37 H9         -7.1319  -13.2838    1.5437 H       1  NONAME1     0.0816
     38 H10        -5.7805  -14.0388   -0.9996 H       1  NONAME1     0.2017
     39 H11        -6.8394  -12.8262   -0.8350 H       1  NONAME1     0.2017
     40 H12        -5.1684  -12.0113    1.0025 H       1  NONAME1     0.0866
     41 H13        -5.2235  -11.4830   -0.6879 H       1  NONAME1     0.0866
     42 H14        -2.8277  -11.7865    1.5166 H       1  NONAME1     0.0622
     43 H15        -0.6054  -12.8217    1.4340 H       1  NONAME1     0.0625
     44 H16         1.5261  -13.5282   -0.6816 H       1  NONAME1     0.1552
     45 H17         3.7846  -13.5371   -0.3251 H       1  NONAME1     0.0643
     46 H18         5.5653  -12.5403    0.1312 H       1  NONAME1     0.0624
     47 H19         7.7084  -11.4010    0.1430 H       1  NONAME1     0.0618
     48 H20         9.8311  -12.6784    0.0609 H       1  NONAME1     0.0618
     49 H21         9.7576  -15.1525   -0.0567 H       1  NONAME1     0.0618
     50 H22         7.6465  -16.3307   -0.1244 H       1  NONAME1     0.0624
     51 H23         5.8683  -17.2842    0.2594 H       1  NONAME1     0.0625
     52 H24         3.7909  -18.4707   -0.0291 H       1  NONAME1     0.0655
     53 H25         1.4165  -18.1349    0.0817 H       1  NONAME1     0.2922
     54 H26        -1.6672  -14.8638   -2.1966 H       1  NONAME1     0.0625
     55 H27        -3.8731  -13.7887   -2.1863 H       1  NONAME1     0.0622
@<TRIPOS>BOND
     1     1     2    1
     2     2     3    1
     3     2     4    1
     4     4     5    1
     5     5     6    1
     6     6     7    1
     7     7     8   ar
     8     8     9   ar
     9     9    10   ar
    10    10    11    1
    11    11    12    2
    12    11    13   am
    13    13    14    1
    14    14    15   ar
    15    15    16   ar
    16    16    17    1
    17    17    18   ar
    18    18    19   ar
    19    19    20   ar
    20    20    21   ar
    21    21    22   ar
    22    17    22   ar
    23    16    23   ar
    24    23    24   ar
    25    24    25   ar
    26    14    25   ar
    27    25    26    1
    28    10    27   ar
    29    27    28   ar
    30     7    28   ar
    31     1    29    1
    32     1    30    1
    33     1    31    1
    34     2    32    1
    35     3    33    1
    36     3    34    1
    37     3    35    1
    38     4    36    1
    39     4    37    1
    40     5    38    1
    41     5    39    1
    42     6    40    1
    43     6    41    1
    44     8    42    1
    45     9    43    1
    46    13    44    1
    47    15    45    1
    48    18    46    1
    49    19    47    1
    50    20    48    1
    51    21    49    1
    52    22    50    1
    53    23    51    1
    54    24    52    1
    55    26    53    1
    56    27    54    1
    57    28    55    1
