REMARK  9 active torsions:
REMARK  status: ('A' for Active; 'I' for Inactive)
REMARK       I    between atoms: C1_2  and  N1_3 
REMARK    1  A    between atoms: C1_2  and  C2_5 
REMARK    2  A    between atoms: N1_3  and  O2_4 
REMARK    3  A    between atoms: C5_8  and  C6_9 
REMARK    4  A    between atoms: N2_12  and  C9_13 
REMARK    5  A    between atoms: C9_13  and  C10_14 
REMARK    6  A    between atoms: C10_14  and  N3_15 
REMARK    7  A    between atoms: N3_15  and  C11_16 
REMARK    8  A    between atoms: C11_16  and  C12_17 
REMARK    9  A    between atoms: C15_20  and  C16_21 
ROOT
ATOM      1  C9  NON d   1       1.096 -20.355  -0.134  0.00  0.00     0.177 C 
ENDROOT
BRANCH   1   2
ATOM      2  N2  NON d   1       0.578 -19.601  -1.261  0.00  0.00    -0.279 N 
ATOM      3  C8  NON d   1      -0.075 -20.037  -2.374  0.00  0.00     0.114 A 
ATOM      4  C7  NON d   1      -0.301 -18.913  -3.138  0.00  0.00     0.053 A 
ATOM      5  C6  NON d   1       0.252 -17.833  -2.408  0.00  0.00     0.095 A 
ATOM      6  N5  NON d   1       0.756 -18.268  -1.245  0.00  0.00    -0.172 NA
BRANCH   5   7
ATOM      7  C5  NON d   1       0.305 -16.393  -2.853  0.00  0.00     0.036 A 
ATOM      8  C4  NON d   1      -0.226 -15.932  -4.039  0.00  0.00     0.023 A 
ATOM      9  C3  NON d   1      -0.006 -14.533  -4.226  0.00  0.00     0.026 A 
ATOM     10  C2  NON d   1       0.683 -13.950  -3.177  0.00  0.00     0.075 A 
ATOM     11  S1  NON d   1       1.046 -15.126  -1.972  0.00  0.00    -0.082 SA
BRANCH  10  12
ATOM     12  C1  NON d   1       1.113 -12.559  -2.998  0.00  0.00     0.281 C 
ATOM     13  O1  NON d   1       1.856 -12.173  -2.098  0.00  0.00    -0.265 OA
ATOM     14  N1  NON d   1       0.607 -11.686  -3.957  0.00  0.00    -0.233 N 
ATOM     15  H1  NON d   1      -0.242 -11.935  -4.449  0.00  0.00     0.197 HD
BRANCH  14  16
ATOM     16  O2  NON d   1       0.731 -10.306  -3.674  0.00  0.00    -0.287 OA
ATOM     17  H2  NON d   1       1.587 -10.088  -4.090  0.00  0.00     0.244 HD
ENDBRANCH  14  16
ENDBRANCH  10  12
ENDBRANCH   5   7
ENDBRANCH   1   2
BRANCH   1  18
ATOM     18  C10 NON d   1       0.976 -21.880  -0.196  0.00  0.00     0.254 C 
BRANCH  18  19
ATOM     19  N3  NON d   1      -0.396 -22.361   0.214  0.00  0.00    -0.070 N 
ATOM     20  H11 NON d   1      -1.107 -21.919  -0.382  0.00  0.00     0.277 HD
ATOM     21  H12 NON d   1      -0.629 -22.062   1.171  0.00  0.00     0.277 HD
BRANCH  19  22
ATOM     22  C11 NON d   1      -0.610 -23.845   0.118  0.00  0.00     0.270 C 
BRANCH  22  23
ATOM     23  C12 NON d   1      -0.154 -24.699   1.272  0.00  0.00    -0.033 A 
ATOM     24  C13 NON d   1      -0.426 -26.076   1.216  0.00  0.00     0.010 A 
ATOM     25  C14 NON d   1      -0.054 -26.946   2.255  0.00  0.00     0.014 A 
ATOM     26  C15 NON d   1       0.612 -26.483   3.400  0.00  0.00    -0.007 A 
ATOM     27  C21 NON d   1       0.881 -25.099   3.440  0.00  0.00     0.014 A 
ATOM     28  C22 NON d   1       0.508 -24.221   2.407  0.00  0.00     0.010 A 
BRANCH  26  29
ATOM     29  C16 NON d   1       1.024 -27.369   4.524  0.00  0.00     0.066 A 
ATOM     30  C17 NON d   1       0.738 -28.735   4.594  0.00  0.00     0.032 A 
ATOM     31  C18 NON d   1       1.170 -29.477   5.695  0.00  0.00     0.004 A 
ATOM     32  C19 NON d   1       1.878 -28.849   6.707  0.00  0.00     0.019 A 
ATOM     33  C20 NON d   1       2.126 -27.497   6.575  0.00  0.00     0.117 A 
ATOM     34  N4  NON d   1       1.720 -26.754   5.518  0.00  0.00    -0.260 NA
ENDBRANCH  26  29
ENDBRANCH  22  23
ENDBRANCH  19  22
ENDBRANCH  18  19
ENDBRANCH   1  18
TORSDOF 9
