@<TRIPOS>MOLECULE
*****
 60 62 0 0 0
SMALL
USER_CHARGES

@<TRIPOS>ATOM
      1 C1          7.4925   13.6641   -4.1642 C.3     1  NONAME1    -0.0411
      2 C2          7.7808   15.0981   -3.7695 C.3     1  NONAME1     0.0542
      3 O1          7.0203   15.4336   -2.6230 O.3     1  NONAME1    -0.3073
      4 P1          7.8437   15.6463   -1.1959 P.3     1  NONAME1     0.3464
      5 O2          7.9335   14.1391   -0.8927 O.2     1  NONAME1    -0.2571
      6 C3          6.2033   15.8406    0.0163 C.3     1  NONAME1     0.0994
      7 N1          5.0647   14.9861   -0.4067 N.3     1  NONAME1    -0.3019
      8 C4          5.2056   13.5561   -0.0686 C.3     1  NONAME1     0.0218
      9 C5          3.9001   12.7428   -0.0959 C.ar    1  NONAME1    -0.0335
     10 C6          3.9511   11.3302   -0.1228 C.ar    1  NONAME1    -0.0566
     11 C7          2.7823   10.5328   -0.1734 C.ar    1  NONAME1    -0.0493
     12 C8          1.5278   11.1431   -0.1885 C.ar    1  NONAME1     0.0370
     13 C9          0.2157   10.4455   -0.3841 C.2     1  NONAME1     0.2483
     14 O3         -0.6613   11.1044   -0.9439 O.2     1  NONAME1    -0.2699
     15 N2          0.0528    9.1338    0.0425 N.am    1  NONAME1    -0.2799
     16 C10        -1.1842    8.3985    0.0521 C.ar    1  NONAME1     0.0551
     17 C11        -1.0885    6.9837    0.0448 C.ar    1  NONAME1    -0.0305
     18 C12        -2.2287    6.1421    0.0316 C.ar    1  NONAME1    -0.0094
     19 C13        -2.1116    4.6571    0.0005 C.ar    1  NONAME1     0.0194
     20 C14        -0.9785    3.8559   -0.0160 C.ar    1  NONAME1    -0.0469
     21 C15        -1.2692    2.4564   -0.0359 C.ar    1  NONAME1    -0.0541
     22 C16        -2.6189    2.2081   -0.0388 C.ar    1  NONAME1    -0.0237
     23 S1         -3.5217    3.6496   -0.0204 S.2     1  NONAME1    -0.0967
     24 C17        -3.4821    6.7644    0.0613 C.ar    1  NONAME1    -0.0517
     25 C18        -3.5985    8.1502    0.1161 C.ar    1  NONAME1    -0.0386
     26 C19        -2.4735    8.9832    0.0806 C.ar    1  NONAME1     0.0461
     27 N3         -2.7119   10.3460    0.3675 N.pl3   1  NONAME1    -0.3565
     28 C20         1.4725   12.5452   -0.1115 C.ar    1  NONAME1    -0.0493
     29 C21         2.6311   13.3301   -0.0615 C.ar    1  NONAME1    -0.0566
     30 O4          7.7539   17.1535   -1.4991 O.3     1  NONAME1    -0.3073
     31 C22         8.5484   18.0285   -0.7168 C.3     1  NONAME1     0.0542
     32 C23         8.0329   19.4465   -0.8476 C.3     1  NONAME1    -0.0411
     33 H1          7.9791   13.4157   -5.1116 H       1  NONAME1     0.0252
     34 H2          6.4149   13.4970   -4.2629 H       1  NONAME1     0.0252
     35 H3          7.8528   12.9714   -3.3971 H       1  NONAME1     0.0252
     36 H4          7.4823   15.7742   -4.5764 H       1  NONAME1     0.0562
     37 H5          8.8504   15.2437   -3.5856 H       1  NONAME1     0.0562
     38 H6          5.9144   16.8919   -0.0743 H       1  NONAME1     0.0550
     39 H7          6.5685   15.6359    1.0275 H       1  NONAME1     0.0550
     40 H8          4.2587   15.3447    0.0940 H       1  NONAME1     0.1228
     41 H9          5.6307   13.4425    0.9359 H       1  NONAME1     0.0474
     42 H10         5.8674   13.0816   -0.7976 H       1  NONAME1     0.0474
     43 H11         4.9219   10.8327   -0.1358 H       1  NONAME1     0.0621
     44 H12         2.8875    9.4560   -0.2531 H       1  NONAME1     0.0625
     45 H13         0.8830    8.6115    0.2802 H       1  NONAME1     0.1552
     46 H14        -0.1008    6.5316    0.0259 H       1  NONAME1     0.0643
     47 H15         0.0309    4.2428   -0.0111 H       1  NONAME1     0.0629
     48 H16        -0.5228    1.6700   -0.0467 H       1  NONAME1     0.0623
     49 H17        -3.1207    1.2492   -0.0517 H       1  NONAME1     0.0693
     50 H18        -4.4076    6.1950    0.0691 H       1  NONAME1     0.0624
     51 H19        -4.5931    8.5829    0.1982 H       1  NONAME1     0.0637
     52 H20        -1.9809   10.9212   -0.0641 H       1  NONAME1     0.1424
     53 H21        -3.6135   10.6660    0.0322 H       1  NONAME1     0.1424
     54 H22         0.5073   13.0516   -0.1200 H       1  NONAME1     0.0625
     55 H23         2.4996   14.4066   -0.0314 H       1  NONAME1     0.0621
     56 H24         9.5792   17.9644   -1.0784 H       1  NONAME1     0.0562
     57 H25         8.5329   17.7197    0.3350 H       1  NONAME1     0.0562
     58 H26         7.6369   19.6428   -1.8484 H       1  NONAME1     0.0252
     59 H27         8.8271   20.1658   -0.6259 H       1  NONAME1     0.0252
     60 H28         7.2194   19.6197   -0.1348 H       1  NONAME1     0.0252
@<TRIPOS>BOND
     1     1     2    1
     2     2     3    1
     3     3     4    1
     4     4     5    2
     5     4     6    1
     6     6     7    1
     7     7     8    1
     8     8     9    1
     9     9    10   ar
    10    10    11   ar
    11    11    12   ar
    12    12    13    1
    13    13    14    2
    14    13    15   am
    15    15    16    1
    16    16    17   ar
    17    17    18   ar
    18    18    19    1
    19    19    20   ar
    20    20    21   ar
    21    21    22   ar
    22    22    23   ar
    23    19    23   ar
    24    18    24   ar
    25    24    25   ar
    26    25    26   ar
    27    16    26   ar
    28    26    27    1
    29    12    28   ar
    30    28    29   ar
    31     9    29   ar
    32     4    30    1
    33    30    31    1
    34    31    32    1
    35     1    33    1
    36     1    34    1
    37     1    35    1
    38     2    36    1
    39     2    37    1
    40     6    38    1
    41     6    39    1
    42     7    40    1
    43     8    41    1
    44     8    42    1
    45    10    43    1
    46    11    44    1
    47    15    45    1
    48    17    46    1
    49    20    47    1
    50    21    48    1
    51    22    49    1
    52    24    50    1
    53    25    51    1
    54    27    52    1
    55    27    53    1
    56    28    54    1
    57    29    55    1
    58    31    56    1
    59    31    57    1
    60    32    58    1
    61    32    59    1
    62    32    60    1
