@<TRIPOS>MOLECULE
*****
 57 60 0 0 0
SMALL
USER_CHARGES

@<TRIPOS>ATOM
      1 C1          2.6674   -3.0800    0.0000 C.3     1  NONAME1    -0.0221
      2 C2          2.6674   -4.6200    0.0000 C.ar    1  NONAME1     0.0434
      3 C3          3.7198   -5.5006   -0.1205 C.ar    1  NONAME1     0.0924
      4 C4          5.1536   -5.2019   -0.1498 C.ar    1  NONAME1     0.0021
      5 C5          5.6693   -3.9103   -0.3420 C.ar    1  NONAME1    -0.0525
      6 C6          7.0460   -3.6632   -0.2980 C.ar    1  NONAME1    -0.0611
      7 C7          7.9352   -4.7104   -0.0878 C.ar    1  NONAME1    -0.0617
      8 C8          7.4488   -6.0052    0.0715 C.ar    1  NONAME1    -0.0611
      9 C9          6.0709   -6.2474    0.0438 C.ar    1  NONAME1    -0.0525
     10 N1          3.2392   -6.7829   -0.1893 N.ar    1  NONAME1    -0.2273
     11 C10         1.9100   -6.7789   -0.1229 C.ar    1  NONAME1     0.1417
     12 C11         1.1996   -8.1087   -0.0769 C.ar    1  NONAME1     0.0180
     13 C12         1.9370   -9.2322    0.3418 C.ar    1  NONAME1    -0.0511
     14 C13         1.3677  -10.5132    0.4555 C.ar    1  NONAME1    -0.0605
     15 C14         0.0078  -10.7086    0.2182 C.ar    1  NONAME1    -0.0546
     16 C15        -0.7645   -9.6437   -0.2258 C.ar    1  NONAME1    -0.0242
     17 C16        -2.2350   -9.6804   -0.3773 C.2     1  NONAME1    -0.0496
     18 C17        -3.0972  -10.6923   -0.1665 C.2     1  NONAME1     0.0027
     19 C18        -4.5602  -10.3910   -0.2308 C.2     1  NONAME1     0.2593
     20 O1         -4.9886   -9.2366   -0.2923 O.2     1  NONAME1    -0.2687
     21 N2         -5.4318  -11.4359   -0.2180 N.am    1  NONAME1    -0.1940
     22 O2         -5.0052  -12.7565   -0.0092 O.3     1  NONAME1    -0.2949
     23 C19        -0.1115   -8.4011   -0.4652 C.ar    1  NONAME1    -0.0439
     24 N3          1.4874   -5.4375   -0.0048 N.ar    1  NONAME1    -0.3269
     25 C20         0.1676   -4.8023    0.1582 C.3     1  NONAME1     0.0289
     26 C21        -1.1334   -5.5752    0.0151 C.3     1  NONAME1    -0.0096
     27 C22        -2.4910   -4.9184    0.1618 C.ar    1  NONAME1    -0.0457
     28 C23        -3.6003   -5.7831    0.2617 C.ar    1  NONAME1    -0.0585
     29 C24        -4.9078   -5.3034    0.2413 C.ar    1  NONAME1    -0.0615
     30 C25        -5.1334   -3.9381    0.1340 C.ar    1  NONAME1    -0.0617
     31 C26        -4.0489   -3.0625    0.0536 C.ar    1  NONAME1    -0.0615
     32 C27        -2.7324   -3.5467    0.0617 C.ar    1  NONAME1    -0.0585
     33 H1          3.1940   -3.0003    0.9770 H       1  NONAME1     0.0293
     34 H2          2.6674   -1.5400    0.0000 H       1  NONAME1     0.0293
     35 H3          1.6018   -2.9297    0.2254 H       1  NONAME1     0.0293
     36 H4          5.0267   -3.0630   -0.5363 H       1  NONAME1     0.0624
     37 H5          7.4175   -2.6496   -0.4279 H       1  NONAME1     0.0618
     38 H6          9.0038   -4.5184   -0.0533 H       1  NONAME1     0.0618
     39 H7          8.1390   -6.8297    0.2241 H       1  NONAME1     0.0618
     40 H8          5.7110   -7.2646    0.1793 H       1  NONAME1     0.0624
     41 H9          2.9970   -9.1215    0.5704 H       1  NONAME1     0.0625
     42 H10         1.9917  -11.3515    0.7548 H       1  NONAME1     0.0618
     43 H11        -0.4236  -11.6919    0.3797 H       1  NONAME1     0.0623
     44 H12        -2.6675   -8.7149   -0.6322 H       1  NONAME1     0.0625
     45 H13        -2.7979  -11.6961    0.0968 H       1  NONAME1     0.0670
     46 H14        -6.4262  -11.2229   -0.1910 H       1  NONAME1     0.1825
     47 H15        -5.8143  -13.2058    0.3017 H       1  NONAME1     0.2414
     48 H16        -0.6895   -7.6760   -1.0067 H       1  NONAME1     0.0630
     49 H17         0.1371   -4.0189   -0.6106 H       1  NONAME1     0.0495
     50 H18         0.1888   -4.3241    1.1452 H       1  NONAME1     0.0495
     51 H19        -1.1111   -6.3973    0.7310 H       1  NONAME1     0.0330
     52 H20        -1.1542   -5.9166   -1.0250 H       1  NONAME1     0.0330
     53 H21        -3.4571   -6.8593    0.3281 H       1  NONAME1     0.0620
     54 H22        -5.7390   -6.0038    0.2884 H       1  NONAME1     0.0618
     55 H23        -6.1517   -3.5606    0.1019 H       1  NONAME1     0.0618
     56 H24        -4.2353   -1.9957   -0.0382 H       1  NONAME1     0.0618
     57 H25        -1.9178   -2.8366   -0.0405 H       1  NONAME1     0.0620
@<TRIPOS>BOND
     1     1     2    1
     2     2     3   ar
     3     3     4    1
     4     4     5   ar
     5     5     6   ar
     6     6     7   ar
     7     7     8   ar
     8     8     9   ar
     9     4     9   ar
    10     3    10   ar
    11    10    11   ar
    12    11    12    1
    13    12    13   ar
    14    13    14   ar
    15    14    15   ar
    16    15    16   ar
    17    16    17    1
    18    17    18    2
    19    18    19    1
    20    19    20    2
    21    19    21   am
    22    21    22    1
    23    16    23   ar
    24    12    23   ar
    25    11    24   ar
    26     2    24   ar
    27    24    25    1
    28    25    26    1
    29    26    27    1
    30    27    28   ar
    31    28    29   ar
    32    29    30   ar
    33    30    31   ar
    34    31    32   ar
    35    27    32   ar
    36     1    33    1
    37     1    34    1
    38     1    35    1
    39     5    36    1
    40     6    37    1
    41     7    38    1
    42     8    39    1
    43     9    40    1
    44    13    41    1
    45    14    42    1
    46    15    43    1
    47    17    44    1
    48    18    45    1
    49    21    46    1
    50    22    47    1
    51    23    48    1
    52    25    49    1
    53    25    50    1
    54    26    51    1
    55    26    52    1
    56    28    53    1
    57    29    54    1
    58    30    55    1
    59    31    56    1
    60    32    57    1
