REMARK  9 active torsions:
REMARK  status: ('A' for Active; 'I' for Inactive)
REMARK    1  A    between atoms: C2_2  and  C3_3 
REMARK    2  A    between atoms: C3_3  and  C4_4 
REMARK    3  A    between atoms: C4_4  and  N1_5 
REMARK    4  A    between atoms: C7_9  and  N3_10 
REMARK    5  A    between atoms: N3_10  and  C8_11 
REMARK    6  A    between atoms: C8_11  and  C9_12 
REMARK    7  A    between atoms: C12_15  and  C13_16 
REMARK       I    between atoms: C13_16  and  N4_18 
REMARK    8  A    between atoms: N4_18  and  C14_19 
REMARK    9  A    between atoms: C19_24  and  N5_25 
ROOT
ATOM      1  C9  NON d   1       3.375   4.066   0.040  0.00  0.00    -0.045 A 
ATOM      2  C10 NON d   1       2.228   4.884  -0.000  0.00  0.00     0.009 A 
ATOM      3  C11 NON d   1       2.318   6.287  -0.054  0.00  0.00     0.017 A 
ATOM      4  C12 NON d   1       3.568   6.912  -0.070  0.00  0.00     0.032 A 
ATOM      5  C20 NON d   1       4.713   6.101  -0.017  0.00  0.00     0.017 A 
ATOM      6  C21 NON d   1       4.621   4.702   0.039  0.00  0.00     0.009 A 
ENDROOT
BRANCH   1   7
ATOM      7  C8  NON d   1       3.181   2.553   0.011  0.00  0.00     0.132 C 
BRANCH   7   8
ATOM      8  N3  NON d   1       4.384   1.789   0.307  0.00  0.00    -0.271 NA
ATOM      9  H11 NON d   1       5.234   2.085  -0.160  0.00  0.00     0.129 HD
BRANCH   8  10
ATOM     10  C7  NON d   1       4.322   0.396   0.204  0.00  0.00     0.139 A 
ATOM     11  C6  NON d   1       3.155  -0.406   0.200  0.00  0.00     0.144 A 
ATOM     12  N2  NON d   1       1.810  -0.101   0.254  0.00  0.00    -0.236 NA
ATOM     13  C23 NON d   1       3.330  -1.780   0.099  0.00  0.00     0.166 A 
ATOM     14  C5  NON d   1       1.190  -1.260   0.197  0.00  0.00     0.212 A 
ATOM     15  N1  NON d   1       2.062  -2.308   0.107  0.00  0.00    -0.324 N 
ATOM     16  N7  NON d   1       4.490  -2.448   0.009  0.00  0.00    -0.198 NA
ATOM     17  C22 NON d   1       5.525  -1.587   0.014  0.00  0.00     0.226 A 
ATOM     18  N6  NON d   1       5.514  -0.240   0.087  0.00  0.00    -0.204 NA
ATOM     19 Cl1  NON d   1       7.075  -2.304  -0.097  0.00  0.00    -0.041 Cl
BRANCH  15  20
ATOM     20  C4  NON d   1       1.758  -3.726   0.004  0.00  0.00     0.131 C 
BRANCH  20  21
ATOM     21  C3  NON d   1       0.270  -4.089   0.086  0.00  0.00     0.020 C 
BRANCH  21  22
ATOM     22  C2  NON d   1      -0.008  -5.575  -0.152  0.00  0.00    -0.003 C 
ATOM     23  C1  NON d   1       0.360  -6.458   1.029  0.00  0.00     0.005 C 
ENDBRANCH  21  22
ENDBRANCH  20  21
ENDBRANCH  15  20
ENDBRANCH   8  10
ENDBRANCH   7   8
ENDBRANCH   1   7
BRANCH   4  24
ATOM     24  C13 NON d   1       3.776   8.397  -0.200  0.00  0.00     0.256 C 
ATOM     25  O1  NON d   1       4.876   8.779  -0.596  0.00  0.00    -0.267 OA
ATOM     26  N4  NON d   1       2.707   9.224   0.101  0.00  0.00    -0.321 N 
ATOM     27  H16 NON d   1       1.830   8.775   0.311  0.00  0.00     0.169 HD
BRANCH  26  28
ATOM     28  C14 NON d   1       2.640  10.650   0.057  0.00  0.00     0.056 A 
ATOM     29  C15 NON d   1       1.333  11.180   0.035  0.00  0.00     0.031 A 
ATOM     30  C16 NON d   1       1.100  12.557  -0.017  0.00  0.00     0.002 A 
ATOM     31  C17 NON d   1       2.171  13.438  -0.016  0.00  0.00     0.002 A 
ATOM     32  C18 NON d   1       3.469  12.936   0.036  0.00  0.00     0.025 A 
ATOM     33  C19 NON d   1       3.730  11.551   0.036  0.00  0.00     0.033 A 
BRANCH  33  34
ATOM     34  N5  NON d   1       5.061  11.174   0.302  0.00  0.00    -0.301 NA
ATOM     35  H21 NON d   1       5.240  10.219  -0.031  0.00  0.00     0.124 HD
ATOM     36  H22 NON d   1       5.744  11.811  -0.091  0.00  0.00     0.124 HD
ENDBRANCH  33  34
ENDBRANCH  26  28
ENDBRANCH   4  24
TORSDOF 9
