REMARK  8 active torsions:
REMARK  status: ('A' for Active; 'I' for Inactive)
REMARK    1  A    between atoms: C1_2  and  C2_3 
REMARK       I    between atoms: C1_2  and  N3_30 
REMARK    2  A    between atoms: C3_4  and  C4_5 
REMARK    3  A    between atoms: C8_9  and  C9_10 
REMARK    4  A    between atoms: C9_10  and  C10_11 
REMARK    5  A    between atoms: C9_10  and  C17_20 
REMARK       I    between atoms: C10_11  and  N1_13 
REMARK    6  A    between atoms: N1_13  and  C11_14 
REMARK       I    between atoms: C17_20  and  N2_22 
REMARK    7  A    between atoms: N2_22  and  C18_23 
REMARK    8  A    between atoms: N3_30  and  O4_31 
ROOT
ATOM      1  C9  NON d   1       1.533  -6.851   0.171  0.00  0.00     0.203 C 
ENDROOT
BRANCH   1   2
ATOM      2  C8  NON d   1       1.393  -8.389   0.118  0.00  0.00    -0.035 A 
ATOM      3  C7  NON d   1       0.125  -8.999   0.107  0.00  0.00     0.008 A 
ATOM      4  C6  NON d   1      -0.015 -10.386   0.069  0.00  0.00     0.001 A 
ATOM      5  C5  NON d   1       1.111 -11.205   0.058  0.00  0.00     0.011 A 
ATOM      6  C4  NON d   1       2.392 -10.651   0.123  0.00  0.00    -0.035 A 
ATOM      7  C24 NON d   1       2.512  -9.248   0.178  0.00  0.00     0.020 A 
BRANCH   6   8
ATOM      8  C3  NON d   1       3.625 -11.464   0.075  0.00  0.00     0.017 C 
ATOM      9  C2  NON d   1       3.679 -12.801   0.169  0.00  0.00     0.077 C 
BRANCH   9  10
ATOM     10  C1  NON d   1       4.976 -13.510   0.051  0.00  0.00     0.264 C 
ATOM     11  O1  NON d   1       6.039 -12.955  -0.201  0.00  0.00    -0.266 OA
ATOM     12  N3  NON d   1       4.865 -14.863   0.227  0.00  0.00    -0.234 N 
ATOM     13  H20 NON d   1       4.005 -15.375   0.377  0.00  0.00     0.197 HD
BRANCH  12  14
ATOM     14  O4  NON d   1       6.037 -15.627   0.037  0.00  0.00    -0.287 OA
ATOM     15  H21 NON d   1       6.693 -14.944  -0.226  0.00  0.00     0.244 HD
ENDBRANCH  12  14
ENDBRANCH   9  10
ENDBRANCH   6   8
ENDBRANCH   1   2
BRANCH   1  16
ATOM     16  C10 NON d   1       0.289  -6.114  -0.346  0.00  0.00     0.239 C 
ATOM     17  O2  NON d   1      -0.273  -6.417  -1.396  0.00  0.00    -0.272 OA
ATOM     18  N1  NON d   1      -0.072  -5.023   0.444  0.00  0.00    -0.326 N 
ATOM     19  H7  NON d   1       0.576  -4.692   1.149  0.00  0.00     0.169 HD
BRANCH  18  20
ATOM     20  C11 NON d   1      -1.216  -4.221   0.240  0.00  0.00     0.034 A 
ATOM     21  C12 NON d   1      -2.385  -4.713  -0.346  0.00  0.00     0.029 A 
ATOM     22  C13 NON d   1      -3.504  -3.889  -0.490  0.00  0.00     0.002 A 
ATOM     23  C14 NON d   1      -3.451  -2.560  -0.077  0.00  0.00     0.000 A 
ATOM     24  C15 NON d   1      -2.286  -2.060   0.502  0.00  0.00     0.002 A 
ATOM     25  C16 NON d   1      -1.180  -2.895   0.683  0.00  0.00     0.029 A 
ENDBRANCH  18  20
ENDBRANCH   1  16
BRANCH   1  26
ATOM     26  C17 NON d   1       2.800  -6.242  -0.472  0.00  0.00     0.239 C 
ATOM     27  O3  NON d   1       3.705  -6.906  -0.972  0.00  0.00    -0.272 OA
ATOM     28  N2  NON d   1       2.877  -4.855  -0.321  0.00  0.00    -0.326 N 
ATOM     29  H13 NON d   1       2.013  -4.330  -0.372  0.00  0.00     0.169 HD
BRANCH  28  30
ATOM     30  C18 NON d   1       4.055  -4.079  -0.280  0.00  0.00     0.034 A 
ATOM     31  C19 NON d   1       3.910  -2.685  -0.275  0.00  0.00     0.029 A 
ATOM     32  C20 NON d   1       5.030  -1.856  -0.158  0.00  0.00     0.002 A 
ATOM     33  C21 NON d   1       6.301  -2.412  -0.043  0.00  0.00     0.000 A 
ATOM     34  C22 NON d   1       6.453  -3.795  -0.048  0.00  0.00     0.002 A 
ATOM     35  C23 NON d   1       5.335  -4.626  -0.162  0.00  0.00     0.029 A 
ENDBRANCH  28  30
ENDBRANCH   1  26
TORSDOF 8
