@<TRIPOS>MOLECULE
*****
 48 51 0 0 0
SMALL
USER_CHARGES

@<TRIPOS>ATOM
      1 C1          1.5121   -9.0831    0.1264 C.3     1  NONAME1     0.0788
      2 O1          0.5619   -8.0792    0.4681 O.3     1  NONAME1    -0.4951
      3 C2          0.9624   -6.7824    0.2988 C.ar    1  NONAME1     0.1202
      4 C3          0.1903   -5.8277    0.9670 C.ar    1  NONAME1    -0.0180
      5 C4          0.4983   -4.4633    0.8861 C.ar    1  NONAME1    -0.0343
      6 C5          1.5731   -4.0428    0.1000 C.ar    1  NONAME1     0.0488
      7 N1          1.9230   -2.6632   -0.0073 N.ar    1  NONAME1    -0.2921
      8 C6          1.0930   -1.5381   -0.1258 C.ar    1  NONAME1     0.1464
      9 C7         -0.3780   -1.4354   -0.2173 C.ar    1  NONAME1     0.0184
     10 C8         -1.2226   -2.3979   -0.7741 C.ar    1  NONAME1    -0.0511
     11 C9         -2.6029   -2.1741   -0.8486 C.ar    1  NONAME1    -0.0605
     12 C10        -3.1484   -0.9521   -0.4464 C.ar    1  NONAME1    -0.0546
     13 C11        -2.3181    0.0623    0.0314 C.ar    1  NONAME1    -0.0242
     14 C12        -2.8780    1.3861    0.3382 C.2     1  NONAME1    -0.0496
     15 C13        -2.2163    2.5241    0.0690 C.2     1  NONAME1     0.0027
     16 C14        -2.8380    3.8408    0.3311 C.2     1  NONAME1     0.2593
     17 O2         -3.9574    3.9829    0.8106 O.2     1  NONAME1    -0.2687
     18 N2         -2.0488    4.8957   -0.0440 N.am    1  NONAME1    -0.1940
     19 O3         -2.6159    6.1835    0.0748 O.3     1  NONAME1    -0.2949
     20 C15        -0.9538   -0.2121    0.1859 C.ar    1  NONAME1    -0.0439
     21 N3          1.8283   -0.4374   -0.2251 N.ar    1  NONAME1    -0.2272
     22 C16         3.1283   -0.8139   -0.1430 C.ar    1  NONAME1     0.0900
     23 C17         4.2754   -0.0065   -0.1746 C.ar    1  NONAME1    -0.0342
     24 C18         5.5270   -0.6023   -0.0089 C.ar    1  NONAME1    -0.0596
     25 C19         5.6292   -1.9752    0.2010 C.ar    1  NONAME1    -0.0597
     26 C20         4.4929   -2.7911    0.2290 C.ar    1  NONAME1    -0.0357
     27 C21         3.2399   -2.1863    0.0184 C.ar    1  NONAME1     0.0739
     28 C22         2.3349   -4.9999   -0.5865 C.ar    1  NONAME1    -0.0343
     29 C23         2.0344   -6.3625   -0.4844 C.ar    1  NONAME1    -0.0180
     30 H1          1.0965  -10.0516    0.4211 H       1  NONAME1     0.0660
     31 H2          1.6873   -9.1145   -0.9539 H       1  NONAME1     0.0660
     32 H3          2.4503   -8.9422    0.6743 H       1  NONAME1     0.0660
     33 H4         -0.6525   -6.1530    1.5733 H       1  NONAME1     0.0655
     34 H5         -0.0988   -3.7627    1.4642 H       1  NONAME1     0.0639
     35 H6         -0.8350   -3.3300   -1.1746 H       1  NONAME1     0.0625
     36 H7         -3.2539   -2.9449   -1.2551 H       1  NONAME1     0.0618
     37 H8         -4.2181   -0.7875   -0.5510 H       1  NONAME1     0.0623
     38 H9         -3.8864    1.4125    0.7461 H       1  NONAME1     0.0625
     39 H10        -1.2258    2.5201   -0.3708 H       1  NONAME1     0.0670
     40 H11        -1.1618    4.8263   -0.5294 H       1  NONAME1     0.1825
     41 H12        -3.5093    5.9842    0.4322 H       1  NONAME1     0.2414
     42 H13        -0.2983    0.5543    0.5985 H       1  NONAME1     0.0630
     43 H14         4.1787    1.0647   -0.3103 H       1  NONAME1     0.0639
     44 H15         6.4214    0.0154   -0.0236 H       1  NONAME1     0.0618
     45 H16         6.6111   -2.4202    0.3565 H       1  NONAME1     0.0618
     46 H17         4.5960   -3.8523    0.4313 H       1  NONAME1     0.0639
     47 H18         3.1512   -4.7066   -1.2447 H       1  NONAME1     0.0639
     48 H19         2.6448   -7.0643   -1.0434 H       1  NONAME1     0.0655
@<TRIPOS>BOND
     1     1     2    1
     2     2     3    1
     3     3     4   ar
     4     4     5   ar
     5     5     6   ar
     6     6     7    1
     7     7     8   ar
     8     8     9    1
     9     9    10   ar
    10    10    11   ar
    11    11    12   ar
    12    12    13   ar
    13    13    14    1
    14    14    15    2
    15    15    16    1
    16    16    17    2
    17    16    18   am
    18    18    19    1
    19    13    20   ar
    20     9    20   ar
    21     8    21   ar
    22    21    22   ar
    23    22    23   ar
    24    23    24   ar
    25    24    25   ar
    26    25    26   ar
    27    26    27   ar
    28    22    27   ar
    29     7    27   ar
    30     6    28   ar
    31    28    29   ar
    32     3    29   ar
    33     1    30    1
    34     1    31    1
    35     1    32    1
    36     4    33    1
    37     5    34    1
    38    10    35    1
    39    11    36    1
    40    12    37    1
    41    14    38    1
    42    15    39    1
    43    18    40    1
    44    19    41    1
    45    20    42    1
    46    23    43    1
    47    24    44    1
    48    25    45    1
    49    26    46    1
    50    28    47    1
    51    29    48    1
