@<TRIPOS>MOLECULE
*****
 55 56 0 0 0
SMALL
USER_CHARGES

@<TRIPOS>ATOM
      1 C1        -10.6694    1.5400    0.0000 C.3     1  NONAME1     0.0788
      2 O1        -10.6694    3.0800    0.0000 O.3     1  NONAME1    -0.4951
      3 C2         -9.3931    3.6239   -0.0291 C.ar    1  NONAME1     0.1202
      4 C3         -9.3194    5.0242   -0.0212 C.ar    1  NONAME1    -0.0181
      5 C4         -8.0830    5.7013   -0.1335 C.ar    1  NONAME1    -0.0316
      6 C5         -6.8880    4.9773   -0.2437 C.ar    1  NONAME1     0.1087
      7 S1         -5.3654    5.7955   -0.7702 S.O2    1  NONAME1     0.0723
      8 O2         -4.7787    4.9575   -1.7917 O.2     1  NONAME1    -0.1500
      9 O3         -5.6985    7.1810   -1.0342 O.2     1  NONAME1    -0.1500
     10 N1         -4.3459    5.8485    0.6064 N.pl3   1  NONAME1    -0.2163
     11 C6         -2.9628    5.4394    0.4303 C.ar    1  NONAME1     0.0483
     12 C7         -1.9148    6.3695    0.3859 C.ar    1  NONAME1    -0.0359
     13 C8         -0.5642    5.9431    0.3032 C.ar    1  NONAME1    -0.0182
     14 C9         -0.2542    4.5824    0.2555 C.ar    1  NONAME1     0.1206
     15 O4          0.9933    4.0111    0.2122 O.3     1  NONAME1    -0.4920
     16 C10         2.1411    4.8588    0.1060 C.3     1  NONAME1     0.0896
     17 C11         3.4120    4.0122   -0.1406 C.3     1  NONAME1    -0.0186
     18 C12         3.9600    3.3284    1.1230 C.3     1  NONAME1    -0.0500
     19 C13         5.2423    2.4980    0.9004 C.3     1  NONAME1    -0.0525
     20 C14         6.5779    3.2394    1.1033 C.3     1  NONAME1    -0.0447
     21 C15         6.9616    4.1538   -0.0560 C.3     1  NONAME1     0.0259
     22 C16         8.3593    4.7469    0.0581 C.2     1  NONAME1     0.2354
     23 O5          9.0803    4.6232    1.0390 O.2     1  NONAME1    -0.2737
     24 N2          8.6736    5.5010   -1.0659 N.am    1  NONAME1    -0.1975
     25 O6         10.0204    5.9158   -1.1600 O.3     1  NONAME1    -0.2952
     26 C17        -1.3108    3.6671    0.2627 C.ar    1  NONAME1    -0.0182
     27 C18        -2.6458    4.0860    0.3466 C.ar    1  NONAME1    -0.0359
     28 C19        -6.9472    3.5802   -0.2107 C.ar    1  NONAME1    -0.0316
     29 C20        -8.1905    2.9107   -0.0964 C.ar    1  NONAME1    -0.0181
     30 H1        -11.7531    1.4787   -0.2037 H       1  NONAME1     0.0660
     31 H2        -10.6694    0.0000    0.0000 H       1  NONAME1     0.0660
     32 H3        -10.5321    1.4656    1.0958 H       1  NONAME1     0.0660
     33 H4        -10.2394    5.6039    0.0317 H       1  NONAME1     0.0655
     34 H5         -8.0819    6.7885   -0.1929 H       1  NONAME1     0.0638
     35 H6         -4.4029    6.8101    0.9537 H       1  NONAME1     0.1737
     36 H7         -2.1185    7.4374    0.4288 H       1  NONAME1     0.0638
     37 H8          0.2145    6.6989    0.2880 H       1  NONAME1     0.0655
     38 H9          2.0198    5.5301   -0.7527 H       1  NONAME1     0.0696
     39 H10         2.2579    5.4534    1.0194 H       1  NONAME1     0.0696
     40 H11         4.1817    4.6687   -0.5542 H       1  NONAME1     0.0298
     41 H12         3.1963    3.2431   -0.8924 H       1  NONAME1     0.0298
     42 H13         4.1321    4.0680    1.9129 H       1  NONAME1     0.0266
     43 H14         3.1848    2.6462    1.4949 H       1  NONAME1     0.0266
     44 H15         5.2246    2.0096   -0.0811 H       1  NONAME1     0.0265
     45 H16         5.2288    1.6860    1.6410 H       1  NONAME1     0.0265
     46 H17         6.5576    3.8042    2.0431 H       1  NONAME1     0.0270
     47 H18         7.3667    2.4836    1.2252 H       1  NONAME1     0.0270
     48 H19         6.9167    3.5881   -0.9940 H       1  NONAME1     0.0359
     49 H20         6.2634    4.9924   -0.1172 H       1  NONAME1     0.0359
     50 H21         8.2388    5.2653   -1.9541 H       1  NONAME1     0.1822
     51 H22         9.9948    6.8051   -0.7591 H       1  NONAME1     0.2414
     52 H23        -1.0952    2.6006    0.2132 H       1  NONAME1     0.0655
     53 H24        -3.4380    3.3423    0.3653 H       1  NONAME1     0.0638
     54 H25        -6.0373    2.9962   -0.3320 H       1  NONAME1     0.0638
     55 H26        -8.1759    1.8248   -0.1017 H       1  NONAME1     0.0655
@<TRIPOS>BOND
     1     1     2    1
     2     2     3    1
     3     3     4   ar
     4     4     5   ar
     5     5     6   ar
     6     6     7    1
     7     7     8    2
     8     7     9    2
     9     7    10    1
    10    10    11    1
    11    11    12   ar
    12    12    13   ar
    13    13    14   ar
    14    14    15    1
    15    15    16    1
    16    16    17    1
    17    17    18    1
    18    18    19    1
    19    19    20    1
    20    20    21    1
    21    21    22    1
    22    22    23    2
    23    22    24   am
    24    24    25    1
    25    14    26   ar
    26    26    27   ar
    27    11    27   ar
    28     6    28   ar
    29    28    29   ar
    30     3    29   ar
    31     1    30    1
    32     1    31    1
    33     1    32    1
    34     4    33    1
    35     5    34    1
    36    10    35    1
    37    12    36    1
    38    13    37    1
    39    16    38    1
    40    16    39    1
    41    17    40    1
    42    17    41    1
    43    18    42    1
    44    18    43    1
    45    19    44    1
    46    19    45    1
    47    20    46    1
    48    20    47    1
    49    21    48    1
    50    21    49    1
    51    24    50    1
    52    25    51    1
    53    26    52    1
    54    27    53    1
    55    28    54    1
    56    29    55    1
