@<TRIPOS>MOLECULE
*****
 29 31 0 0 0
SMALL
USER_CHARGES

@<TRIPOS>ATOM
      1 O1          8.8163   -2.7208   -0.1266 O.2     1  NONAME1    -0.2820
      2 C1          7.6758   -3.1945   -0.0715 C.2     1  NONAME1     0.2720
      3 C2          7.4807   -4.6460   -0.0148 C.ar    1  NONAME1     0.0643
      4 C3          8.4735   -5.6018   -0.1414 C.ar    1  NONAME1    -0.0431
      5 C4          7.9674   -6.9304   -0.0714 C.ar    1  NONAME1    -0.0416
      6 C5          6.6032   -6.9641    0.1401 C.ar    1  NONAME1     0.0772
      7 C6          5.7870   -8.1397    0.2609 C.ar    1  NONAME1     0.2651
      8 N1          6.1793   -9.3337   -0.1372 N.ar    1  NONAME1    -0.1910
      9 C7          5.1065  -10.1386    0.1801 C.ar    1  NONAME1     0.1769
     10 C8          5.1653  -11.6060   -0.1016 C.3     1  NONAME1     0.0420
     11 C9          3.8940  -12.4187   -0.1029 C.ar    1  NONAME1    -0.0028
     12 C10         3.7663  -13.7371    0.3040 C.ar    1  NONAME1    -0.0511
     13 C11         2.4475  -14.2445    0.1292 C.ar    1  NONAME1    -0.0545
     14 C12         1.6046  -13.3004   -0.4092 C.ar    1  NONAME1    -0.0241
     15 S1          2.4191  -11.8392   -0.7591 S.2     1  NONAME1    -0.1012
     16 N2          4.1080   -9.4984    0.8020 N.ar    1  NONAME1    -0.0605
     17 O2          4.5357   -8.1690    0.8218 O.2     1  NONAME1    -0.3323
     18 S2          5.9574   -5.3840    0.2414 S.2     1  NONAME1    -0.0803
     19 C13         6.4427   -2.2875   -0.0868 C.3     1  NONAME1     0.4559
     20 F1          5.7027   -2.3844    1.0523 F       1  NONAME1    -0.1630
     21 F2          6.7576   -0.9656   -0.2159 F       1  NONAME1    -0.1630
     22 F3          5.5981   -2.5680   -1.1221 F       1  NONAME1    -0.1630
     23 H1          9.5194   -5.3534   -0.2933 H       1  NONAME1     0.0630
     24 H2          8.5768   -7.8233   -0.1626 H       1  NONAME1     0.0631
     25 H3          5.6454  -11.7467   -1.0790 H       1  NONAME1     0.0399
     26 H4          5.8496  -12.0423    0.6389 H       1  NONAME1     0.0399
     27 H5          4.5899  -14.3183    0.7024 H       1  NONAME1     0.0626
     28 H6          2.1340  -15.2496    0.3847 H       1  NONAME1     0.0623
     29 H7          0.5525  -13.4045   -0.6362 H       1  NONAME1     0.0693
@<TRIPOS>BOND
     1     1     2    2
     2     2     3    1
     3     3     4   ar
     4     4     5   ar
     5     5     6   ar
     6     6     7    1
     7     7     8   ar
     8     8     9   ar
     9     9    10    1
    10    10    11    1
    11    11    12   ar
    12    12    13   ar
    13    13    14   ar
    14    14    15   ar
    15    11    15   ar
    16     9    16   ar
    17    16    17   ar
    18     7    17   ar
    19     6    18   ar
    20     3    18   ar
    21     2    19    1
    22    19    20    1
    23    19    21    1
    24    19    22    1
    25     4    23    1
    26     5    24    1
    27    10    25    1
    28    10    26    1
    29    12    27    1
    30    13    28    1
    31    14    29    1
