@<TRIPOS>MOLECULE
*****
 62 65 0 0 0
SMALL
USER_CHARGES

@<TRIPOS>ATOM
      1 C1          1.3337  -10.0100    0.0000 C.3     1  NONAME1    -0.0431
      2 N1          1.3337  -11.5500    0.0000 N.4     1  NONAME1     0.2341
      3 C2          2.4641  -12.3209   -0.6324 C.3     1  NONAME1    -0.0200
      4 C3          1.9905  -13.7830   -0.6453 C.3     1  NONAME1     0.0872
      5 C4          2.9700  -14.6633    0.1292 C.2     1  NONAME1     0.2262
      6 O1          2.6494  -15.1606    1.2048 O.2     1  NONAME1    -0.2749
      7 N2          4.1995  -14.8362   -0.4765 N.am    1  NONAME1    -0.2851
      8 C5          5.0910  -15.8986   -0.1903 C.ar    1  NONAME1     0.0335
      9 C6          6.4426  -15.7403   -0.5185 C.ar    1  NONAME1    -0.0391
     10 C7          7.3456  -16.7920   -0.3257 C.ar    1  NONAME1    -0.0416
     11 C8          6.8936  -18.0161    0.1613 C.ar    1  NONAME1     0.0411
     12 Cl1         7.9942  -19.3229    0.3506 Cl      1  NONAME1    -0.0835
     13 C9          5.5506  -18.1873    0.4836 C.ar    1  NONAME1    -0.0416
     14 C10         4.6536  -17.1254    0.3227 C.ar    1  NONAME1    -0.0391
     15 C11         0.5706  -13.7682   -0.0009 C.3     1  NONAME1     0.0402
     16 C12        -0.3834  -14.9170   -0.2945 C.ar    1  NONAME1    -0.0383
     17 C13         0.0762  -16.2263   -0.5056 C.ar    1  NONAME1    -0.0575
     18 C14        -0.8037  -17.3263   -0.5229 C.ar    1  NONAME1    -0.0543
     19 C15        -2.1800  -17.1635   -0.3295 C.ar    1  NONAME1    -0.0249
     20 C16        -3.0474  -18.3659   -0.2198 C.2     1  NONAME1    -0.0497
     21 C17        -4.3894  -18.3355   -0.1753 C.2     1  NONAME1     0.0010
     22 C18        -5.3733  -19.4453    0.0412 C.2     1  NONAME1     0.2411
     23 O2         -6.4951  -19.1064    0.4109 O.2     1  NONAME1    -0.2705
     24 N3         -4.9345  -20.7244   -0.1790 N.am    1  NONAME1    -0.2804
     25 C19        -5.6748  -21.9436   -0.1042 C.ar    1  NONAME1     0.0545
     26 C20        -4.8903  -23.1126   -0.0331 C.ar    1  NONAME1    -0.0387
     27 C21        -5.4669  -24.3836    0.0418 C.ar    1  NONAME1    -0.0599
     28 C22        -6.8477  -24.5161    0.0183 C.ar    1  NONAME1    -0.0599
     29 C23        -7.6427  -23.3772   -0.0770 C.ar    1  NONAME1    -0.0392
     30 C24        -7.0841  -22.0828   -0.1016 C.ar    1  NONAME1     0.0461
     31 N4         -7.9747  -21.0335   -0.4057 N.pl3   1  NONAME1    -0.3565
     32 C25        -2.6428  -15.8547   -0.1534 C.ar    1  NONAME1    -0.0543
     33 C26        -1.7669  -14.7549   -0.1348 C.ar    1  NONAME1    -0.0575
     34 C27         0.0866  -12.3374   -0.3087 C.3     1  NONAME1    -0.0243
     35 H1          2.4232   -9.9106   -0.1467 H       1  NONAME1     0.0777
     36 H2          1.3337   -8.4700    0.0000 H       1  NONAME1     0.0777
     37 H3          0.8357   -9.9232   -0.9817 H       1  NONAME1     0.0777
     38 H4          1.4655  -11.7137    1.0113 H       1  NONAME1     0.2031
     39 H5          2.5959  -11.9307   -1.6469 H       1  NONAME1     0.0822
     40 H6          3.3619  -12.1374   -0.0331 H       1  NONAME1     0.0822
     41 H7          1.9433  -14.1503   -1.6797 H       1  NONAME1     0.0455
     42 H8          4.5600  -14.1385   -1.1166 H       1  NONAME1     0.1548
     43 H9          6.8231  -14.7986   -0.9039 H       1  NONAME1     0.0636
     44 H10         8.3981  -16.6548   -0.5628 H       1  NONAME1     0.0633
     45 H11         5.1922  -19.1462    0.8501 H       1  NONAME1     0.0633
     46 H12         3.6094  -17.3019    0.5651 H       1  NONAME1     0.0636
     47 H13         0.6895  -13.8110    1.0943 H       1  NONAME1     0.0410
     48 H14         1.1363  -16.4526   -0.5925 H       1  NONAME1     0.0621
     49 H15        -0.3803  -18.3232   -0.6438 H       1  NONAME1     0.0624
     50 H16        -2.5137  -19.3056   -0.1182 H       1  NONAME1     0.0625
     51 H17        -4.9218  -17.3925   -0.2418 H       1  NONAME1     0.0670
     52 H18        -3.9492  -20.8424   -0.3565 H       1  NONAME1     0.1552
     53 H19        -3.8045  -23.0496   -0.0219 H       1  NONAME1     0.0637
     54 H20        -4.8370  -25.2670    0.1046 H       1  NONAME1     0.0618
     55 H21        -7.3086  -25.5020    0.0491 H       1  NONAME1     0.0618
     56 H22        -8.7217  -23.4983   -0.1519 H       1  NONAME1     0.0636
     57 H23        -7.5996  -20.1294   -0.0968 H       1  NONAME1     0.1424
     58 H24        -8.9027  -21.1690   -0.0215 H       1  NONAME1     0.1424
     59 H25        -3.6977  -15.6561    0.0290 H       1  NONAME1     0.0624
     60 H26        -2.2091  -13.7843    0.0779 H       1  NONAME1     0.0621
     61 H27        -0.7098  -11.9858    0.3522 H       1  NONAME1     0.0820
     62 H28        -0.1680  -12.1807   -1.3626 H       1  NONAME1     0.0820
@<TRIPOS>BOND
     1     1     2    1
     2     2     3    1
     3     4     3    1
     4     4     5    1
     5     5     6    2
     6     5     7   am
     7     7     8    1
     8     8     9   ar
     9     9    10   ar
    10    10    11   ar
    11    11    12    1
    12    11    13   ar
    13    13    14   ar
    14     8    14   ar
    15     4    15    1
    16    15    16    1
    17    16    17   ar
    18    17    18   ar
    19    18    19   ar
    20    19    20    1
    21    20    21    2
    22    21    22    1
    23    22    23    2
    24    22    24   am
    25    24    25    1
    26    25    26   ar
    27    26    27   ar
    28    27    28   ar
    29    28    29   ar
    30    29    30   ar
    31    25    30   ar
    32    30    31    1
    33    19    32   ar
    34    32    33   ar
    35    16    33   ar
    36    15    34    1
    37     2    34    1
    38     1    35    1
    39     1    36    1
    40     1    37    1
    41     2    38    1
    42     3    39    1
    43     3    40    1
    44     4    41    1
    45     7    42    1
    46     9    43    1
    47    10    44    1
    48    13    45    1
    49    14    46    1
    50    15    47    1
    51    17    48    1
    52    18    49    1
    53    20    50    1
    54    21    51    1
    55    24    52    1
    56    26    53    1
    57    27    54    1
    58    28    55    1
    59    29    56    1
    60    31    57    1
    61    31    58    1
    62    32    59    1
    63    33    60    1
    64    34    61    1
    65    34    62    1
