REMARK  4 active torsions:
REMARK  status: ('A' for Active; 'I' for Inactive)
REMARK    1  A    between atoms: O1_2  and  C2_3 
REMARK    2  A    between atoms: C2_3  and  C3_5 
REMARK    3  A    between atoms: C8_10  and  C9_11 
REMARK       I    between atoms: C9_11  and  N1_13 
REMARK    4  A    between atoms: N1_13  and  O4_14 
ROOT
ATOM      1  C3  NON d   1       6.180   3.670   0.054  0.00  0.00     0.040 A 
ATOM      2  C4  NON d   1       6.091   2.279  -0.003  0.00  0.00     0.018 A 
ATOM      3  C5  NON d   1       4.839   1.648  -0.040  0.00  0.00     0.014 A 
ATOM      4  C6  NON d   1       3.648   2.411  -0.017  0.00  0.00    -0.018 A 
ATOM      5  C7  NON d   1       2.272   2.003  -0.052  0.00  0.00     0.037 A 
ATOM      6  C8  NON d   1       1.382   3.059  -0.001  0.00  0.00     0.076 A 
ATOM      7  S1  NON d   1       2.211   4.551   0.078  0.00  0.00    -0.084 SA
ATOM      8  C10 NON d   1       3.758   3.801   0.046  0.00  0.00     0.017 A 
ATOM      9  C11 NON d   1       5.012   4.445   0.081  0.00  0.00     0.037 A 
ENDROOT
BRANCH   6  10
ATOM     10  C9  NON d   1      -0.071   2.980  -0.025  0.00  0.00     0.281 C 
ATOM     11  O3  NON d   1      -0.695   1.937  -0.234  0.00  0.00    -0.265 OA
ATOM     12  N1  NON d   1      -0.749   4.157   0.197  0.00  0.00    -0.233 N 
ATOM     13  H7  NON d   1      -0.293   5.055   0.311  0.00  0.00     0.197 HD
BRANCH  12  14
ATOM     14  O4  NON d   1      -2.156   4.139   0.097  0.00  0.00    -0.287 OA
ATOM     15  H8  NON d   1      -2.343   3.208  -0.149  0.00  0.00     0.244 HD
ENDBRANCH  12  14
ENDBRANCH   6  10
BRANCH   1  16
ATOM     16  C2  NON d   1       7.485   4.387   0.100  0.00  0.00     0.292 C 
ATOM     17  O2  NON d   1       7.586   5.590   0.284  0.00  0.00    -0.259 OA
BRANCH  16  18
ATOM     18  O1  NON d   1       8.515   3.527  -0.100  0.00  0.00    -0.323 OA
ATOM     19  C1  NON d   1       9.804   4.145  -0.081  0.00  0.00     0.213 C 
ENDBRANCH  16  18
ENDBRANCH   1  16
TORSDOF 4
