@<TRIPOS>MOLECULE
*****
 55 58 0 0 0
SMALL
USER_CHARGES

@<TRIPOS>ATOM
      1 C1         -1.3337   -2.3100    0.0000 C.3     1  NONAME1    -0.0380
      2 C2         -1.3337   -0.7700    0.0000 C.ar    1  NONAME1    -0.0291
      3 C3         -2.4986   -0.0623   -0.3051 C.ar    1  NONAME1    -0.0553
      4 C4         -2.5000    1.3291   -0.2717 C.ar    1  NONAME1    -0.0401
      5 C5         -1.3522    2.0440    0.0752 C.ar    1  NONAME1     0.0354
      6 N1         -1.3156    3.4656    0.1504 N.am    1  NONAME1    -0.2814
      7 C6         -2.4097    4.3118    0.0093 C.2     1  NONAME1     0.2483
      8 O1         -3.5720    3.9406   -0.1491 O.2     1  NONAME1    -0.2699
      9 C7         -2.1911    5.7943    0.0712 C.ar    1  NONAME1     0.0371
     10 C8         -3.3382    6.5990    0.1132 C.ar    1  NONAME1    -0.0491
     11 C9         -3.2515    7.9943    0.1325 C.ar    1  NONAME1    -0.0539
     12 C10        -2.0082    8.6351    0.1153 C.ar    1  NONAME1    -0.0248
     13 C11        -2.0055   10.1083    0.1496 C.2     1  NONAME1    -0.0496
     14 C12        -0.9367   10.9131    0.0614 C.2     1  NONAME1     0.0027
     15 C13        -1.1271   12.3833    0.1385 C.2     1  NONAME1     0.2593
     16 O2         -2.1871   12.9188    0.4452 O.2     1  NONAME1    -0.2687
     17 N2          0.0026   13.0958   -0.1558 N.am    1  NONAME1    -0.1940
     18 O3         -0.0897   14.5018   -0.0661 O.3     1  NONAME1    -0.2949
     19 C14        -0.8576    7.8327    0.0783 C.ar    1  NONAME1    -0.0539
     20 C15        -0.9422    6.4243    0.0515 C.ar    1  NONAME1    -0.0491
     21 C16        -0.1763    1.3241    0.3604 C.ar    1  NONAME1    -0.0190
     22 C17        -0.1323   -0.0917    0.3148 C.ar    1  NONAME1     0.0375
     23 N3          1.1233   -0.7187    0.6634 N.pl3   1  NONAME1    -0.2935
     24 C18         1.4052   -2.0504    0.5443 C.ar    1  NONAME1     0.1629
     25 N4          2.1140   -2.5418   -0.4501 N.ar    1  NONAME1    -0.2324
     26 C19         2.0416   -3.9253   -0.4443 C.ar    1  NONAME1     0.0446
     27 C20         1.3205   -4.4962    0.5910 C.ar    1  NONAME1     0.0420
     28 C21         0.8315   -5.8775    0.7301 C.ar    1  NONAME1     0.0084
     29 C22         1.5617   -6.9652    0.2368 C.ar    1  NONAME1    -0.0506
     30 C23         0.9934   -8.2419    0.2022 C.ar    1  NONAME1    -0.0430
     31 C24        -0.3019   -8.4028    0.6613 C.ar    1  NONAME1     0.0276
     32 N5         -1.0352   -7.3955    1.1729 N.ar    1  NONAME1    -0.2626
     33 C25        -0.4518   -6.1689    1.2009 C.ar    1  NONAME1     0.0358
     34 S1          0.9879   -3.2467    1.7394 S.2     1  NONAME1    -0.0521
     35 H1         -2.2405   -2.4041    0.6317 H       1  NONAME1     0.0278
     36 H2         -1.3337   -3.8500    0.0000 H       1  NONAME1     0.0278
     37 H3         -1.5967   -2.3966   -1.0741 H       1  NONAME1     0.0278
     38 H4         -3.4155   -0.5884   -0.5602 H       1  NONAME1     0.0621
     39 H5         -3.4340    1.8177   -0.5238 H       1  NONAME1     0.0636
     40 H6         -0.4229    3.8695    0.3884 H       1  NONAME1     0.1551
     41 H7         -4.3293    6.1440    0.1210 H       1  NONAME1     0.0625
     42 H8         -4.1768    8.5662    0.1575 H       1  NONAME1     0.0624
     43 H9         -2.9915   10.5695    0.2511 H       1  NONAME1     0.0625
     44 H10         0.0724   10.5430   -0.0495 H       1  NONAME1     0.0670
     45 H11         0.8973   12.7095   -0.4304 H       1  NONAME1     0.1825
     46 H12        -1.0114   14.6318    0.2493 H       1  NONAME1     0.2414
     47 H13         0.1329    8.2802    0.0653 H       1  NONAME1     0.0624
     48 H14        -0.0172    5.8622   -0.0037 H       1  NONAME1     0.0625
     49 H15         0.7263    1.8632    0.6367 H       1  NONAME1     0.0655
     50 H16         1.8305   -0.1881    0.1559 H       1  NONAME1     0.1541
     51 H17         2.4621   -4.4668   -1.2838 H       1  NONAME1     0.0842
     52 H18         2.5704   -6.8324   -0.1454 H       1  NONAME1     0.0625
     53 H19         1.5433   -9.0896   -0.1933 H       1  NONAME1     0.0633
     54 H20        -0.7989   -9.3689    0.6242 H       1  NONAME1     0.0829
     55 H21        -1.1083   -5.3953    1.5908 H       1  NONAME1     0.0836
@<TRIPOS>BOND
     1     1     2    1
     2     2     3   ar
     3     3     4   ar
     4     4     5   ar
     5     5     6    1
     6     6     7   am
     7     7     8    2
     8     7     9    1
     9     9    10   ar
    10    10    11   ar
    11    11    12   ar
    12    12    13    1
    13    13    14    2
    14    14    15    1
    15    15    16    2
    16    15    17   am
    17    17    18    1
    18    12    19   ar
    19    19    20   ar
    20     9    20   ar
    21     5    21   ar
    22    21    22   ar
    23     2    22   ar
    24    22    23    1
    25    23    24    1
    26    24    25   ar
    27    25    26   ar
    28    26    27   ar
    29    27    28    1
    30    28    29   ar
    31    29    30   ar
    32    30    31   ar
    33    31    32   ar
    34    32    33   ar
    35    28    33   ar
    36    27    34   ar
    37    24    34   ar
    38     1    35    1
    39     1    36    1
    40     1    37    1
    41     3    38    1
    42     4    39    1
    43     6    40    1
    44    10    41    1
    45    11    42    1
    46    13    43    1
    47    14    44    1
    48    17    45    1
    49    18    46    1
    50    19    47    1
    51    20    48    1
    52    21    49    1
    53    23    50    1
    54    26    51    1
    55    29    52    1
    56    30    53    1
    57    31    54    1
    58    33    55    1
