REMARK  7 active torsions:
REMARK  status: ('A' for Active; 'I' for Inactive)
REMARK    1  A    between atoms: C2_2  and  N1_3 
REMARK    2  A    between atoms: N1_3  and  C3_4 
REMARK    3  A    between atoms: C3_4  and  S2_6 
REMARK    4  A    between atoms: S2_6  and  C4_7 
REMARK    5  A    between atoms: C4_7  and  C5_8 
REMARK    6  A    between atoms: C5_8  and  C6_10 
REMARK    7  A    between atoms: C9_13  and  N2_14 
REMARK       I    between atoms: N2_14  and  C10_15 
ROOT
ATOM      1  C6  NON d   1      10.529  -7.848  -0.031  0.00  0.00     0.011 A 
ATOM      2  C7  NON d   1      11.774  -7.206  -0.050  0.00  0.00     0.017 A 
ATOM      3  C8  NON d   1      12.965  -7.948  -0.048  0.00  0.00     0.030 A 
ATOM      4  C9  NON d   1      12.938  -9.346  -0.022  0.00  0.00     0.034 A 
ATOM      5  C12 NON d   1      11.697  -9.987  -0.007  0.00  0.00     0.030 A 
ATOM      6  C13 NON d   1      10.502  -9.247  -0.013  0.00  0.00     0.017 A 
ENDROOT
BRANCH   1   7
ATOM      7  C5  NON d   1       9.281  -7.005  -0.038  0.00  0.00     0.169 C 
ATOM      8  O1  NON d   1       9.401  -5.784  -0.108  0.00  0.00    -0.291 OA
BRANCH   7   9
ATOM      9  C4  NON d   1       7.942  -7.723   0.028  0.00  0.00     0.165 C 
BRANCH   9  10
ATOM     10  S2  NON d   1       6.503  -6.601   0.158  0.00  0.00    -0.093 SA
BRANCH  10  11
ATOM     11  C3  NON d   1       5.145  -7.721   0.231  0.00  0.00     0.134 C 
ATOM     12  S1  NON d   1       5.271  -9.393   0.338  0.00  0.00    -0.053 SA
BRANCH  11  13
ATOM     13  N1  NON d   1       3.942  -7.021   0.183  0.00  0.00    -0.376 N 
ATOM     14  H6  NON d   1       4.006  -6.020   0.035  0.00  0.00     0.160 HD
BRANCH  13  15
ATOM     15  C2  NON d   1       2.667  -7.700   0.037  0.00  0.00     0.116 C 
ATOM     16  C1  NON d   1       1.334  -6.930   0.037  0.00  0.00     0.026 C 
ENDBRANCH  13  15
ENDBRANCH  11  13
ENDBRANCH  10  11
ENDBRANCH   9  10
ENDBRANCH   7   9
ENDBRANCH   1   7
BRANCH   4  17
ATOM     17  N2  NON d   1      14.178 -10.022  -0.028  0.00  0.00    -0.328 N 
ATOM     18  C10 NON d   1      14.396 -11.385   0.060  0.00  0.00     0.218 C 
ATOM     19  C11 NON d   1      15.853 -11.766  -0.047  0.00  0.00     0.117 C 
ATOM     20  O2  NON d   1      13.542 -12.251   0.222  0.00  0.00    -0.274 OA
ATOM     21  H11 NON d   1      14.998  -9.431  -0.082  0.00  0.00     0.169 HD
ENDBRANCH   4  17
TORSDOF 7
