@<TRIPOS>MOLECULE
*****
 57 58 0 0 0
SMALL
USER_CHARGES

@<TRIPOS>ATOM
      1 C1         13.3368    0.0000    0.0000 C.3     1  NONAME1    -0.0253
      2 C2         14.6705   -0.7700    0.0000 C.3     1  NONAME1     0.1068
      3 C3         15.4405    0.5637    0.0000 C.3     1  NONAME1    -0.0253
      4 C4         13.9005   -2.1037    0.0000 C.3     1  NONAME1    -0.0253
      5 O1         15.7632   -1.4412    1.1557 O.3     1  NONAME1    -0.4447
      6 C5         17.1415   -1.1509    1.5746 C.2     1  NONAME1     0.4014
      7 O2         17.3818   -0.1215    2.2114 O.2     1  NONAME1    -0.2264
      8 N1         18.3542   -2.0769    1.3425 N.am    1  NONAME1    -0.2698
      9 C6         18.6715   -3.0800    0.0000 C.3     1  NONAME1     0.1028
     10 C7         17.5734   -4.3253    0.1637 C.3     1  NONAME1    -0.0259
     11 C8         17.8181   -5.8409    0.2396 C.3     1  NONAME1    -0.0509
     12 C9         18.0632   -6.4384    1.6317 C.3     1  NONAME1    -0.0523
     13 C10        19.3995   -6.0415    2.2455 C.3     1  NONAME1    -0.0442
     14 C11        19.8316   -6.8812    3.4441 C.3     1  NONAME1    -0.0093
     15 S1         20.3364   -8.5616    2.9573 S.3     1  NONAME1    -0.1783
     16 C12        20.0052   -3.8500    0.0000 C.2     1  NONAME1     0.2377
     17 O3         20.1427   -4.7254   -0.8654 O.2     1  NONAME1    -0.2734
     18 N2         21.1152   -3.3249    0.6337 N.am    1  NONAME1    -0.2827
     19 C13        22.4020   -3.9509    0.5343 C.ar    1  NONAME1     0.0523
     20 C14        23.5738   -3.2214    0.6683 C.ar    1  NONAME1     0.0495
     21 N3         24.8292   -3.7395    0.5500 N.ar    1  NONAME1    -0.2531
     22 C15        24.9555   -5.0629    0.3034 C.ar    1  NONAME1     0.0711
     23 C16        26.2086   -5.6523    0.1632 C.ar    1  NONAME1    -0.0357
     24 C17        26.3631   -7.0276   -0.0678 C.ar    1  NONAME1    -0.0597
     25 C18        25.2455   -7.8462   -0.1628 C.ar    1  NONAME1    -0.0611
     26 C19        23.9803   -7.2812   -0.0450 C.ar    1  NONAME1    -0.0525
     27 C20        23.8380   -5.8982    0.1796 C.ar    1  NONAME1     0.0021
     28 C21        22.5673   -5.3159    0.2882 C.ar    1  NONAME1    -0.0298
     29 H1         13.4751    0.6050    0.9179 H       1  NONAME1     0.0268
     30 H2         12.0031    0.7700    0.0000 H       1  NONAME1     0.0268
     31 H3         13.4042    0.4473   -1.0116 H       1  NONAME1     0.0268
     32 H4         16.4790    0.3722   -0.3028 H       1  NONAME1     0.0268
     33 H5         15.4845    1.0586    0.9789 H       1  NONAME1     0.0268
     34 H6         15.1330    1.3018   -0.7543 H       1  NONAME1     0.0268
     35 H7         13.3808   -2.2926    0.9486 H       1  NONAME1     0.0268
     36 H8         13.1922   -2.1862   -0.8354 H       1  NONAME1     0.0268
     37 H9         14.5925   -2.9439   -0.1470 H       1  NONAME1     0.0268
     38 H10        19.1739   -1.6327    1.7308 H       1  NONAME1     0.1528
     39 H11        17.3378   -2.3100    0.0000 H       1  NONAME1     0.0596
     40 H12        16.9276   -4.1989   -0.7190 H       1  NONAME1     0.0288
     41 H13        16.9424   -4.0898    1.0333 H       1  NONAME1     0.0288
     42 H14        18.5503   -6.2055   -0.4823 H       1  NONAME1     0.0266
     43 H15        16.8763   -6.3017   -0.0978 H       1  NONAME1     0.0266
     44 H16        17.2490   -6.1554    2.3092 H       1  NONAME1     0.0266
     45 H17        18.0060   -7.5289    1.5277 H       1  NONAME1     0.0266
     46 H18        19.3440   -4.9924    2.5582 H       1  NONAME1     0.0273
     47 H19        20.1721   -6.1139    1.4850 H       1  NONAME1     0.0273
     48 H20        20.7022   -6.4092    3.9127 H       1  NONAME1     0.0374
     49 H21        19.0370   -6.9433    4.1922 H       1  NONAME1     0.0374
     50 H22        20.8406   -8.9212    4.1460 H       1  NONAME1     0.1016
     51 H23        21.0935   -2.3506    0.9029 H       1  NONAME1     0.1549
     52 H24        23.5589   -2.1502    0.8448 H       1  NONAME1     0.0849
     53 H25        27.0942   -5.0255    0.2322 H       1  NONAME1     0.0639
     54 H26        27.3589   -7.4549   -0.1692 H       1  NONAME1     0.0618
     55 H27        25.3535   -8.9144   -0.3317 H       1  NONAME1     0.0618
     56 H28        23.1015   -7.9222   -0.1275 H       1  NONAME1     0.0624
     57 H29        21.7161   -5.9729    0.1587 H       1  NONAME1     0.0643
@<TRIPOS>BOND
     1     1     2    1
     2     2     3    1
     3     2     4    1
     4     2     5    1
     5     5     6    1
     6     6     7    2
     7     6     8   am
     8     9     8    1
     9     9    10    1
    10    10    11    1
    11    11    12    1
    12    12    13    1
    13    13    14    1
    14    14    15    1
    15     9    16    1
    16    16    17    2
    17    16    18   am
    18    18    19    1
    19    19    20   ar
    20    20    21   ar
    21    21    22   ar
    22    22    23   ar
    23    23    24   ar
    24    24    25   ar
    25    25    26   ar
    26    26    27   ar
    27    22    27   ar
    28    27    28   ar
    29    19    28   ar
    30     1    29    1
    31     1    30    1
    32     1    31    1
    33     3    32    1
    34     3    33    1
    35     3    34    1
    36     4    35    1
    37     4    36    1
    38     4    37    1
    39     8    38    1
    40     9    39    1
    41    10    40    1
    42    10    41    1
    43    11    42    1
    44    11    43    1
    45    12    44    1
    46    12    45    1
    47    13    46    1
    48    13    47    1
    49    14    48    1
    50    14    49    1
    51    15    50    1
    52    18    51    1
    53    20    52    1
    54    23    53    1
    55    24    54    1
    56    25    55    1
    57    26    56    1
    58    28    57    1
