REMARK  7 active torsions:
REMARK  status: ('A' for Active; 'I' for Inactive)
REMARK    1  A    between atoms: N1_1  and  C1_2 
REMARK    2  A    between atoms: C4_5  and  C5_6 
REMARK    3  A    between atoms: C10_12  and  N2_13 
REMARK       I    between atoms: N2_13  and  C11_14 
REMARK    4  A    between atoms: C11_14  and  C12_16 
REMARK    5  A    between atoms: C15_19  and  C16_20 
REMARK    6  A    between atoms: C16_20  and  N3_21 
REMARK       I    between atoms: N3_21  and  C17_22 
REMARK    7  A    between atoms: C17_22  and  C18_24 
ROOT
ATOM      1  N2  NON d   1     -15.961  -0.497   0.018  0.00  0.00    -0.321 N 
ATOM      2  C11 NON d   1     -17.184  -1.061   0.328  0.00  0.00     0.256 C 
ATOM      3  O1  NON d   1     -17.343  -2.183   0.805  0.00  0.00    -0.267 OA
ATOM      4  H9  NON d   1     -15.911   0.459  -0.306  0.00  0.00     0.169 HD
ENDROOT
BRANCH   2   5
ATOM      5  C12 NON d   1     -18.417  -0.253   0.091  0.00  0.00     0.032 A 
ATOM      6  C13 NON d   1     -19.612  -0.976  -0.002  0.00  0.00     0.017 A 
ATOM      7  C14 NON d   1     -20.833  -0.321  -0.112  0.00  0.00     0.010 A 
ATOM      8  C15 NON d   1     -20.905   1.081  -0.123  0.00  0.00    -0.040 A 
ATOM      9  C24 NON d   1     -19.707   1.808  -0.093  0.00  0.00     0.010 A 
ATOM     10  C25 NON d   1     -18.467   1.145   0.020  0.00  0.00     0.017 A 
BRANCH   8  11
ATOM     11  C16 NON d   1     -22.299   1.657  -0.122  0.00  0.00     0.161 C 
BRANCH  11  12
ATOM     12  N3  NON d   1     -22.457   3.057   0.161  0.00  0.00    -0.356 N 
ATOM     13  C17 NON d   1     -23.639   3.734   0.290  0.00  0.00     0.222 C 
ATOM     14  O2  NON d   1     -23.574   4.862   0.785  0.00  0.00    -0.273 OA
ATOM     15  H14 NON d   1     -21.699   3.547   0.616  0.00  0.00     0.162 HD
BRANCH  13  16
ATOM     16  C18 NON d   1     -24.972   3.140  -0.225  0.00  0.00     0.078 C 
ATOM     17  C19 NON d   1     -25.397   1.828   0.458  0.00  0.00     0.014 C 
ATOM     18  C20 NON d   1     -26.776   1.340   0.017  0.00  0.00     0.001 C 
ATOM     19  C21 NON d   1     -27.847   2.395   0.226  0.00  0.00     0.000 C 
ATOM     20  C22 NON d   1     -27.469   3.692  -0.475  0.00  0.00     0.001 C 
ATOM     21  C23 NON d   1     -26.093   4.190  -0.040  0.00  0.00     0.014 C 
ENDBRANCH  13  16
ENDBRANCH  11  12
ENDBRANCH   8  11
ENDBRANCH   2   5
BRANCH   1  22
ATOM     22  C10 NON d   1     -14.710  -1.172   0.019  0.00  0.00     0.057 A 
ATOM     23  C9  NON d   1     -14.594  -2.571   0.067  0.00  0.00     0.044 A 
ATOM     24  C4  NON d   1     -13.354  -3.227  -0.049  0.00  0.00    -0.017 A 
ATOM     25  C3  NON d   1     -12.220  -2.422  -0.231  0.00  0.00     0.014 A 
ATOM     26  C2  NON d   1     -12.317  -1.024  -0.271  0.00  0.00     0.026 A 
ATOM     27  C1  NON d   1     -13.548  -0.389  -0.094  0.00  0.00     0.033 A 
BRANCH  24  28
ATOM     28  C5  NON d   1     -13.227  -4.708  -0.007  0.00  0.00     0.015 A 
ATOM     29  C6  NON d   1     -12.081  -5.488   0.084  0.00  0.00     0.020 A 
ATOM     30  C7  NON d   1     -12.345  -6.891   0.098  0.00  0.00     0.008 A 
ATOM     31  C8  NON d   1     -13.689  -7.159   0.021  0.00  0.00     0.050 A 
ATOM     32  S1  NON d   1     -14.615  -5.734  -0.083  0.00  0.00    -0.101 SA
ENDBRANCH  24  28
BRANCH  27  33
ATOM     33  N1  NON d   1     -13.625   1.023  -0.151  0.00  0.00    -0.301 NA
ATOM     34  H1  NON d   1     -12.710   1.460  -0.068  0.00  0.00     0.124 HD
ATOM     35  H2  NON d   1     -14.243   1.372   0.578  0.00  0.00     0.124 HD
ENDBRANCH  27  33
ENDBRANCH   1  22
TORSDOF 7
