REMARK  1 active torsions:
REMARK  status: ('A' for Active; 'I' for Inactive)
REMARK    1  A    between atoms: O1_1  and  C1_2 
ROOT
ATOM      1  C1  NON d   1       1.491   2.191  -0.000  0.00  0.00     0.103 A 
ATOM      2  C2  NON d   1       2.629   1.476  -0.000  0.00  0.00     0.041 A 
ATOM      3  C3  NON d   1       2.614   0.031  -0.000  0.00  0.00     0.020 A 
ATOM      4  C4  NON d   1       1.448  -0.624  -0.000  0.00  0.00     0.089 A 
ATOM      5  N1  NON d   1       0.265   0.069  -0.000  0.00  0.00    -0.355 N 
ATOM      6  C5  NON d   1       0.174   1.448  -0.000  0.00  0.00     0.134 A 
ATOM      7  S1  NON d   1      -1.354   2.141  -0.000  0.00  0.00    -0.057 SA
ATOM      8  H5  NON d   1      -0.613  -0.440  -0.000  0.00  0.00     0.166 HD
ENDROOT
BRANCH   1   9
ATOM      9  O1  NON d   1       1.485   3.572   0.000  0.00  0.00    -0.358 OA
ATOM     10  H1  NON d   1       2.402   3.887   0.000  0.00  0.00     0.217 HD
ENDBRANCH   1   9
TORSDOF 1
