REMARK  7 active torsions:
REMARK  status: ('A' for Active; 'I' for Inactive)
REMARK    1  A    between atoms: N1_2  and  C2_3 
REMARK    2  A    between atoms: N1_2  and  C22_26 
REMARK    3  A    between atoms: C2_3  and  C3_4 
REMARK    4  A    between atoms: C6_7  and  C7_8 
REMARK       I    between atoms: C7_8  and  N2_10 
REMARK    5  A    between atoms: N2_10  and  C8_11 
REMARK    6  A    between atoms: C10_13  and  C11_14 
REMARK    7  A    between atoms: C19_22  and  N3_23 
ROOT
ATOM      1  C7  NON d   1       2.941  -9.013  -0.033  0.00  0.00     0.256 C 
ATOM      2  O1  NON d   1       4.088  -9.411  -0.230  0.00  0.00    -0.267 OA
ATOM      3  N2  NON d   1       1.824  -9.825   0.048  0.00  0.00    -0.321 N 
ATOM      4  H8  NON d   1       0.917  -9.403   0.183  0.00  0.00     0.169 HD
ENDROOT
BRANCH   1   5
ATOM      5  C6  NON d   1       2.728  -7.527   0.092  0.00  0.00     0.032 A 
ATOM      6  C5  NON d   1       3.763  -6.685  -0.331  0.00  0.00     0.017 A 
ATOM      7  C4  NON d   1       3.650  -5.287  -0.242  0.00  0.00     0.010 A 
ATOM      8  C3  NON d   1       2.503  -4.668   0.290  0.00  0.00    -0.040 A 
ATOM      9  C21 NON d   1       1.504  -5.526   0.780  0.00  0.00     0.010 A 
ATOM     10  C20 NON d   1       1.594  -6.932   0.654  0.00  0.00     0.017 A 
BRANCH   8  11
ATOM     11  C2  NON d   1       2.510  -3.138   0.453  0.00  0.00     0.161 C 
BRANCH  11  12
ATOM     12  N1  NON d   1       1.334  -2.310   0.000  0.00  0.00    -0.381 N 
ATOM     13  C1  NON d   1       0.000  -3.080   0.000  0.00  0.00     0.150 C 
BRANCH  12  14
ATOM     14  C22 NON d   1       1.418  -0.926   0.127  0.00  0.00     0.032 A 
ATOM     15  C23 NON d   1       0.303  -0.111   0.360  0.00  0.00     0.046 A 
ATOM     16  C24 NON d   1       0.419   1.277   0.395  0.00  0.00     0.089 A 
ATOM     17  N4  NON d   1       1.613   1.856   0.220  0.00  0.00    -0.375 N 
ATOM     18  C25 NON d   1       2.719   1.136   0.010  0.00  0.00     0.089 A 
ATOM     19  H23 NON d   1       1.680   2.874   0.235  0.00  0.00     0.164 HD
ATOM     20  C26 NON d   1       2.640  -0.252  -0.041  0.00  0.00     0.046 A 
ENDBRANCH  12  14
ENDBRANCH  11  12
ENDBRANCH   8  11
ENDBRANCH   1   5
BRANCH   3  21
ATOM     21  C8  NON d   1       1.767 -11.249   0.032  0.00  0.00     0.057 A 
ATOM     22  C9  NON d   1       2.895 -12.086  -0.012  0.00  0.00     0.043 A 
ATOM     23  C10 NON d   1       2.810 -13.500   0.070  0.00  0.00    -0.024 A 
ATOM     24  C17 NON d   1       1.513 -14.028   0.216  0.00  0.00     0.014 A 
ATOM     25  C18 NON d   1       0.373 -13.214   0.234  0.00  0.00     0.026 A 
ATOM     26  C19 NON d   1       0.488 -11.831   0.108  0.00  0.00     0.033 A 
BRANCH  23  27
ATOM     27  C11 NON d   1       4.026 -14.384   0.022  0.00  0.00    -0.026 A 
ATOM     28  C12 NON d   1       5.337 -13.867   0.071  0.00  0.00     0.012 A 
ATOM     29  C13 NON d   1       6.472 -14.689   0.022  0.00  0.00     0.001 A 
ATOM     30  C14 NON d   1       6.335 -16.067  -0.068  0.00  0.00     0.000 A 
ATOM     31  C15 NON d   1       5.064 -16.619  -0.116  0.00  0.00     0.001 A 
ATOM     32  C16 NON d   1       3.933 -15.791  -0.078  0.00  0.00     0.012 A 
ENDBRANCH  23  27
BRANCH  26  33
ATOM     33  N3  NON d   1      -0.676 -11.025   0.086  0.00  0.00    -0.301 NA
ATOM     34  H17 NON d   1      -0.674 -10.445  -0.751  0.00  0.00     0.124 HD
ATOM     35  H18 NON d   1      -1.525 -11.586   0.107  0.00  0.00     0.124 HD
ENDBRANCH  26  33
ENDBRANCH   3  21
TORSDOF 7
