@<TRIPOS>MOLECULE
*****
 42 44 0 0 0
SMALL
USER_CHARGES

@<TRIPOS>ATOM
      1 C1          6.8676   15.8250    0.0000 C.3     1  NONAME1     0.0125
      2 C2          5.5339   15.0550    0.0000 C.2     1  NONAME1     0.2141
      3 O1          4.5469   15.7664    0.2250 O.2     1  NONAME1    -0.2758
      4 N1          5.4721   13.6837   -0.1533 N.am    1  NONAME1    -0.2857
      5 C3          4.2599   12.9172   -0.1203 C.ar    1  NONAME1     0.0334
      6 C4          4.3180   11.5133   -0.0447 C.ar    1  NONAME1    -0.0398
      7 C5          3.1410   10.7244    0.0766 C.ar    1  NONAME1    -0.0479
      8 C6          1.8853   11.3353    0.1207 C.ar    1  NONAME1     0.0371
      9 C7          0.5743   10.6568    0.3720 C.2     1  NONAME1     0.2483
     10 O2         -0.2757   11.3191    0.9679 O.2     1  NONAME1    -0.2699
     11 N2          0.3856    9.3547   -0.0618 N.am    1  NONAME1    -0.2799
     12 C8         -0.8624    8.6395   -0.0624 C.ar    1  NONAME1     0.0551
     13 C9         -0.7807    7.2260   -0.0615 C.ar    1  NONAME1    -0.0309
     14 C10        -1.9292    6.4014   -0.0588 C.ar    1  NONAME1    -0.0155
     15 C11        -1.8222    4.9276   -0.0183 C.ar    1  NONAME1    -0.0108
     16 C12        -0.6250    4.1288   -0.0038 C.ar    1  NONAME1    -0.0470
     17 C13        -0.8710    2.7727    0.0370 C.ar    1  NONAME1    -0.0237
     18 S1         -2.5378    2.4261    0.0614 S.2     1  NONAME1    -0.1045
     19 C14        -2.9297    4.0913    0.0213 C.ar    1  NONAME1    -0.0166
     20 C15        -3.1763    7.0298   -0.1054 C.ar    1  NONAME1    -0.0522
     21 C16        -3.2774    8.4189   -0.1481 C.ar    1  NONAME1    -0.0387
     22 C17        -2.1438    9.2409   -0.0891 C.ar    1  NONAME1     0.0461
     23 N3         -2.3613   10.6121   -0.3513 N.pl3   1  NONAME1    -0.3565
     24 C18         1.8291   12.7273   -0.0082 C.ar    1  NONAME1    -0.0479
     25 C19         2.9902   13.4976   -0.1366 C.ar    1  NONAME1    -0.0398
     26 H1          7.4856   14.9624   -0.3266 H       1  NONAME1     0.0323
     27 H2          8.2013   16.5950    0.0000 H       1  NONAME1     0.0323
     28 H3          6.6164   16.4129   -0.9102 H       1  NONAME1     0.0323
     29 H4          6.3404   13.1664   -0.1739 H       1  NONAME1     0.1548
     30 H5          5.2813   11.0076   -0.0390 H       1  NONAME1     0.0636
     31 H6          3.2436    9.6487    0.1861 H       1  NONAME1     0.0626
     32 H7          1.2006    8.8238   -0.3302 H       1  NONAME1     0.1552
     33 H8          0.2013    6.7657   -0.0346 H       1  NONAME1     0.0643
     34 H9          0.3834    4.5203   -0.0240 H       1  NONAME1     0.0629
     35 H10        -0.1493    1.9672    0.0536 H       1  NONAME1     0.0693
     36 H11        -3.9788    4.3469    0.0291 H       1  NONAME1     0.0699
     37 H12        -4.1059    6.4701   -0.1322 H       1  NONAME1     0.0624
     38 H13        -4.2660    8.8642   -0.2388 H       1  NONAME1     0.0637
     39 H14        -1.6284   11.1709    0.0986 H       1  NONAME1     0.1424
     40 H15        -3.2643   10.9377   -0.0240 H       1  NONAME1     0.1424
     41 H16         0.8690   13.2419    0.0124 H       1  NONAME1     0.0626
     42 H17         2.8382   14.5673   -0.2329 H       1  NONAME1     0.0636
@<TRIPOS>BOND
     1     1     2    1
     2     2     3    2
     3     2     4   am
     4     4     5    1
     5     5     6   ar
     6     6     7   ar
     7     7     8   ar
     8     8     9    1
     9     9    10    2
    10     9    11   am
    11    11    12    1
    12    12    13   ar
    13    13    14   ar
    14    14    15    1
    15    15    16   ar
    16    16    17   ar
    17    17    18   ar
    18    18    19   ar
    19    15    19   ar
    20    14    20   ar
    21    20    21   ar
    22    21    22   ar
    23    12    22   ar
    24    22    23    1
    25     8    24   ar
    26    24    25   ar
    27     5    25   ar
    28     1    26    1
    29     1    27    1
    30     1    28    1
    31     4    29    1
    32     6    30    1
    33     7    31    1
    34    11    32    1
    35    13    33    1
    36    16    34    1
    37    17    35    1
    38    19    36    1
    39    20    37    1
    40    21    38    1
    41    23    39    1
    42    23    40    1
    43    24    41    1
    44    25    42    1
