@<TRIPOS>MOLECULE
*****
 64 68 0 0 0
SMALL
USER_CHARGES

@<TRIPOS>ATOM
      1 N1         18.9556    3.3917   -0.0061 N.pl3   1  NONAME1    -0.3565
      2 C1         19.0451    1.9800    0.0031 C.ar    1  NONAME1     0.0461
      3 C2         20.2983    1.3723    0.1493 C.ar    1  NONAME1    -0.0386
      4 C3         20.4234   -0.0219    0.1461 C.ar    1  NONAME1    -0.0517
      5 C4         19.3003   -0.8521    0.0283 C.ar    1  NONAME1    -0.0094
      6 C5         19.4587   -2.3334    0.0091 C.ar    1  NONAME1     0.0194
      7 C6         20.6224   -3.0931   -0.0107 C.ar    1  NONAME1    -0.0469
      8 C7         20.3862   -4.5002   -0.0249 C.ar    1  NONAME1    -0.0541
      9 C8         19.0449   -4.7943   -0.0194 C.ar    1  NONAME1    -0.0237
     10 S1         18.0889   -3.3861    0.0084 S.2     1  NONAME1    -0.0967
     11 C9         18.0411   -0.2222   -0.0597 C.ar    1  NONAME1    -0.0305
     12 C10        17.8901    1.1752   -0.0546 C.ar    1  NONAME1     0.0551
     13 N2         16.6228    1.8338   -0.0790 N.am    1  NONAME1    -0.2799
     14 C11        15.3836    1.2353   -0.2423 C.2     1  NONAME1     0.2483
     15 O1         15.1976    0.0342   -0.4247 O.2     1  NONAME1    -0.2699
     16 C12        14.1519    2.0919   -0.2218 C.ar    1  NONAME1     0.0370
     17 C13        12.9470    1.4803   -0.6132 C.ar    1  NONAME1    -0.0492
     18 C14        11.7239    2.1668   -0.6223 C.ar    1  NONAME1    -0.0528
     19 C15        11.6374    3.4898   -0.1862 C.ar    1  NONAME1    -0.0029
     20 C16        10.3605    4.3096   -0.1492 C.3     1  NONAME1    -0.0055
     21 N3          8.9645    3.7086    0.0918 N.4     1  NONAME1     0.2434
     22 C17         8.7399    3.1424    1.4861 C.3     1  NONAME1    -0.0075
     23 C18         9.4150    1.7941    1.7514 C.3     1  NONAME1     0.0841
     24 O2         10.7242    2.0207    2.2490 O.3     1  NONAME1    -0.3898
     25 C19         8.3735    2.9825   -1.0995 C.3     1  NONAME1    -0.0054
     26 C20         6.9085    2.5897   -1.0503 C.ar    1  NONAME1     0.0008
     27 C21         6.4618    1.5281   -0.2230 C.ar    1  NONAME1    -0.0499
     28 C22         5.1434    1.0596   -0.2683 C.ar    1  NONAME1    -0.0157
     29 C23         4.2917    1.6272   -1.1856 C.ar    1  NONAME1     0.1663
     30 C24         4.7018    2.6489   -2.0049 C.ar    1  NONAME1     0.1667
     31 C25         5.9869    3.1650   -1.9486 C.ar    1  NONAME1    -0.0079
     32 O3          3.7270    3.0295   -2.8735 O.3     1  NONAME1    -0.4526
     33 C26         2.6886    2.0708   -2.5615 C.3     1  NONAME1     0.2332
     34 O4          3.0141    1.2441   -1.4249 O.3     1  NONAME1    -0.4526
     35 C27        12.8550    4.1145    0.1745 C.ar    1  NONAME1    -0.0528
     36 C28        14.0936    3.4357    0.1594 C.ar    1  NONAME1    -0.0492
     37 H1         19.8703    3.8353   -0.0565 H       1  NONAME1     0.1424
     38 H2         18.3760    3.7052   -0.7820 H       1  NONAME1     0.1424
     39 H3         21.1979    1.9756    0.2417 H       1  NONAME1     0.0637
     40 H4         21.4213   -0.4398    0.2388 H       1  NONAME1     0.0624
     41 H5         21.6182   -2.6700   -0.0175 H       1  NONAME1     0.0629
     42 H6         21.1619   -5.2567   -0.0403 H       1  NONAME1     0.0623
     43 H7         18.5778   -5.7693   -0.0298 H       1  NONAME1     0.0693
     44 H8         17.1594   -0.8476   -0.1153 H       1  NONAME1     0.0643
     45 H9         16.6920    2.8328    0.0652 H       1  NONAME1     0.1552
     46 H10        12.9551    0.4315   -0.9210 H       1  NONAME1     0.0625
     47 H11        10.8668    1.5986   -0.9503 H       1  NONAME1     0.0622
     48 H12        10.4597    5.0688    0.6371 H       1  NONAME1     0.0867
     49 H13        10.2849    4.8530   -1.0989 H       1  NONAME1     0.0867
     50 H14         8.3811    4.5527    0.1234 H       1  NONAME1     0.2041
     51 H15         7.6572    3.0716    1.6181 H       1  NONAME1     0.0837
     52 H16         9.1021    3.9038    2.1868 H       1  NONAME1     0.0837
     53 H17         8.8588    1.2468    2.5192 H       1  NONAME1     0.0610
     54 H18         9.4641    1.1658    0.8591 H       1  NONAME1     0.0610
     55 H19        11.2272    1.1850    2.1907 H       1  NONAME1     0.2096
     56 H20         8.5230    3.6602   -1.9503 H       1  NONAME1     0.0867
     57 H21         8.9603    2.0874   -1.2939 H       1  NONAME1     0.0867
     58 H22         7.1410    1.0045    0.4425 H       1  NONAME1     0.0623
     59 H23         4.8079    0.2411    0.3614 H       1  NONAME1     0.0655
     60 H24         6.2611    3.9530   -2.6458 H       1  NONAME1     0.0660
     61 H25         2.5332    1.4221   -3.4331 H       1  NONAME1     0.1166
     62 H26         1.7572    2.6086   -2.3532 H       1  NONAME1     0.1166
     63 H27        12.8639    5.1593    0.4831 H       1  NONAME1     0.0622
     64 H28        14.9851    3.9740    0.4665 H       1  NONAME1     0.0625
@<TRIPOS>BOND
     1     1     2    1
     2     2     3   ar
     3     3     4   ar
     4     4     5   ar
     5     5     6    1
     6     6     7   ar
     7     7     8   ar
     8     8     9   ar
     9     9    10   ar
    10     6    10   ar
    11     5    11   ar
    12    11    12   ar
    13     2    12   ar
    14    12    13    1
    15    13    14   am
    16    14    15    2
    17    14    16    1
    18    16    17   ar
    19    17    18   ar
    20    18    19   ar
    21    19    20    1
    22    20    21    1
    23    21    22    1
    24    22    23    1
    25    23    24    1
    26    21    25    1
    27    25    26    1
    28    26    27   ar
    29    27    28   ar
    30    28    29   ar
    31    29    30   ar
    32    30    31   ar
    33    26    31   ar
    34    30    32    1
    35    32    33    1
    36    33    34    1
    37    29    34    1
    38    19    35   ar
    39    35    36   ar
    40    16    36   ar
    41     1    37    1
    42     1    38    1
    43     3    39    1
    44     4    40    1
    45     7    41    1
    46     8    42    1
    47     9    43    1
    48    11    44    1
    49    13    45    1
    50    17    46    1
    51    18    47    1
    52    20    48    1
    53    20    49    1
    54    21    50    1
    55    22    51    1
    56    22    52    1
    57    23    53    1
    58    23    54    1
    59    24    55    1
    60    25    56    1
    61    25    57    1
    62    27    58    1
    63    28    59    1
    64    31    60    1
    65    33    61    1
    66    33    62    1
    67    35    63    1
    68    36    64    1
