REMARK  13 active torsions:
REMARK  status: ('A' for Active; 'I' for Inactive)
REMARK    1  A    between atoms: O1_2  and  C2_3 
REMARK    2  A    between atoms: C8_10  and  C9_11 
REMARK    3  A    between atoms: C9_11  and  N2_12 
REMARK    4  A    between atoms: C10_13  and  N2_12 
REMARK    5  A    between atoms: C10_13  and  C11_14 
REMARK    6  A    between atoms: C10_13  and  C18_22 
REMARK    7  A    between atoms: C11_14  and  C12_15 
REMARK    8  A    between atoms: C12_15  and  C13_16 
REMARK    9  A    between atoms: C13_16  and  C14_17 
REMARK   10  A    between atoms: C14_17  and  C15_18 
REMARK   11  A    between atoms: C15_18  and  C16_19 
REMARK       I    between atoms: C18_22  and  N3_24 
REMARK   12  A    between atoms: N3_24  and  C19_25 
REMARK   13  A    between atoms: C23_29  and  C24_30 
ROOT
ATOM      1  C10 NON d   1      21.363   0.339   0.000  0.00  0.00     0.277 C 
ENDROOT
BRANCH   1   2
ATOM      2  N2  NON d   1      22.645   1.218  -0.028  0.00  0.00    -0.058 N 
ATOM      3  H12 NON d   1      23.438   0.545  -0.087  0.00  0.00     0.278 HD
ATOM      4  H13 NON d   1      22.695   1.755  -0.899  0.00  0.00     0.278 HD
BRANCH   2   5
ATOM      5  C9  NON d   1      22.929   2.105   1.142  0.00  0.00     0.274 C 
BRANCH   5   6
ATOM      6  C8  NON d   1      23.906   3.242   1.024  0.00  0.00     0.002 A 
ATOM      7  C6  NON d   1      24.699   3.677  -0.032  0.00  0.00     0.014 A 
ATOM      8  N1  NON d   1      25.333   4.841   0.366  0.00  0.00    -0.359 N 
ATOM      9  C7  NON d   1      24.948   3.170  -1.406  0.00  0.00     0.068 C 
ATOM     10  C5  NON d   1      24.905   5.234   1.609  0.00  0.00     0.043 A 
ATOM     11  H6  NON d   1      25.973   5.383  -0.200  0.00  0.00     0.166 HD
ATOM     12  C4  NON d   1      25.189   6.401   2.329  0.00  0.00     0.033 A 
ATOM     13  C31 NON d   1      24.066   4.231   2.079  0.00  0.00     0.003 A 
ATOM     14  C3  NON d   1      24.581   6.560   3.585  0.00  0.00     0.039 A 
ATOM     15  C2  NON d   1      23.757   5.570   4.112  0.00  0.00     0.069 A 
ATOM     16  C32 NON d   1      23.520   4.393   3.373  0.00  0.00     0.051 A 
BRANCH  15  17
ATOM     17  O1  NON d   1      23.119   5.617   5.324  0.00  0.00    -0.356 OA
ATOM     18  C1  NON d   1      23.135   6.869   6.011  0.00  0.00     0.210 C 
ENDBRANCH  15  17
ENDBRANCH   5   6
ENDBRANCH   2   5
ENDBRANCH   1   2
BRANCH   1  19
ATOM     19  C11 NON d   1      19.790   0.399   0.008  0.00  0.00     0.043 C 
BRANCH  19  20
ATOM     20  C12 NON d   1      19.140   0.906   1.327  0.00  0.00     0.002 C 
BRANCH  20  21
ATOM     21  C13 NON d   1      18.911   2.431   1.392  0.00  0.00     0.000 C 
BRANCH  21  22
ATOM     22  C14 NON d   1      19.669   3.146   2.526  0.00  0.00     0.007 C 
BRANCH  22  23
ATOM     23  C15 NON d   1      20.055   4.582   2.132  0.00  0.00     0.077 C 
BRANCH  23  24
ATOM     24  C16 NON d   1      19.837   5.688   3.149  0.00  0.00     0.123 C 
ATOM     25  C17 NON d   1      19.575   5.342   4.586  0.00  0.00     0.091 C 
ATOM     26  O2  NON d   1      19.898   6.865   2.788  0.00  0.00    -0.298 OA
ENDBRANCH  23  24
ENDBRANCH  22  23
ENDBRANCH  21  22
ENDBRANCH  20  21
ENDBRANCH  19  20
ENDBRANCH   1  19
BRANCH   1  27
ATOM     27  C18 NON d   1      21.867  -1.116   0.000  0.00  0.00     0.253 C 
ATOM     28  O3  NON d   1      23.106  -1.173  -0.123  0.00  0.00    -0.271 OA
ATOM     29  N3  NON d   1      21.083  -2.240   0.113  0.00  0.00    -0.325 N 
ATOM     30  H28 NON d   1      20.079  -2.175   0.201  0.00  0.00     0.169 HD
BRANCH  29  31
ATOM     31  C19 NON d   1      21.545  -3.598   0.082  0.00  0.00     0.035 A 
ATOM     32  C20 NON d   1      22.892  -3.954   0.045  0.00  0.00     0.029 A 
ATOM     33  C21 NON d   1      23.270  -5.290   0.012  0.00  0.00     0.003 A 
ATOM     34  C22 NON d   1      22.303  -6.293   0.015  0.00  0.00     0.012 A 
ATOM     35  C23 NON d   1      20.925  -6.015   0.059  0.00  0.00    -0.024 A 
ATOM     36  C30 NON d   1      20.582  -4.636   0.094  0.00  0.00     0.042 A 
BRANCH  35  37
ATOM     37  C24 NON d   1      19.909  -7.127   0.058  0.00  0.00    -0.026 A 
ATOM     38  C25 NON d   1      20.285  -8.490   0.065  0.00  0.00     0.012 A 
ATOM     39  C26 NON d   1      19.352  -9.537   0.066  0.00  0.00     0.001 A 
ATOM     40  C27 NON d   1      17.996  -9.257   0.065  0.00  0.00     0.000 A 
ATOM     41  C28 NON d   1      17.580  -7.932   0.063  0.00  0.00     0.001 A 
ATOM     42  C29 NON d   1      18.520  -6.888   0.060  0.00  0.00     0.012 A 
ENDBRANCH  35  37
ENDBRANCH  29  31
ENDBRANCH   1  27
TORSDOF 13
