@<TRIPOS>MOLECULE
*****
 58 61 0 0 0
SMALL
USER_CHARGES

@<TRIPOS>ATOM
      1 N1        -13.6249    1.0229   -0.1511 N.pl3   1  NONAME1    -0.3565
      2 C1        -13.5479   -0.3886   -0.0938 C.ar    1  NONAME1     0.0461
      3 C2        -12.3168   -1.0245   -0.2707 C.ar    1  NONAME1    -0.0386
      4 C3        -12.2202   -2.4217   -0.2308 C.ar    1  NONAME1    -0.0517
      5 C4        -13.3539   -3.2273   -0.0492 C.ar    1  NONAME1    -0.0094
      6 C5        -13.2271   -4.7085   -0.0073 C.ar    1  NONAME1     0.0194
      7 C6        -12.0810   -5.4878    0.0835 C.ar    1  NONAME1    -0.0469
      8 C7        -12.3445   -6.8907    0.0980 C.ar    1  NONAME1    -0.0541
      9 C8        -13.6887   -7.1594    0.0215 C.ar    1  NONAME1    -0.0237
     10 S1        -14.6152   -5.7339   -0.0828 S.2     1  NONAME1    -0.0967
     11 C9        -14.5937   -2.5714    0.0672 C.ar    1  NONAME1    -0.0305
     12 C10       -14.7103   -1.1718    0.0193 C.ar    1  NONAME1     0.0551
     13 N2        -15.9609   -0.4974    0.0178 N.am    1  NONAME1    -0.2799
     14 C11       -17.1837   -1.0608    0.3275 C.2     1  NONAME1     0.2483
     15 O1        -17.3427   -2.1831    0.8049 O.2     1  NONAME1    -0.2699
     16 C12       -18.4170   -0.2531    0.0910 C.ar    1  NONAME1     0.0370
     17 C13       -19.6119   -0.9764   -0.0017 C.ar    1  NONAME1    -0.0493
     18 C14       -20.8327   -0.3208   -0.1122 C.ar    1  NONAME1    -0.0564
     19 C15       -20.9051    1.0807   -0.1235 C.ar    1  NONAME1    -0.0303
     20 C16       -22.2987    1.6572   -0.1217 C.3     1  NONAME1     0.0368
     21 N3        -22.4573    3.0571    0.1605 N.am    1  NONAME1    -0.3110
     22 C17       -23.6393    3.7339    0.2900 C.2     1  NONAME1     0.2164
     23 O2        -23.5737    4.8619    0.7846 O.2     1  NONAME1    -0.2755
     24 C18       -24.9722    3.1396   -0.2248 C.3     1  NONAME1     0.0356
     25 C19       -25.3973    1.8281    0.4578 C.3     1  NONAME1    -0.0419
     26 C20       -26.7757    1.3397    0.0171 C.3     1  NONAME1    -0.0524
     27 C21       -27.8466    2.3949    0.2261 C.3     1  NONAME1    -0.0530
     28 C22       -27.4693    3.6919   -0.4755 C.3     1  NONAME1    -0.0524
     29 C23       -26.0929    4.1900   -0.0402 C.3     1  NONAME1    -0.0419
     30 C24       -19.7074    1.8075   -0.0934 C.ar    1  NONAME1    -0.0564
     31 C25       -18.4673    1.1447    0.0202 C.ar    1  NONAME1    -0.0493
     32 H1        -12.7102    1.4601   -0.0680 H       1  NONAME1     0.1424
     33 H2        -14.2435    1.3717    0.5781 H       1  NONAME1     0.1424
     34 H3        -11.4114   -0.4427   -0.4189 H       1  NONAME1     0.0637
     35 H4        -11.2361   -2.8651   -0.3553 H       1  NONAME1     0.0624
     36 H5        -11.0807   -5.0802    0.1443 H       1  NONAME1     0.0629
     37 H6        -11.5850   -7.6599    0.1656 H       1  NONAME1     0.0623
     38 H7        -14.1748   -8.1254    0.0194 H       1  NONAME1     0.0693
     39 H8        -15.4907   -3.1724    0.1584 H       1  NONAME1     0.0643
     40 H9        -15.9107    0.4591   -0.3061 H       1  NONAME1     0.1552
     41 H10       -19.6025   -2.0648    0.0422 H       1  NONAME1     0.0625
     42 H11       -21.7410   -0.9214   -0.1499 H       1  NONAME1     0.0621
     43 H12       -22.8129    1.1462    0.6978 H       1  NONAME1     0.0512
     44 H13       -22.7977    1.4332   -1.0703 H       1  NONAME1     0.0512
     45 H14       -21.6988    3.5473    0.6161 H       1  NONAME1     0.1490
     46 H15       -24.8467    2.9603   -1.3007 H       1  NONAME1     0.0394
     47 H16       -25.3733    1.9516    1.5476 H       1  NONAME1     0.0272
     48 H17       -24.7150    1.0140    0.2176 H       1  NONAME1     0.0272
     49 H18       -26.7379    1.0613   -1.0439 H       1  NONAME1     0.0265
     50 H19       -27.0366    0.4311    0.5723 H       1  NONAME1     0.0265
     51 H20       -28.8059    2.0291   -0.1565 H       1  NONAME1     0.0265
     52 H21       -27.9781    2.5769    1.3002 H       1  NONAME1     0.0265
     53 H22       -27.4762    3.5383   -1.5607 H       1  NONAME1     0.0265
     54 H23       -28.2234    4.4563   -0.2552 H       1  NONAME1     0.0265
     55 H24       -25.8490    5.0994   -0.6029 H       1  NONAME1     0.0272
     56 H25       -26.1478    4.4851    1.0166 H       1  NONAME1     0.0272
     57 H26       -19.7144    2.8948   -0.1281 H       1  NONAME1     0.0621
     58 H27       -17.5674    1.7468    0.0958 H       1  NONAME1     0.0625
@<TRIPOS>BOND
     1     1     2    1
     2     2     3   ar
     3     3     4   ar
     4     4     5   ar
     5     5     6    1
     6     6     7   ar
     7     7     8   ar
     8     8     9   ar
     9     9    10   ar
    10     6    10   ar
    11     5    11   ar
    12    11    12   ar
    13     2    12   ar
    14    12    13    1
    15    13    14   am
    16    14    15    2
    17    14    16    1
    18    16    17   ar
    19    17    18   ar
    20    18    19   ar
    21    19    20    1
    22    20    21    1
    23    21    22   am
    24    22    23    2
    25    22    24    1
    26    24    25    1
    27    25    26    1
    28    26    27    1
    29    27    28    1
    30    28    29    1
    31    24    29    1
    32    19    30   ar
    33    30    31   ar
    34    16    31   ar
    35     1    32    1
    36     1    33    1
    37     3    34    1
    38     4    35    1
    39     7    36    1
    40     8    37    1
    41     9    38    1
    42    11    39    1
    43    13    40    1
    44    17    41    1
    45    18    42    1
    46    20    43    1
    47    20    44    1
    48    21    45    1
    49    24    46    1
    50    25    47    1
    51    25    48    1
    52    26    49    1
    53    26    50    1
    54    27    51    1
    55    27    52    1
    56    28    53    1
    57    28    54    1
    58    29    55    1
    59    29    56    1
    60    30    57    1
    61    31    58    1
