REMARK  8 active torsions:
REMARK  status: ('A' for Active; 'I' for Inactive)
REMARK    1  A    between atoms: C4_4  and  C2_2 
REMARK    2  A    between atoms: C8_10  and  C9_11 
REMARK    3  A    between atoms: C9_11  and  C10_12 
REMARK    4  A    between atoms: C11_13  and  C12_14 
REMARK    5  A    between atoms: C12_14  and  C13_15 
REMARK    6  A    between atoms: C13_15  and  C14_16 
REMARK    7  A    between atoms: C16_22  and  C17_23 
REMARK    8  A    between atoms: C17_23  and  C18_24 
ROOT
ATOM      1  C4  NON d   1       5.997   7.439   0.309  0.00  0.00     0.158 C 
ATOM      2  N1  NON d   1       7.297   8.093   0.045  0.00  0.00    -0.249 NA
ATOM      3  C5  NON d   1       8.434   7.581   0.613  0.00  0.00     0.203 C 
ATOM      4  O1  NON d   1       8.552   7.606   1.837  0.00  0.00    -0.279 OA
ATOM      5  C6  NON d   1       9.575   7.292  -0.358  0.00  0.00     0.091 C 
ATOM      6  C7  NON d   1       9.068   6.956  -1.762  0.00  0.00     0.021 C 
ATOM      7  C8  NON d   1      10.589   6.282   0.277  0.00  0.00     0.100 C 
ATOM      8  N2  NON d   1      10.227   4.857   0.208  0.00  0.00    -0.354 N 
ATOM      9  C15 NON d   1      10.054   4.097  -0.919  0.00  0.00     0.236 C 
ATOM     10  O4  NON d   1      10.335   4.502  -2.047  0.00  0.00    -0.272 OA
ATOM     11  C16 NON d   1       9.575   2.641  -0.669  0.00  0.00     0.159 C 
ATOM     12  N3  NON d   1       8.573   2.626   0.450  0.00  0.00    -0.247 NA
ATOM     13  C24 NON d   1       7.286   2.978   0.075  0.00  0.00     0.220 C 
ATOM     14  O5  NON d   1       6.736   2.392  -0.863  0.00  0.00    -0.278 OA
ATOM     15  C25 NON d   1       6.523   4.078   0.877  0.00  0.00     0.166 C 
ATOM     16  C26 NON d   1       7.341   4.776   1.930  0.00  0.00     0.042 C 
ATOM     17  N4  NON d   1       5.877   4.893  -0.173  0.00  0.00    -0.347 N 
ATOM     18  C27 NON d   1       5.822   6.180  -0.592  0.00  0.00     0.236 C 
ATOM     19  O6  NON d   1       5.580   6.313  -1.801  0.00  0.00    -0.272 OA
ATOM     20  H9  NON d   1       7.247   9.015   0.454  0.00  0.00     0.131 HD
ATOM     21  H23 NON d   1      10.174   4.364   1.090  0.00  0.00     0.162 HD
ATOM     22  H32 NON d   1       8.510   1.662   0.761  0.00  0.00     0.131 HD
ATOM     23  H37 NON d   1       5.643   4.309  -0.977  0.00  0.00     0.163 HD
ENDROOT
BRANCH   7  24
ATOM     24  C9  NON d   1      12.059   6.593  -0.121  0.00  0.00     0.053 C 
BRANCH  24  25
ATOM     25  C10 NON d   1      12.577   7.762   0.694  0.00  0.00    -0.029 C 
ATOM     26  C11 NON d   1      13.776   8.362   0.623  0.00  0.00    -0.030 C 
BRANCH  26  27
ATOM     27  C12 NON d   1      14.901   8.048  -0.319  0.00  0.00     0.037 C 
BRANCH  27  28
ATOM     28  C13 NON d   1      16.024   9.084  -0.237  0.00  0.00     0.117 C 
BRANCH  28  29
ATOM     29  C14 NON d   1      17.002   8.981   0.938  0.00  0.00     0.172 C 
ATOM     30  O2  NON d   1      17.767   9.982   1.059  0.00  0.00    -0.648 OA
ATOM     31  O3  NON d   1      16.956   7.931   1.633  0.00  0.00    -0.648 OA
ENDBRANCH  28  29
ENDBRANCH  27  28
ENDBRANCH  26  27
ENDBRANCH  24  25
ENDBRANCH   7  24
BRANCH  11  32
ATOM     32  C17 NON d   1      10.784   1.723  -0.379  0.00  0.00     0.068 C 
BRANCH  32  33
ATOM     33  C18 NON d   1      11.877   1.646  -1.432  0.00  0.00    -0.056 A 
ATOM     34  C19 NON d   1      13.147   1.175  -1.064  0.00  0.00     0.007 A 
ATOM     35  C20 NON d   1      14.210   1.188  -1.973  0.00  0.00     0.001 A 
ATOM     36  C21 NON d   1      14.023   1.676  -3.264  0.00  0.00     0.000 A 
ATOM     37  C22 NON d   1      12.760   2.095  -3.661  0.00  0.00     0.001 A 
ATOM     38  C23 NON d   1      11.689   2.040  -2.765  0.00  0.00     0.007 A 
ENDBRANCH  32  33
ENDBRANCH  11  32
BRANCH   1  39
ATOM     39  C2  NON d   1       4.838   8.437  -0.073  0.00  0.00     0.004 C 
ATOM     40  C1  NON d   1       3.494   7.948   0.476  0.00  0.00     0.011 C 
ATOM     41  C3  NON d   1       5.066   9.892   0.367  0.00  0.00     0.011 C 
ENDBRANCH   1  39
TORSDOF 8
