@<TRIPOS>MOLECULE
*****
 45 46 0 0 0
SMALL
USER_CHARGES

@<TRIPOS>ATOM
      1 C1         14.3952  -11.7645    2.5140 C.3     1  NONAME1    -0.0558
      2 C2         13.4591  -10.5694    2.4799 C.3     1  NONAME1    -0.0036
      3 S1         13.6975   -9.5516    1.0038 S.3     1  NONAME1    -0.1113
      4 C3         15.1271   -8.5501    1.3152 C.2     1  NONAME1     0.0854
      5 S2         15.7380   -8.1783    2.8303 S.2     1  NONAME1    -0.0372
      6 S3         15.6562   -7.8264   -0.2144 S.3     1  NONAME1    -0.1030
      7 C4         17.1983   -6.9607    0.1574 C.3     1  NONAME1     0.0628
      8 C5         18.4074   -7.8800    0.3295 C.2     1  NONAME1     0.1798
      9 O1         18.2690   -9.0863    0.5424 O.2     1  NONAME1    -0.2906
     10 C6         19.7148   -7.2235    0.2376 C.ar    1  NONAME1     0.0556
     11 C7         20.0302   -5.8978   -0.0026 C.ar    1  NONAME1    -0.0438
     12 C8         21.4357   -5.6798   -0.1174 C.ar    1  NONAME1    -0.0504
     13 C9         22.1698   -6.8410    0.0501 C.ar    1  NONAME1    -0.0008
     14 C10        23.6724   -6.9630   -0.0151 C.3     1  NONAME1     0.0557
     15 C11        24.1952   -8.3151   -0.4915 C.2     1  NONAME1     0.2220
     16 O2         23.5849   -9.0381   -1.2737 O.2     1  NONAME1    -0.2751
     17 N1         25.4699   -8.5821    0.0002 N.am    1  NONAME1    -0.2852
     18 C12        26.1041   -9.8404   -0.0144 C.ar    1  NONAME1     0.0336
     19 C13        27.4896   -9.8863    0.1589 C.ar    1  NONAME1    -0.0370
     20 C14        28.1679  -11.1144    0.1804 C.ar    1  NONAME1    -0.0182
     21 C15        27.4577  -12.3066    0.0539 C.ar    1  NONAME1     0.1202
     22 O3         27.9890  -13.5654    0.0597 O.3     1  NONAME1    -0.4951
     23 C16        29.3993  -13.6657   -0.0918 C.3     1  NONAME1     0.0788
     24 C17        26.0688  -12.2608   -0.0791 C.ar    1  NONAME1    -0.0182
     25 C18        25.3964  -11.0370   -0.1247 C.ar    1  NONAME1    -0.0370
     26 S4         21.1431   -8.1481    0.4584 S.2     1  NONAME1    -0.0898
     27 H1         14.1050  -12.4348    3.3306 H       1  NONAME1     0.0238
     28 H2         15.4329  -11.4655    2.6861 H       1  NONAME1     0.0238
     29 H3         14.3478  -12.3427    1.5850 H       1  NONAME1     0.0238
     30 H4         13.5229   -9.9842    3.4006 H       1  NONAME1     0.0377
     31 H5         12.4300  -10.9433    2.4316 H       1  NONAME1     0.0377
     32 H6         17.0995   -6.3036    1.0266 H       1  NONAME1     0.0461
     33 H7         17.3768   -6.3238   -0.7158 H       1  NONAME1     0.0461
     34 H8         19.3013   -5.1065   -0.1272 H       1  NONAME1     0.0630
     35 H9         21.8835   -4.7165   -0.3274 H       1  NONAME1     0.0626
     36 H10        24.0709   -6.2090   -0.7072 H       1  NONAME1     0.0412
     37 H11        24.0772   -6.7450    0.9802 H       1  NONAME1     0.0412
     38 H12        26.0363   -7.7932    0.2842 H       1  NONAME1     0.1548
     39 H13        28.0706   -8.9710    0.2554 H       1  NONAME1     0.0637
     40 H14        29.2455  -11.1050    0.3046 H       1  NONAME1     0.0655
     41 H15        29.6403  -14.7181   -0.2712 H       1  NONAME1     0.0660
     42 H16        29.9096  -13.3549    0.8250 H       1  NONAME1     0.0660
     43 H17        29.7549  -13.0943   -0.9557 H       1  NONAME1     0.0660
     44 H18        25.5014  -13.1851   -0.1515 H       1  NONAME1     0.0655
     45 H19        24.3132  -11.0503   -0.2186 H       1  NONAME1     0.0637
@<TRIPOS>BOND
     1     1     2    1
     2     2     3    1
     3     3     4    1
     4     4     5    2
     5     4     6    1
     6     6     7    1
     7     7     8    1
     8     8     9    2
     9     8    10    1
    10    10    11   ar
    11    11    12   ar
    12    12    13   ar
    13    13    14    1
    14    14    15    1
    15    15    16    2
    16    15    17   am
    17    17    18    1
    18    18    19   ar
    19    19    20   ar
    20    20    21   ar
    21    21    22    1
    22    22    23    1
    23    21    24   ar
    24    24    25   ar
    25    18    25   ar
    26    13    26   ar
    27    10    26   ar
    28     1    27    1
    29     1    28    1
    30     1    29    1
    31     2    30    1
    32     2    31    1
    33     7    32    1
    34     7    33    1
    35    11    34    1
    36    12    35    1
    37    14    36    1
    38    14    37    1
    39    17    38    1
    40    19    39    1
    41    20    40    1
    42    23    41    1
    43    23    42    1
    44    23    43    1
    45    24    44    1
    46    25    45    1
