REMARK  7 active torsions:
REMARK  status: ('A' for Active; 'I' for Inactive)
REMARK    1  A    between atoms: C2_2  and  N1_3 
REMARK    2  A    between atoms: N1_3  and  C3_4 
REMARK    3  A    between atoms: C3_4  and  S2_6 
REMARK    4  A    between atoms: S2_6  and  C4_7 
REMARK    5  A    between atoms: C4_7  and  C5_8 
REMARK    6  A    between atoms: C5_8  and  C6_10 
REMARK    7  A    between atoms: C9_13  and  N2_14 
REMARK       I    between atoms: N2_14  and  C10_15 
ROOT
ATOM      1  C6  NON d   1      10.537  -7.816   0.013  0.00  0.00     0.011 A 
ATOM      2  C7  NON d   1      11.799  -7.206   0.061  0.00  0.00     0.017 A 
ATOM      3  C8  NON d   1      12.976  -7.968   0.028  0.00  0.00     0.030 A 
ATOM      4  C9  NON d   1      12.920  -9.363  -0.052  0.00  0.00     0.034 A 
ATOM      5  C12 NON d   1      11.666  -9.975  -0.122  0.00  0.00     0.030 A 
ATOM      6  C13 NON d   1      10.483  -9.210  -0.092  0.00  0.00     0.017 A 
ENDROOT
BRANCH   1   7
ATOM      7  C5  NON d   1       9.312  -6.943   0.140  0.00  0.00     0.169 C 
ATOM      8  O1  NON d   1       9.505  -5.757   0.407  0.00  0.00    -0.291 OA
BRANCH   7   9
ATOM      9  C4  NON d   1       7.935  -7.597   0.016  0.00  0.00     0.165 C 
BRANCH   9  10
ATOM     10  S2  NON d   1       6.535  -6.456   0.247  0.00  0.00    -0.091 SA
BRANCH  10  11
ATOM     11  C3  NON d   1       6.090  -5.901  -1.383  0.00  0.00     0.155 C 
ATOM     12  S1  NON d   1       7.080  -6.137  -2.735  0.00  0.00    -0.051 SA
BRANCH  11  13
ATOM     13  N1  NON d   1       4.877  -5.307  -1.320  0.00  0.00    -0.273 NA
BRANCH  13  14
ATOM     14  C2  NON d   1       4.652  -4.263  -2.328  0.00  0.00     0.146 C 
ATOM     15  C1  NON d   1       3.318  -3.493  -2.328  0.00  0.00     0.028 C 
ENDBRANCH  13  14
ENDBRANCH  11  13
ENDBRANCH  10  11
ENDBRANCH   9  10
ENDBRANCH   7   9
ENDBRANCH   1   7
BRANCH   4  16
ATOM     16  N2  NON d   1      14.149 -10.059  -0.030  0.00  0.00    -0.328 N 
ATOM     17  C10 NON d   1      14.347 -11.425  -0.099  0.00  0.00     0.218 C 
ATOM     18  C11 NON d   1      15.799 -11.823   0.042  0.00  0.00     0.117 C 
ATOM     19  O2  NON d   1      13.486 -12.282  -0.266  0.00  0.00    -0.274 OA
ATOM     20  H10 NON d   1      14.978  -9.482   0.053  0.00  0.00     0.169 HD
ENDBRANCH   4  16
TORSDOF 7
