REMARK  15 active torsions:
REMARK  status: ('A' for Active; 'I' for Inactive)
REMARK    1  A    between atoms: C4_5  and  C5_6 
REMARK    2  A    between atoms: C5_6  and  O1_7 
REMARK    3  A    between atoms: C6_8  and  C7_9 
REMARK    4  A    between atoms: C7_9  and  N2_10 
REMARK    5  A    between atoms: N2_10  and  C8_11 
REMARK    6  A    between atoms: C11_14  and  O2_15 
REMARK    7  A    between atoms: O2_15  and  C12_16 
REMARK    8  A    between atoms: C12_16  and  C13_17 
REMARK    9  A    between atoms: C13_17  and  C14_18 
REMARK   10  A    between atoms: C14_18  and  C15_19 
REMARK   11  A    between atoms: C15_19  and  C16_20 
REMARK   12  A    between atoms: C16_20  and  C17_21 
REMARK   13  A    between atoms: C17_21  and  C18_22 
REMARK       I    between atoms: C18_22  and  N3_24 
REMARK   14  A    between atoms: N3_24  and  O4_25 
REMARK   15  A    between atoms: C21_28  and  O5_29 
ROOT
ATOM      1  C8  NON d   1      -2.672   6.004  -0.176  0.00  0.00     0.008 A 
ATOM      2  C9  NON d   1      -1.504   6.778  -0.152  0.00  0.00     0.026 A 
ATOM      3  C10 NON d   1      -0.232   6.198  -0.101  0.00  0.00     0.038 A 
ATOM      4  C11 NON d   1      -0.092   4.813  -0.100  0.00  0.00     0.068 A 
ATOM      5  C19 NON d   1      -1.244   4.027  -0.172  0.00  0.00     0.038 A 
ATOM      6  C20 NON d   1      -2.520   4.617  -0.227  0.00  0.00     0.026 A 
ENDROOT
BRANCH   1   7
ATOM      7  N2  NON d   1      -3.891   6.690  -0.273  0.00  0.00    -0.289 NA
ATOM      8  H10 NON d   1      -3.823   7.527   0.314  0.00  0.00     0.128 HD
BRANCH   7   9
ATOM      9  C7  NON d   1      -5.138   6.013   0.053  0.00  0.00     0.134 C 
BRANCH   9  10
ATOM     10  C6  NON d   1      -6.389   6.891   0.005  0.00  0.00     0.000 A 
ATOM     11  C4  NON d   1      -6.451   8.304  -0.015  0.00  0.00    -0.007 A 
ATOM     12  C3  NON d   1      -7.724   8.889  -0.054  0.00  0.00     0.127 A 
ATOM     13  N1  NON d   1      -8.898   8.226  -0.070  0.00  0.00    -0.262 NA
ATOM     14  C2  NON d   1      -8.841   6.880  -0.036  0.00  0.00     0.064 A 
ATOM     15  C1  NON d   1     -10.169   6.185  -0.060  0.00  0.00     0.073 C 
ATOM     16  C21 NON d   1      -7.623   6.193   0.032  0.00  0.00     0.098 A 
BRANCH  11  17
ATOM     17  C5  NON d   1      -5.298   9.271  -0.085  0.00  0.00     0.205 C 
BRANCH  17  18
ATOM     18  O1  NON d   1      -4.304   9.005   0.899  0.00  0.00    -0.396 OA
ATOM     19  H7  NON d   1      -3.622   9.691   0.781  0.00  0.00     0.209 HD
ENDBRANCH  17  18
ENDBRANCH  11  17
BRANCH  16  20
ATOM     20  O5  NON d   1      -7.574   4.824   0.128  0.00  0.00    -0.358 OA
ATOM     21  H29 NON d   1      -8.464   4.469   0.284  0.00  0.00     0.217 HD
ENDBRANCH  16  20
ENDBRANCH   9  10
ENDBRANCH   7   9
ENDBRANCH   1   7
BRANCH   4  22
ATOM     22  O2  NON d   1       1.099   4.133  -0.046  0.00  0.00    -0.351 OA
BRANCH  22  23
ATOM     23  C12 NON d   1       2.274   4.945   0.078  0.00  0.00     0.175 C 
BRANCH  23  24
ATOM     24  C13 NON d   1       3.514   4.058   0.153  0.00  0.00     0.027 C 
BRANCH  24  25
ATOM     25  C14 NON d   1       4.847   4.818   0.056  0.00  0.00     0.002 C 
BRANCH  25  26
ATOM     26  C15 NON d   1       5.309   5.538   1.333  0.00  0.00     0.001 C 
BRANCH  26  27
ATOM     27  C16 NON d   1       4.721   6.941   1.514  0.00  0.00     0.009 C 
BRANCH  27  28
ATOM     28  C17 NON d   1       5.138   7.601   2.831  0.00  0.00     0.105 C 
BRANCH  28  29
ATOM     29  C18 NON d   1       6.434   8.394   2.761  0.00  0.00     0.240 C 
ATOM     30  O3  NON d   1       7.280   8.241   1.888  0.00  0.00    -0.271 OA
ATOM     31  N3  NON d   1       6.567   9.247   3.846  0.00  0.00    -0.237 N 
ATOM     32  H25 NON d   1       5.736   9.589   4.316  0.00  0.00     0.197 HD
BRANCH  31  33
ATOM     33  O4  NON d   1       7.616  10.190   3.746  0.00  0.00    -0.287 OA
ATOM     34  H26 NON d   1       8.374   9.698   4.114  0.00  0.00     0.244 HD
ENDBRANCH  31  33
ENDBRANCH  28  29
ENDBRANCH  27  28
ENDBRANCH  26  27
ENDBRANCH  25  26
ENDBRANCH  24  25
ENDBRANCH  23  24
ENDBRANCH  22  23
ENDBRANCH   4  22
TORSDOF 15
