@<TRIPOS>MOLECULE
*****
 32 32 0 0 0
SMALL
USER_CHARGES

@<TRIPOS>ATOM
      1 O1         -3.0666   -3.5130   -0.4952 O.2     1  NONAME1    -0.2688
      2 C1         -2.8193   -4.6816   -0.2440 C.2     1  NONAME1     0.2618
      3 N1         -1.5538   -5.1999   -0.0808 N.am    1  NONAME1    -0.3095
      4 C2         -0.3595   -4.3882   -0.1803 C.3     1  NONAME1     0.0207
      5 C3          0.9144   -5.1575    0.1635 C.3     1  NONAME1     0.0063
      6 S1          1.2083   -6.5275   -1.0006 S.3     1  NONAME1    -0.1767
      7 C4         -3.9541   -5.7023    0.0192 C.2     1  NONAME1     0.1454
      8 C5         -5.3229   -5.0568    0.0454 C.3     1  NONAME1     0.0231
      9 C6         -6.6807   -5.7278   -0.0428 C.ar    1  NONAME1    -0.0392
     10 C7         -6.9530   -7.0473   -0.4078 C.ar    1  NONAME1    -0.0581
     11 C8         -8.2652   -7.5479   -0.4032 C.ar    1  NONAME1    -0.0593
     12 C9         -9.3462   -6.7122   -0.1273 C.ar    1  NONAME1    -0.0315
     13 C10        -9.1041   -5.3644    0.1347 C.ar    1  NONAME1     0.1265
     14 N2        -10.2293   -4.4406    0.3218 N.pl3   1  NONAME1     0.0564
     15 O2        -11.3686   -4.9238    0.3939 O.2     1  NONAME1    -0.1261
     16 O3         -9.9760   -3.2285    0.3836 O.2     1  NONAME1    -0.1261
     17 C11        -7.7892   -4.8809    0.1930 C.ar    1  NONAME1    -0.0279
     18 N3         -3.5255   -6.9009    0.3104 N.2     1  NONAME1    -0.0865
     19 O4         -4.5008   -7.7553    0.7997 O.2     1  NONAME1    -0.4089
     20 H1         -1.4886   -6.2057    0.0480 H       1  NONAME1     0.1491
     21 H2         -0.4757   -3.5494    0.5145 H       1  NONAME1     0.0470
     22 H3         -0.3139   -3.9640   -1.1895 H       1  NONAME1     0.0470
     23 H4          0.8502   -5.5731    1.1748 H       1  NONAME1     0.0389
     24 H5          1.7760   -4.4847    0.1298 H       1  NONAME1     0.0389
     25 H6          2.4356   -6.8424   -0.5617 H       1  NONAME1     0.1017
     26 H7         -5.3233   -4.4687    0.9748 H       1  NONAME1     0.0379
     27 H8         -5.3268   -4.3428   -0.7859 H       1  NONAME1     0.0379
     28 H9         -6.1614   -7.7285   -0.7020 H       1  NONAME1     0.0620
     29 H10        -8.4407   -8.5978   -0.6302 H       1  NONAME1     0.0618
     30 H11       -10.3562   -7.1157   -0.1465 H       1  NONAME1     0.0640
     31 H12        -7.6099   -3.8258    0.4056 H       1  NONAME1     0.0643
     32 H13        -4.0346   -8.6137    0.8333 H       1  NONAME1     0.3278
@<TRIPOS>BOND
     1     1     2    2
     2     2     3   am
     3     3     4    1
     4     4     5    1
     5     5     6    1
     6     2     7    1
     7     7     8    1
     8     8     9    1
     9     9    10   ar
    10    10    11   ar
    11    11    12   ar
    12    12    13   ar
    13    13    14    1
    14    14    15    1
    15    14    16    2
    16    13    17   ar
    17     9    17   ar
    18     7    18    2
    19    18    19    1
    20     3    20    1
    21     4    21    1
    22     4    22    1
    23     5    23    1
    24     5    24    1
    25     6    25    1
    26     8    26    1
    27     8    27    1
    28    10    28    1
    29    11    29    1
    30    12    30    1
    31    17    31    1
    32    19    32    1
