@<TRIPOS>MOLECULE
*****
 53 56 0 0 0
SMALL
USER_CHARGES

@<TRIPOS>ATOM
      1 N1         20.4351    9.2426   -3.2753 N.pl3   1  NONAME1    -0.3565
      2 C1         21.0563   10.4777   -3.0841 C.ar    1  NONAME1     0.0461
      3 C2         22.4387   10.5185   -3.3429 C.ar    1  NONAME1    -0.0392
      4 C3         23.1523   11.7139   -3.3265 C.ar    1  NONAME1    -0.0599
      5 C4         22.4938   12.9036   -3.0689 C.ar    1  NONAME1    -0.0599
      6 C5         21.1216   12.8887   -2.8125 C.ar    1  NONAME1    -0.0387
      7 C6         20.3807   11.6893   -2.8170 C.ar    1  NONAME1     0.0543
      8 N2         19.0170   11.8505   -2.4505 N.am    1  NONAME1    -0.2840
      9 C7         18.0020   10.9214   -2.3824 C.2     1  NONAME1     0.2172
     10 O1         17.9972    9.8072   -2.8909 O.2     1  NONAME1    -0.2755
     11 C8         16.8196   11.4241   -1.5708 C.3     1  NONAME1     0.0243
     12 C9         15.8551   10.3126   -1.1555 C.3     1  NONAME1    -0.0447
     13 C10        16.2613    9.5256    0.0997 C.3     1  NONAME1    -0.0510
     14 C11        17.4489    8.5596   -0.0466 C.3     1  NONAME1    -0.0347
     15 C12        18.7669    9.1469    0.4771 C.3     1  NONAME1     0.0296
     16 N3         20.0103    8.4029    0.2277 N.ar    1  NONAME1    -0.2748
     17 C13        21.1824    9.1631    0.3301 C.ar    1  NONAME1     0.2618
     18 O2         21.1941   10.3601    0.6170 O.2     1  NONAME1    -0.2669
     19 C14        22.4756    8.4640    0.1479 C.ar    1  NONAME1     0.0480
     20 C15        23.6570    9.2162    0.1164 C.ar    1  NONAME1    -0.0488
     21 C16        24.8837    8.5794   -0.0166 C.ar    1  NONAME1    -0.0604
     22 C17        24.9347    7.1894   -0.1167 C.ar    1  NONAME1    -0.0529
     23 C18        23.7611    6.3987   -0.0905 C.ar    1  NONAME1    -0.0025
     24 C19        23.7578    4.9819   -0.1731 C.ar    1  NONAME1     0.0256
     25 Br1        25.3573    3.9562   -0.3232 Br      1  NONAME1    -0.0497
     26 C20        22.5634    4.2598   -0.1333 C.ar    1  NONAME1    -0.0464
     27 C21        21.3527    4.9311   -0.0033 C.ar    1  NONAME1    -0.0477
     28 C22        21.3270    6.3292    0.0892 C.ar    1  NONAME1     0.0481
     29 C23        22.5118    7.0694    0.0407 C.ar    1  NONAME1     0.0078
     30 C24        20.0221    7.0103    0.2745 C.ar    1  NONAME1     0.2618
     31 O3         19.0430    6.3047    0.4967 O.2     1  NONAME1    -0.2669
     32 H1         20.9478    8.4228   -2.9868 H       1  NONAME1     0.1424
     33 H2         19.4407    9.2136   -3.0380 H       1  NONAME1     0.1424
     34 H3         22.9661    9.5959   -3.5850 H       1  NONAME1     0.0636
     35 H4         24.2196   11.7094   -3.5369 H       1  NONAME1     0.0618
     36 H5         23.0385   13.8425   -3.0697 H       1  NONAME1     0.0618
     37 H6         20.6360   13.8410   -2.6106 H       1  NONAME1     0.0637
     38 H7         18.7685   12.7849   -2.1519 H       1  NONAME1     0.1549
     39 H8         17.1749   11.9657   -0.6864 H       1  NONAME1     0.0358
     40 H9         16.2831   12.1398   -2.2066 H       1  NONAME1     0.0358
     41 H10        15.6685    9.6194   -1.9841 H       1  NONAME1     0.0270
     42 H11        14.8896   10.7863   -0.9340 H       1  NONAME1     0.0270
     43 H12        15.3878    8.9189    0.3753 H       1  NONAME1     0.0266
     44 H13        16.4242   10.2128    0.9385 H       1  NONAME1     0.0266
     45 H14        17.1999    7.6841    0.5628 H       1  NONAME1     0.0282
     46 H15        17.5473    8.1985   -1.0746 H       1  NONAME1     0.0282
     47 H16        18.6954    9.2784    1.5639 H       1  NONAME1     0.0494
     48 H17        18.8911   10.1504    0.0570 H       1  NONAME1     0.0494
     49 H18        23.6206   10.3009    0.2000 H       1  NONAME1     0.0625
     50 H19        25.8023    9.1616   -0.0342 H       1  NONAME1     0.0618
     51 H20        25.9179    6.7308   -0.2094 H       1  NONAME1     0.0624
     52 H21        22.5639    3.1741   -0.1945 H       1  NONAME1     0.0629
     53 H22        20.4268    4.3588    0.0352 H       1  NONAME1     0.0626
@<TRIPOS>BOND
     1     1     2    1
     2     2     3   ar
     3     3     4   ar
     4     4     5   ar
     5     5     6   ar
     6     6     7   ar
     7     2     7   ar
     8     7     8    1
     9     8     9   am
    10     9    10    2
    11     9    11    1
    12    11    12    1
    13    12    13    1
    14    13    14    1
    15    14    15    1
    16    15    16    1
    17    16    17   ar
    18    17    18    2
    19    17    19   ar
    20    19    20   ar
    21    20    21   ar
    22    21    22   ar
    23    22    23   ar
    24    23    24   ar
    25    24    25    1
    26    24    26   ar
    27    26    27   ar
    28    27    28   ar
    29    28    29   ar
    30    19    29   ar
    31    23    29   ar
    32    28    30   ar
    33    16    30   ar
    34    30    31    2
    35     1    32    1
    36     1    33    1
    37     3    34    1
    38     4    35    1
    39     5    36    1
    40     6    37    1
    41     8    38    1
    42    11    39    1
    43    11    40    1
    44    12    41    1
    45    12    42    1
    46    13    43    1
    47    13    44    1
    48    14    45    1
    49    14    46    1
    50    15    47    1
    51    15    48    1
    52    20    49    1
    53    21    50    1
    54    22    51    1
    55    26    52    1
    56    27    53    1
