REMARK  5 active torsions:
REMARK  status: ('A' for Active; 'I' for Inactive)
REMARK    1  A    between atoms: C4_4  and  C2_2 
REMARK    2  A    between atoms: N1_6  and  C6_7 
REMARK    3  A    between atoms: C9_10  and  C10_11 
REMARK       I    between atoms: C10_11  and  N2_13 
REMARK    4  A    between atoms: N2_13  and  C11_14 
REMARK    5  A    between atoms: C16_19  and  N3_20 
ROOT
ATOM      1  C6  NON d   1       5.271 -12.077   0.015  0.00  0.00     0.125 A 
ATOM      2  C7  NON d   1       6.523 -11.459   0.155  0.00  0.00     0.051 A 
ATOM      3  C8  NON d   1       7.729 -12.195   0.091  0.00  0.00     0.022 A 
ATOM      4  C9  NON d   1       7.688 -13.574  -0.093  0.00  0.00     0.050 A 
ATOM      5  C17 NON d   1       6.414 -14.117  -0.204  0.00  0.00     0.136 A 
ATOM      6  N4  NON d   1       5.237 -13.412  -0.161  0.00  0.00    -0.242 NA
ENDROOT
BRANCH   4   7
ATOM      7  C10 NON d   1       8.869 -14.498  -0.205  0.00  0.00     0.257 C 
ATOM      8  O1  NON d   1       8.633 -15.642  -0.560  0.00  0.00    -0.267 OA
ATOM      9  N2  NON d   1      10.134 -13.986   0.057  0.00  0.00    -0.321 N 
ATOM     10  H13 NON d   1      10.215 -12.995   0.205  0.00  0.00     0.169 HD
BRANCH   9  11
ATOM     11  C11 NON d   1      11.398 -14.667   0.028  0.00  0.00     0.056 A 
ATOM     12  C12 NON d   1      12.527 -13.823  -0.015  0.00  0.00     0.031 A 
ATOM     13  C13 NON d   1      13.831 -14.332  -0.058  0.00  0.00     0.002 A 
ATOM     14  C14 NON d   1      14.039 -15.701  -0.029  0.00  0.00     0.002 A 
ATOM     15  C15 NON d   1      12.935 -16.553   0.044  0.00  0.00     0.025 A 
ATOM     16  C16 NON d   1      11.616 -16.067   0.039  0.00  0.00     0.033 A 
BRANCH  16  17
ATOM     17  N3  NON d   1      10.610 -17.010   0.324  0.00  0.00    -0.301 NA
ATOM     18  H18 NON d   1       9.695 -16.680  -0.004  0.00  0.00     0.124 HD
ATOM     19  H19 NON d   1      10.798 -17.925  -0.058  0.00  0.00     0.124 HD
ENDBRANCH  16  17
ENDBRANCH   9  11
ENDBRANCH   4   7
BRANCH   1  20
ATOM     20  N1  NON d   1       4.039 -11.380   0.091  0.00  0.00    -0.362 N 
ATOM     21  C5  NON d   1       4.052  -9.958  -0.276  0.00  0.00     0.157 C 
ATOM     22  C4  NON d   1       2.667  -9.240   0.000  0.00  0.00     0.207 C 
ATOM     23  N5  NON d   1       1.578  -9.965  -0.715  0.00  0.00    -0.068 N 
ATOM     24  C19 NON d   1       1.539 -11.426  -0.257  0.00  0.00     0.252 C 
ATOM     25  H25 NON d   1       0.663  -9.545  -0.507  0.00  0.00     0.277 HD
ATOM     26  H26 NON d   1       1.712  -9.925  -1.733  0.00  0.00     0.277 HD
ATOM     27  C18 NON d   1       2.896 -12.153  -0.452  0.00  0.00     0.152 C 
BRANCH  22  28
ATOM     28  C2  NON d   1       2.667  -7.700   0.000  0.00  0.00     0.010 C 
ATOM     29  C1  NON d   1       1.334  -6.930   0.018  0.00  0.00     0.011 C 
ATOM     30  C3  NON d   1       3.962  -7.286  -0.823  0.00  0.00     0.011 C 
ENDBRANCH  22  28
ENDBRANCH   1  20
TORSDOF 5
