REMARK  1 active torsions:
REMARK  status: ('A' for Active; 'I' for Inactive)
REMARK    1  A    between atoms: O1_1  and  C1_2 
ROOT
ATOM      1  C1  NON d   1       1.421   2.235   0.000  0.00  0.00     0.134 A 
ATOM      2  C2  NON d   1       2.556   1.514   0.000  0.00  0.00     0.043 A 
ATOM      3  C3  NON d   1       2.528   0.068   0.000  0.00  0.00     0.020 A 
ATOM      4  C4  NON d   1       1.357  -0.578   0.000  0.00  0.00     0.091 A 
ATOM      5  N1  NON d   1       0.181   0.125   0.000  0.00  0.00    -0.331 N 
ATOM      6  C5  NON d   1       0.101   1.501   0.000  0.00  0.00     0.278 A 
ATOM      7  O2  NON d   1      -0.982   2.078   0.000  0.00  0.00    -0.265 OA
ATOM      8  H5  NON d   1      -0.708  -0.359  -0.000  0.00  0.00     0.168 HD
ENDROOT
BRANCH   1   9
ATOM      9  O1  NON d   1       1.413   3.616   0.000  0.00  0.00    -0.356 OA
ATOM     10  H1  NON d   1       2.330   3.933   0.000  0.00  0.00     0.218 HD
ENDBRANCH   1   9
TORSDOF 1
