REMARK  6 active torsions:
REMARK  status: ('A' for Active; 'I' for Inactive)
REMARK       I    between atoms: C1_2  and  N1_3 
REMARK    1  A    between atoms: C1_2  and  C2_5 
REMARK    2  A    between atoms: N1_3  and  O2_4 
REMARK    3  A    between atoms: C4_8  and  N3_9 
REMARK    4  A    between atoms: C9_14  and  N4_15 
REMARK    5  A    between atoms: N4_15  and  C10_16 
REMARK    6  A    between atoms: C10_16  and  C11_17 
ROOT
ATOM      1  N3  NON d   1      -4.234  -6.969   0.345  0.00  0.00    -0.213 N 
ATOM      2  C5  NON d   1      -4.227  -5.603  -0.160  0.00  0.00     0.148 C 
ATOM      3  C6  NON d   1      -2.781  -5.354  -0.521  0.00  0.00     0.043 A 
ATOM      4  C7  NON d   1      -2.030  -6.636  -0.357  0.00  0.00     0.043 A 
ATOM      5  C8  NON d   1      -3.006  -7.702   0.082  0.00  0.00     0.148 C 
ATOM      6  C9  NON d   1      -1.692  -5.449   0.511  0.00  0.00     0.198 A 
ENDROOT
BRANCH   6   7
ATOM      7  N4  NON d   1      -0.406  -4.740   0.232  0.00  0.00    -0.065 N 
ATOM      8  H11 NON d   1      -0.043  -4.944  -0.709  0.00  0.00     0.278 HD
ATOM      9  H12 NON d   1      -0.542  -3.719   0.241  0.00  0.00     0.278 HD
BRANCH   7  10
ATOM     10  C10 NON d   1       0.671  -5.057   1.230  0.00  0.00     0.291 C 
BRANCH  10  11
ATOM     11  C11 NON d   1       1.948  -4.237   1.150  0.00  0.00     0.060 A 
ATOM     12  C12 NON d   1       2.887  -4.421   2.162  0.00  0.00     0.030 A 
ATOM     13  C13 NON d   1       4.071  -3.697   2.128  0.00  0.00     0.016 A 
ATOM     14  C14 NON d   1       4.307  -2.808   1.078  0.00  0.00    -0.004 A 
ATOM     15  C15 NON d   1       5.507  -2.078   1.032  0.00  0.00     0.056 A 
ATOM     16  C19 NON d   1       3.314  -2.670   0.076  0.00  0.00     0.067 A 
ATOM     17  C16 NON d   1       5.739  -1.202  -0.016  0.00  0.00     0.117 A 
ATOM     18  F1  NON d   1       6.883  -0.510  -0.059  0.00  0.00    -0.206 F 
ATOM     19  C17 NON d   1       4.793  -1.044  -1.014  0.00  0.00     0.044 A 
ATOM     20  C18 NON d   1       3.595  -1.776  -0.960  0.00  0.00     0.035 A 
ATOM     21  N5  NON d   1       2.143  -3.374   0.114  0.00  0.00    -0.251 NA
ENDBRANCH  10  11
ENDBRANCH   7  10
ENDBRANCH   6   7
BRANCH   1  22
ATOM     22  C4  NON d   1      -5.432  -7.662   0.289  0.00  0.00     0.724 A 
ATOM     23  N2  NON d   1      -6.577  -6.968   0.200  0.00  0.00    -0.074 NA
ATOM     24  C3  NON d   1      -7.743  -7.664   0.139  0.00  0.00     0.155 A 
ATOM     25  C2  NON d   1      -7.826  -9.038   0.164  0.00  0.00     0.070 A 
ATOM     26  C20 NON d   1      -6.608  -9.664   0.267  0.00  0.00     0.155 A 
ATOM     27  N6  NON d   1      -5.418  -9.008   0.333  0.00  0.00    -0.074 NA
BRANCH  25  28
ATOM     28  C1  NON d   1      -9.143  -9.701   0.086  0.00  0.00     0.277 C 
ATOM     29  O1  NON d   1     -10.170  -9.026   0.028  0.00  0.00    -0.265 OA
ATOM     30  N1  NON d   1      -9.193 -11.076   0.075  0.00  0.00    -0.233 N 
ATOM     31  H1  NON d   1      -8.424 -11.732   0.085  0.00  0.00     0.197 HD
BRANCH  30  32
ATOM     32  O2  NON d   1     -10.487 -11.643  -0.013  0.00  0.00    -0.287 OA
ATOM     33  H2  NON d   1     -11.067 -10.850  -0.037  0.00  0.00     0.244 HD
ENDBRANCH  30  32
ENDBRANCH  25  28
ENDBRANCH   1  22
TORSDOF 6
