REMARK  10 active torsions:
REMARK  status: ('A' for Active; 'I' for Inactive)
REMARK    1  A    between atoms: C2_2  and  S1_3 
REMARK    2  A    between atoms: S1_3  and  C3_4 
REMARK    3  A    between atoms: C3_4  and  S3_6 
REMARK    4  A    between atoms: S3_6  and  C4_7 
REMARK    5  A    between atoms: C4_7  and  C5_8 
REMARK    6  A    between atoms: C5_8  and  C6_10 
REMARK    7  A    between atoms: C9_13  and  C10_14 
REMARK    8  A    between atoms: C10_14  and  C11_15 
REMARK       I    between atoms: C11_15  and  N1_17 
REMARK    9  A    between atoms: N1_17  and  C12_18 
REMARK   10  A    between atoms: C15_21  and  O3_22 
ROOT
ATOM      1  C6  NON d   1      19.715  -7.223   0.238  0.00  0.00     0.052 C 
ATOM      2  C7  NON d   1      20.030  -5.898  -0.003  0.00  0.00     0.024 C 
ATOM      3  C8  NON d   1      21.436  -5.680  -0.117  0.00  0.00     0.016 C 
ATOM      4  C9  NON d   1      22.170  -6.841   0.050  0.00  0.00    -0.008 C 
ATOM      5  S4  NON d   1      21.143  -8.148   0.458  0.00  0.00    -0.091 SA
ENDROOT
BRANCH   4   6
ATOM      6  C10 NON d   1      23.672  -6.963  -0.015  0.00  0.00     0.149 C 
BRANCH   6   7
ATOM      7  C11 NON d   1      24.195  -8.315  -0.491  0.00  0.00     0.226 C 
ATOM      8  O2  NON d   1      23.585  -9.038  -1.274  0.00  0.00    -0.273 OA
ATOM      9  N1  NON d   1      25.470  -8.582   0.000  0.00  0.00    -0.327 N 
ATOM     10  H12 NON d   1      26.036  -7.793   0.284  0.00  0.00     0.169 HD
BRANCH   9  11
ATOM     11  C12 NON d   1      26.104  -9.840  -0.014  0.00  0.00     0.034 A 
ATOM     12  C13 NON d   1      27.490  -9.886   0.159  0.00  0.00     0.032 A 
ATOM     13  C14 NON d   1      28.168 -11.114   0.180  0.00  0.00     0.039 A 
ATOM     14  C15 NON d   1      27.458 -12.307   0.054  0.00  0.00     0.068 A 
ATOM     15  C17 NON d   1      26.069 -12.261  -0.079  0.00  0.00     0.039 A 
ATOM     16  C18 NON d   1      25.396 -11.037  -0.125  0.00  0.00     0.032 A 
BRANCH  14  17
ATOM     17  O3  NON d   1      27.989 -13.565   0.060  0.00  0.00    -0.356 OA
ATOM     18  C16 NON d   1      29.399 -13.666  -0.092  0.00  0.00     0.210 C 
ENDBRANCH  14  17
ENDBRANCH   9  11
ENDBRANCH   6   7
ENDBRANCH   4   6
BRANCH   1  19
ATOM     19  C5  NON d   1      18.407  -7.880   0.330  0.00  0.00     0.175 C 
ATOM     20  O1  NON d   1      18.269  -9.086   0.542  0.00  0.00    -0.291 OA
BRANCH  19  21
ATOM     21  C4  NON d   1      17.198  -6.961   0.157  0.00  0.00     0.165 C 
BRANCH  21  22
ATOM     22  S3  NON d   1      15.656  -7.826  -0.214  0.00  0.00    -0.104 SA
BRANCH  22  23
ATOM     23  C3  NON d   1      15.127  -8.550   1.315  0.00  0.00     0.104 C 
ATOM     24  S2  NON d   1      15.738  -8.178   2.830  0.00  0.00    -0.065 SA
BRANCH  23  25
ATOM     25  S1  NON d   1      13.697  -9.552   1.004  0.00  0.00    -0.112 SA
BRANCH  25  26
ATOM     26  C2  NON d   1      13.459 -10.569   2.480  0.00  0.00     0.076 C 
ATOM     27  C1  NON d   1      14.395 -11.764   2.514  0.00  0.00     0.016 C 
ENDBRANCH  25  26
ENDBRANCH  23  25
ENDBRANCH  22  23
ENDBRANCH  21  22
ENDBRANCH  19  21
ENDBRANCH   1  19
TORSDOF 10
