REMARK  9 active torsions:
REMARK  status: ('A' for Active; 'I' for Inactive)
REMARK    1  A    between atoms: N1_1  and  C1_2 
REMARK    2  A    between atoms: C6_7  and  N2_8 
REMARK       I    between atoms: N2_8  and  C7_9 
REMARK    3  A    between atoms: C7_9  and  C8_11 
REMARK    4  A    between atoms: C11_14  and  C12_15 
REMARK    5  A    between atoms: N3_16  and  C12_15 
REMARK    6  A    between atoms: C14_19  and  N5_20 
REMARK    7  A    between atoms: N5_20  and  C15_21 
REMARK    8  A    between atoms: C18_25  and  N7_26 
REMARK    9  A    between atoms: N7_26  and  C19_27 
ROOT
ATOM      1  N3  NON d   1      -4.550   1.328   0.052  0.00  0.00    -0.100 NA
ATOM      2  C13 NON d   1      -3.271   1.462   0.035  0.00  0.00     0.752 A 
ATOM      3  N4  NON d   1      -2.624   2.710  -0.011  0.00  0.00    -0.018 N 
ATOM      4  C14 NON d   1      -1.286   2.854  -0.001  0.00  0.00     0.707 A 
ATOM      5  N6  NON d   1      -0.555   1.783  -0.045  0.00  0.00    -0.020 N 
ATOM      6  C18 NON d   1      -1.088   0.585  -0.035  0.00  0.00     0.731 A 
ATOM      7  N8  NON d   1      -2.492   0.395   0.072  0.00  0.00     0.129 NA
ATOM      8  H12 NON d   1      -3.198   3.532  -0.038  0.00  0.00     0.203 HD
ATOM      9  H19 NON d   1       0.431   1.895  -0.069  0.00  0.00     0.203 HD
ENDROOT
BRANCH   1  10
ATOM     10  C12 NON d   1      -5.361   2.549   0.013  0.00  0.00     0.207 C 
BRANCH  10  11
ATOM     11  C11 NON d   1      -6.869   2.438   0.043  0.00  0.00    -0.038 A 
ATOM     12  C10 NON d   1      -7.583   3.646   0.080  0.00  0.00     0.010 A 
ATOM     13  C9  NON d   1      -8.977   3.665   0.050  0.00  0.00     0.017 A 
ATOM     14  C8  NON d   1      -9.717   2.477  -0.020  0.00  0.00     0.032 A 
ATOM     15  C29 NON d   1      -9.014   1.262  -0.036  0.00  0.00     0.017 A 
ATOM     16  C28 NON d   1      -7.599   1.246  -0.006  0.00  0.00     0.010 A 
BRANCH  14  17
ATOM     17  C7  NON d   1     -11.210   2.636  -0.123  0.00  0.00     0.256 C 
ATOM     18  N2  NON d   1     -12.003   1.514   0.039  0.00  0.00    -0.321 N 
ATOM     19  H7  NON d   1     -11.572   0.626   0.257  0.00  0.00     0.169 HD
ATOM     20  O1  NON d   1     -11.638   3.764  -0.360  0.00  0.00    -0.267 OA
BRANCH  18  21
ATOM     21  C6  NON d   1     -13.427   1.478   0.035  0.00  0.00     0.056 A 
ATOM     22  C5  NON d   1     -14.231   2.624   0.014  0.00  0.00     0.031 A 
ATOM     23  C4  NON d   1     -15.623   2.529   0.096  0.00  0.00     0.002 A 
ATOM     24  C3  NON d   1     -16.228   1.283   0.219  0.00  0.00     0.002 A 
ATOM     25  C2  NON d   1     -15.443   0.130   0.235  0.00  0.00     0.025 A 
ATOM     26  C1  NON d   1     -14.051   0.211   0.091  0.00  0.00     0.033 A 
BRANCH  26  27
ATOM     27  N1  NON d   1     -13.282  -0.978   0.106  0.00  0.00    -0.301 NA
ATOM     28  H1  NON d   1     -13.862  -1.807   0.008  0.00  0.00     0.124 HD
ATOM     29  H2  NON d   1     -12.585  -0.954  -0.636  0.00  0.00     0.124 HD
ENDBRANCH  26  27
ENDBRANCH  18  21
ENDBRANCH  14  17
ENDBRANCH  10  11
ENDBRANCH   1  10
BRANCH   4  30
ATOM     30  N5  NON d   1      -0.759   4.126   0.082  0.00  0.00    -0.220 N 
ATOM     31  H13 NON d   1      -1.421   4.890   0.185  0.00  0.00     0.178 HD
BRANCH  30  32
ATOM     32  C15 NON d   1       0.583   4.451   0.466  0.00  0.00     0.099 A 
ATOM     33  C16 NON d   1       1.444   5.302  -0.416  0.00  0.00     0.028 A 
ATOM     34  C17 NON d   1       1.837   3.878  -0.109  0.00  0.00     0.028 A 
ENDBRANCH  30  32
ENDBRANCH   4  30
BRANCH   6  35
ATOM     35  N7  NON d   1      -0.423  -0.548  -0.135  0.00  0.00    -0.218 N 
ATOM     36  H20 NON d   1      -1.060  -1.344  -0.077  0.00  0.00     0.178 HD
BRANCH  35  37
ATOM     37  C19 NON d   1       0.988  -0.840  -0.478  0.00  0.00     0.108 C 
ATOM     38  C20 NON d   1       2.015   0.161   0.072  0.00  0.00     0.065 C 
ATOM     39  C21 NON d   1       3.253  -0.669   0.111  0.00  0.00    -0.050 A 
ATOM     40  C22 NON d   1       4.568  -0.234   0.151  0.00  0.00     0.007 A 
ATOM     41  C26 NON d   1       2.929  -2.029   0.094  0.00  0.00    -0.050 A 
ATOM     42  C23 NON d   1       5.576  -1.196   0.166  0.00  0.00     0.001 A 
ATOM     43  C24 NON d   1       5.258  -2.564   0.156  0.00  0.00     0.001 A 
ATOM     44  C25 NON d   1       3.924  -2.989   0.130  0.00  0.00     0.007 A 
ATOM     45  C27 NON d   1       1.441  -2.218   0.054  0.00  0.00     0.065 C 
ENDBRANCH  35  37
ENDBRANCH   6  35
TORSDOF 9
