REMARK  7 active torsions:
REMARK  status: ('A' for Active; 'I' for Inactive)
REMARK    1  A    between atoms: C2_2  and  C3_3 
REMARK       I    between atoms: C3_3  and  N1_5 
REMARK    2  A    between atoms: N1_5  and  C4_6 
REMARK    3  A    between atoms: C4_6  and  C5_7 
REMARK    4  A    between atoms: C8_10  and  C9_11 
REMARK       I    between atoms: C9_11  and  N2_13 
REMARK    5  A    between atoms: N2_13  and  C10_14 
REMARK    6  A    between atoms: C12_16  and  C13_17 
REMARK    7  A    between atoms: C21_25  and  N3_26 
ROOT
ATOM      1  C9  NON d   1      -0.064 -15.431  -0.388  0.00  0.00     0.256 C 
ATOM      2  O2  NON d   1      -0.256 -16.532  -0.898  0.00  0.00    -0.267 OA
ATOM      3  N2  NON d   1       1.169 -14.946   0.018  0.00  0.00    -0.321 N 
ATOM      4  H11 NON d   1       1.236 -13.967   0.248  0.00  0.00     0.169 HD
ENDROOT
BRANCH   3   5
ATOM      5  C10 NON d   1       2.411 -15.661   0.038  0.00  0.00     0.057 A 
ATOM      6  C11 NON d   1       3.587 -14.864   0.039  0.00  0.00     0.043 A 
ATOM      7  C12 NON d   1       4.898 -15.404   0.051  0.00  0.00    -0.024 A 
ATOM      8  C19 NON d   1       4.970 -16.805   0.103  0.00  0.00     0.014 A 
ATOM      9  C20 NON d   1       3.828 -17.608   0.142  0.00  0.00     0.026 A 
ATOM     10  C21 NON d   1       2.543 -17.063   0.075  0.00  0.00     0.033 A 
BRANCH   7  11
ATOM     11  C13 NON d   1       6.142 -14.558   0.022  0.00  0.00    -0.026 A 
ATOM     12  C14 NON d   1       6.104 -13.150  -0.007  0.00  0.00     0.012 A 
ATOM     13  C15 NON d   1       7.270 -12.369  -0.030  0.00  0.00     0.001 A 
ATOM     14  C16 NON d   1       8.521 -12.972  -0.024  0.00  0.00     0.000 A 
ATOM     15  C17 NON d   1       8.605 -14.355   0.002  0.00  0.00     0.001 A 
ATOM     16  C18 NON d   1       7.436 -15.128   0.023  0.00  0.00     0.012 A 
ENDBRANCH   7  11
BRANCH  10  17
ATOM     17  N3  NON d   1       1.478 -17.948   0.341  0.00  0.00    -0.301 NA
ATOM     18  H20 NON d   1       0.616 -17.596  -0.090  0.00  0.00     0.124 HD
ATOM     19  H21 NON d   1       1.652 -18.888   0.008  0.00  0.00     0.124 HD
ENDBRANCH  10  17
ENDBRANCH   3   5
BRANCH   1  20
ATOM     20  C8  NON d   1      -1.267 -14.554  -0.218  0.00  0.00     0.032 A 
ATOM     21  C7  NON d   1      -1.230 -13.164  -0.090  0.00  0.00     0.017 A 
ATOM     22  C6  NON d   1      -2.429 -12.435   0.009  0.00  0.00     0.010 A 
ATOM     23  C5  NON d   1      -3.685 -13.071  -0.022  0.00  0.00    -0.040 A 
ATOM     24  C23 NON d   1      -3.710 -14.462  -0.156  0.00  0.00     0.010 A 
ATOM     25  C22 NON d   1      -2.519 -15.190  -0.243  0.00  0.00     0.017 A 
BRANCH  23  26
ATOM     26  C4  NON d   1      -4.936 -12.218   0.034  0.00  0.00     0.161 C 
BRANCH  26  27
ATOM     27  N1  NON d   1      -6.178 -12.957   0.127  0.00  0.00    -0.357 N 
ATOM     28  C3  NON d   1      -7.383 -12.324  -0.104  0.00  0.00     0.217 C 
ATOM     29  O1  NON d   1      -7.472 -11.156  -0.467  0.00  0.00    -0.274 OA
ATOM     30  H6  NON d   1      -6.196 -13.782   0.711  0.00  0.00     0.162 HD
BRANCH  28  31
ATOM     31  C2  NON d   1      -8.579 -13.237   0.098  0.00  0.00     0.098 C 
ATOM     32  C1  NON d   1      -9.897 -12.485   0.063  0.00  0.00     0.014 C 
ENDBRANCH  28  31
ENDBRANCH  26  27
ENDBRANCH  23  26
ENDBRANCH   1  20
TORSDOF 7
