@<TRIPOS>MOLECULE
*****
 49 50 0 0 0
SMALL
USER_CHARGES

@<TRIPOS>ATOM
      1 O1          1.8431   -2.1883    1.8289 O.2     1  NONAME1    -0.2737
      2 C1          1.0668   -2.2232    2.7771 C.2     1  NONAME1     0.2354
      3 C2         -0.2507   -2.9795    2.7755 C.3     1  NONAME1     0.0259
      4 C3         -0.5787   -3.6928    1.4630 C.3     1  NONAME1    -0.0447
      5 C4          0.1974   -5.0017    1.2940 C.3     1  NONAME1    -0.0526
      6 C5         -0.0858   -5.7065   -0.0392 C.3     1  NONAME1    -0.0527
      7 C6         -1.1774   -6.7859    0.0140 C.3     1  NONAME1    -0.0475
      8 C7         -2.5996   -6.2617    0.0737 C.3     1  NONAME1    -0.0067
      9 C8         -3.8498   -7.1732   -0.0348 C.2     1  NONAME1     0.0870
     10 N1         -5.0350   -6.6209   -0.1102 N.2     1  NONAME1    -0.0915
     11 O2         -4.9899   -5.2231   -0.0811 O.2     1  NONAME1    -0.4090
     12 C9         -3.8252   -8.6960   -0.0211 C.ar    1  NONAME1    -0.0006
     13 C10        -2.6988   -9.5014    0.0219 C.ar    1  NONAME1    -0.0522
     14 C11        -2.7908  -10.9077    0.0355 C.ar    1  NONAME1    -0.0534
     15 C12        -4.0140  -11.5969    0.0029 C.ar    1  NONAME1    -0.0178
     16 C13        -4.0874  -13.0947    0.0137 C.ar    1  NONAME1    -0.0179
     17 C14        -2.9301  -13.9039   -0.0088 C.ar    1  NONAME1    -0.0540
     18 C15        -2.9885  -15.3040    0.0047 C.ar    1  NONAME1    -0.0612
     19 C16        -4.2152  -15.9501    0.0360 C.ar    1  NONAME1    -0.0617
     20 C17        -5.3786  -15.1930    0.0559 C.ar    1  NONAME1    -0.0612
     21 C18        -5.3129  -13.7915    0.0469 C.ar    1  NONAME1    -0.0540
     22 C19        -5.1509  -10.7739   -0.0401 C.ar    1  NONAME1    -0.0534
     23 C20        -5.0612   -9.3666   -0.0503 C.ar    1  NONAME1    -0.0522
     24 N2          1.2504   -1.5401    3.9684 N.am    1  NONAME1    -0.1975
     25 O3          2.5327   -0.9832    4.1648 O.3     1  NONAME1    -0.2952
     26 H1         -1.0413   -2.2437    2.9723 H       1  NONAME1     0.0359
     27 H2         -0.2474   -3.6946    3.6057 H       1  NONAME1     0.0359
     28 H3         -1.6517   -3.9050    1.4593 H       1  NONAME1     0.0270
     29 H4         -0.3830   -3.0295    0.6128 H       1  NONAME1     0.0270
     30 H5          1.2701   -4.7755    1.3307 H       1  NONAME1     0.0265
     31 H6         -0.0041   -5.6765    2.1345 H       1  NONAME1     0.0265
     32 H7          0.8402   -6.2197   -0.3320 H       1  NONAME1     0.0265
     33 H8         -0.2966   -4.9817   -0.8337 H       1  NONAME1     0.0265
     34 H9         -0.9804   -7.4228    0.8827 H       1  NONAME1     0.0269
     35 H10        -1.0651   -7.3854   -0.8970 H       1  NONAME1     0.0269
     36 H11        -2.6958   -5.5287   -0.7413 H       1  NONAME1     0.0329
     37 H12        -2.7276   -5.7162    1.0149 H       1  NONAME1     0.0329
     38 H13        -5.9318   -4.9817   -0.1633 H       1  NONAME1     0.3278
     39 H14        -1.6938   -9.1178    0.0431 H       1  NONAME1     0.0624
     40 H15        -1.8452  -11.4410    0.0739 H       1  NONAME1     0.0624
     41 H16        -1.9354  -13.4705   -0.0400 H       1  NONAME1     0.0624
     42 H17        -2.0682  -15.8827   -0.0107 H       1  NONAME1     0.0618
     43 H18        -4.2637  -17.0354    0.0448 H       1  NONAME1     0.0618
     44 H19        -6.3465  -15.6874    0.0796 H       1  NONAME1     0.0618
     45 H20        -6.2618  -13.2644    0.0693 H       1  NONAME1     0.0624
     46 H21        -6.1528  -11.1920   -0.0696 H       1  NONAME1     0.0624
     47 H22        -5.9948   -8.8058   -0.0818 H       1  NONAME1     0.0624
     48 H23         0.7907   -1.8677    4.8119 H       1  NONAME1     0.1822
     49 H24         2.4414   -0.1084    3.7419 H       1  NONAME1     0.2414
@<TRIPOS>BOND
     1     1     2    2
     2     2     3    1
     3     3     4    1
     4     4     5    1
     5     5     6    1
     6     6     7    1
     7     7     8    1
     8     8     9    1
     9     9    10    2
    10    10    11    1
    11     9    12    1
    12    12    13   ar
    13    13    14   ar
    14    14    15   ar
    15    15    16    1
    16    16    17   ar
    17    17    18   ar
    18    18    19   ar
    19    19    20   ar
    20    20    21   ar
    21    16    21   ar
    22    15    22   ar
    23    22    23   ar
    24    12    23   ar
    25     2    24   am
    26    24    25    1
    27     3    26    1
    28     3    27    1
    29     4    28    1
    30     4    29    1
    31     5    30    1
    32     5    31    1
    33     6    32    1
    34     6    33    1
    35     7    34    1
    36     7    35    1
    37     8    36    1
    38     8    37    1
    39    11    38    1
    40    13    39    1
    41    14    40    1
    42    17    41    1
    43    18    42    1
    44    19    43    1
    45    20    44    1
    46    21    45    1
    47    22    46    1
    48    23    47    1
    49    24    48    1
    50    25    49    1
