REMARK  9 active torsions:
REMARK  status: ('A' for Active; 'I' for Inactive)
REMARK    1  A    between atoms: C5_5  and  N1_6 
REMARK    2  A    between atoms: N1_6  and  C6_7 
REMARK    3  A    between atoms: C6_7  and  C7_8 
REMARK    4  A    between atoms: C10_11  and  C11_12 
REMARK    5  A    between atoms: C12_13  and  C13_14 
REMARK       I    between atoms: C13_14  and  N2_16 
REMARK    6  A    between atoms: N2_16  and  O2_17 
REMARK    7  A    between atoms: C17_21  and  N3_22 
REMARK    8  A    between atoms: N3_22  and  C18_23 
REMARK    9  A    between atoms: C21_27  and  C22_28 
ROOT
ATOM      1  C1  NON d   1       6.668  -0.770   0.000  0.00  0.00     0.050 C 
ATOM      2  C2  NON d   1       6.668  -2.310   0.000  0.00  0.00    -0.035 A 
ATOM      3  C3  NON d   1       7.770  -3.076  -0.366  0.00  0.00     0.011 A 
ATOM      4  C4  NON d   1       7.667  -4.462  -0.334  0.00  0.00     0.024 A 
ATOM      5  C5  NON d   1       6.497  -5.102   0.106  0.00  0.00     0.010 A 
ATOM      6  C16 NON d   1       5.386  -4.295   0.430  0.00  0.00     0.054 A 
ATOM      7  C17 NON d   1       5.432  -2.885   0.376  0.00  0.00     0.057 A 
ENDROOT
BRANCH   5   8
ATOM      8  N1  NON d   1       6.346  -6.508   0.114  0.00  0.00    -0.289 NA
ATOM      9  H6  NON d   1       5.744  -6.799   0.880  0.00  0.00     0.128 HD
BRANCH   8  10
ATOM     10  C6  NON d   1       7.578  -7.291   0.041  0.00  0.00     0.131 C 
BRANCH  10  11
ATOM     11  C7  NON d   1       7.403  -8.792   0.102  0.00  0.00    -0.045 A 
ATOM     12  C8  NON d   1       8.570  -9.564   0.224  0.00  0.00     0.009 A 
ATOM     13  C9  NON d   1       8.520 -10.959   0.223  0.00  0.00     0.012 A 
ATOM     14  C10 NON d   1       7.300 -11.632   0.104  0.00  0.00    -0.036 A 
ATOM     15  C14 NON d   1       6.134 -10.863  -0.024  0.00  0.00     0.012 A 
ATOM     16  C15 NON d   1       6.184  -9.459  -0.033  0.00  0.00     0.009 A 
BRANCH  14  17
ATOM     17  C11 NON d   1       7.328 -13.106   0.112  0.00  0.00     0.017 C 
ATOM     18  C12 NON d   1       6.265 -13.921   0.040  0.00  0.00     0.077 C 
BRANCH  18  19
ATOM     19  C13 NON d   1       6.458 -15.389   0.088  0.00  0.00     0.264 C 
ATOM     20  O1  NON d   1       7.516 -15.931   0.394  0.00  0.00    -0.266 OA
ATOM     21  N2  NON d   1       5.326 -16.095  -0.222  0.00  0.00    -0.234 N 
ATOM     22  H13 NON d   1       4.427 -15.697  -0.464  0.00  0.00     0.197 HD
BRANCH  21  23
ATOM     23  O2  NON d   1       5.401 -17.502  -0.122  0.00  0.00    -0.287 OA
ATOM     24  H14 NON d   1       6.311 -17.638   0.223  0.00  0.00     0.244 HD
ENDBRANCH  21  23
ENDBRANCH  18  19
ENDBRANCH  14  17
ENDBRANCH  10  11
ENDBRANCH   8  10
ENDBRANCH   5   8
BRANCH   7  25
ATOM     25  N3  NON d   1       4.258  -2.166   0.757  0.00  0.00    -0.188 N 
ATOM     26  H18 NON d   1       3.418  -2.684   0.521  0.00  0.00     0.184 HD
BRANCH  25  27
ATOM     27  C18 NON d   1       3.842  -0.815   0.786  0.00  0.00     0.727 A 
ATOM     28  N4  NON d   1       2.563  -0.624   0.431  0.00  0.00    -0.075 NA
ATOM     29  C19 NON d   1       2.121   0.648   0.344  0.00  0.00     0.139 A 
ATOM     30  C20 NON d   1       2.898   1.753   0.589  0.00  0.00     0.053 A 
ATOM     31  C21 NON d   1       4.194   1.500   0.975  0.00  0.00     0.089 A 
ATOM     32  N6  NON d   1       4.635   0.219   1.133  0.00  0.00    -0.062 NA
BRANCH  31  33
ATOM     33  C22 NON d   1       5.215   2.578   1.096  0.00  0.00     0.011 A 
ATOM     34  C23 NON d   1       5.173   3.762   0.335  0.00  0.00     0.017 A 
ATOM     35  C24 NON d   1       6.230   4.678   0.358  0.00  0.00     0.020 A 
ATOM     36  C25 NON d   1       7.325   4.396   1.153  0.00  0.00     0.116 A 
ATOM     37  N5  NON d   1       7.409   3.299   1.928  0.00  0.00    -0.272 NA
ATOM     38  C26 NON d   1       6.362   2.428   1.882  0.00  0.00     0.130 A 
ENDBRANCH  31  33
ENDBRANCH  25  27
ENDBRANCH   7  25
TORSDOF 9
