REMARK  6 active torsions:
REMARK  status: ('A' for Active; 'I' for Inactive)
REMARK    1  A    between atoms: O1_2  and  C2_3 
REMARK    2  A    between atoms: C7_8  and  N1_9 
REMARK       I    between atoms: N1_9  and  C8_10 
REMARK       I    between atoms: C8_10  and  N2_12 
REMARK    3  A    between atoms: N2_12  and  C9_13 
REMARK    4  A    between atoms: C9_13  and  C10_14 
REMARK    5  A    between atoms: C13_17  and  C14_18 
REMARK       I    between atoms: C14_18  and  N3_20 
REMARK    6  A    between atoms: N3_20  and  O4_21 
ROOT
ATOM      1  N1  NON d   1       3.154  -2.688  -0.333  0.00  0.00    -0.311 N 
ATOM      2  C8  NON d   1       3.082  -4.039  -0.398  0.00  0.00     0.299 C 
ATOM      3  O2  NON d   1       1.990  -4.595  -0.525  0.00  0.00    -0.254 OA
ATOM      4  N2  NON d   1       4.189  -4.820  -0.323  0.00  0.00    -0.240 NA
ATOM      5  H8  NON d   1       2.246  -2.247  -0.218  0.00  0.00     0.170 HD
ATOM      6  H9  NON d   1       3.904  -5.760  -0.563  0.00  0.00     0.132 HD
ENDROOT
BRANCH   4   7
ATOM      7  C9  NON d   1       5.054  -4.816   0.848  0.00  0.00     0.135 C 
BRANCH   7   8
ATOM      8  C10 NON d   1       6.326  -5.603   0.606  0.00  0.00    -0.045 A 
ATOM      9  C11 NON d   1       7.572  -4.964   0.572  0.00  0.00     0.009 A 
ATOM     10  C12 NON d   1       8.749  -5.698   0.375  0.00  0.00     0.017 A 
ATOM     11  C13 NON d   1       8.706  -7.090   0.203  0.00  0.00     0.034 A 
ATOM     12  C15 NON d   1       7.463  -7.731   0.221  0.00  0.00     0.017 A 
ATOM     13  C16 NON d   1       6.286  -6.994   0.423  0.00  0.00     0.009 A 
BRANCH  11  14
ATOM     14  C14 NON d   1      10.005  -7.812   0.035  0.00  0.00     0.275 C 
ATOM     15  O3  NON d   1      11.080  -7.218   0.109  0.00  0.00    -0.265 OA
ATOM     16  N3  NON d   1       9.965  -9.169  -0.188  0.00  0.00    -0.233 N 
ATOM     17  H14 NON d   1       9.148  -9.759  -0.234  0.00  0.00     0.197 HD
BRANCH  16  18
ATOM     18  O4  NON d   1      11.219  -9.819  -0.275  0.00  0.00    -0.287 OA
ATOM     19  H15 NON d   1      11.846  -9.076  -0.127  0.00  0.00     0.244 HD
ENDBRANCH  16  18
ENDBRANCH  11  14
ENDBRANCH   7   8
ENDBRANCH   4   7
BRANCH   1  20
ATOM     20  C7  NON d   1       4.215  -1.778  -0.516  0.00  0.00     0.069 C 
ATOM     21  C6  NON d   1       5.479  -2.175  -0.973  0.00  0.00     0.032 C 
ATOM     22  C5  NON d   1       6.545  -1.276  -1.030  0.00  0.00     0.002 C 
ATOM     23  C4  NON d   1       6.351   0.042  -0.650  0.00  0.00     0.003 C 
ATOM     24  C3  NON d   1       5.077   0.474  -0.276  0.00  0.00     0.039 C 
ATOM     25  C2  NON d   1       3.982  -0.412  -0.252  0.00  0.00     0.095 C 
BRANCH  25  26
ATOM     26  O1  NON d   1       2.667   0.000   0.000  0.00  0.00    -0.354 OA
ATOM     27  C1  NON d   1       2.667   1.540   0.000  0.00  0.00     0.210 C 
ENDBRANCH  25  26
ENDBRANCH   1  20
TORSDOF 6
