REMARK  7 active torsions:
REMARK  status: ('A' for Active; 'I' for Inactive)
REMARK    1  A    between atoms: C1_2  and  C2_3 
REMARK       I    between atoms: C1_2  and  N2_27 
REMARK    2  A    between atoms: C3_4  and  C4_5 
REMARK    3  A    between atoms: C7_8  and  N1_9 
REMARK    4  A    between atoms: N1_9  and  S1_10 
REMARK    5  A    between atoms: S1_10  and  C8_13 
REMARK    6  A    between atoms: C11_16  and  C12_17 
REMARK    7  A    between atoms: N2_27  and  O4_28 
ROOT
ATOM      1  N1  NON d   1       3.058 -12.843   0.691  0.00  0.00    -0.181 NA
ATOM      2  H5  NON d   1       3.833 -13.310   1.168  0.00  0.00     0.146 HD
ENDROOT
BRANCH   1   3
ATOM      3  C7  NON d   1       3.258 -11.435   0.557  0.00  0.00     0.022 A 
ATOM      4  C6  NON d   1       4.540 -10.916   0.401  0.00  0.00     0.025 A 
ATOM      5  C5  NON d   1       4.714  -9.538   0.232  0.00  0.00     0.013 A 
ATOM      6  C4  NON d   1       3.613  -8.666   0.202  0.00  0.00    -0.036 A 
ATOM      7  C21 NON d   1       2.330  -9.219   0.320  0.00  0.00     0.013 A 
ATOM      8  C20 NON d   1       2.153 -10.594   0.496  0.00  0.00     0.025 A 
BRANCH   6   9
ATOM      9  C3  NON d   1       3.868  -7.218   0.063  0.00  0.00     0.017 C 
ATOM     10  C2  NON d   1       2.928  -6.260   0.111  0.00  0.00     0.077 C 
BRANCH  10  11
ATOM     11  C1  NON d   1       3.156  -4.796   0.055  0.00  0.00     0.264 C 
ATOM     12  O1  NON d   1       2.227  -4.023   0.278  0.00  0.00    -0.266 OA
ATOM     13  N2  NON d   1       4.410  -4.358  -0.255  0.00  0.00    -0.234 N 
ATOM     14  H17 NON d   1       5.199  -4.928  -0.525  0.00  0.00     0.197 HD
BRANCH  13  15
ATOM     15  O4  NON d   1       4.593  -2.958  -0.303  0.00  0.00    -0.287 OA
ATOM     16  H18 NON d   1       3.701  -2.621  -0.063  0.00  0.00     0.244 HD
ENDBRANCH  13  15
ENDBRANCH  10  11
ENDBRANCH   6   9
ENDBRANCH   1   3
BRANCH   1  17
ATOM     17  S1  NON d   1       2.804 -13.686  -0.763  0.00  0.00     0.245 S 
ATOM     18  O2  NON d   1       3.890 -14.642  -0.844  0.00  0.00    -0.206 OA
ATOM     19  O3  NON d   1       2.514 -12.777  -1.849  0.00  0.00    -0.206 OA
BRANCH  17  20
ATOM     20  C8  NON d   1       1.309 -14.570  -0.393  0.00  0.00     0.074 A 
ATOM     21  C9  NON d   1       1.343 -15.928  -0.093  0.00  0.00     0.025 A 
ATOM     22  C10 NON d   1       0.142 -16.625   0.105  0.00  0.00     0.014 A 
ATOM     23  C11 NON d   1      -1.121 -16.004  -0.016  0.00  0.00    -0.026 A 
ATOM     24  C18 NON d   1      -1.105 -14.621  -0.300  0.00  0.00     0.014 A 
ATOM     25  C19 NON d   1       0.087 -13.909  -0.488  0.00  0.00     0.025 A 
BRANCH  23  26
ATOM     26  C12 NON d   1      -2.402 -16.771   0.096  0.00  0.00    -0.026 A 
ATOM     27  C13 NON d   1      -2.440 -18.179   0.020  0.00  0.00     0.012 A 
ATOM     28  C14 NON d   1      -3.642 -18.899   0.072  0.00  0.00     0.001 A 
ATOM     29  C15 NON d   1      -4.853 -18.230   0.190  0.00  0.00     0.000 A 
ATOM     30  C16 NON d   1      -4.857 -16.845   0.275  0.00  0.00     0.001 A 
ATOM     31  C17 NON d   1      -3.651 -16.132   0.240  0.00  0.00     0.012 A 
ENDBRANCH  23  26
ENDBRANCH  17  20
ENDBRANCH   1  17
TORSDOF 7
