REMARK  6 active torsions:
REMARK  status: ('A' for Active; 'I' for Inactive)
REMARK    1  A    between atoms: C1_2  and  C2_3 
REMARK       I    between atoms: C1_2  and  N4_18 
REMARK    2  A    between atoms: C2_3  and  N1_4 
REMARK    3  A    between atoms: C5_7  and  C6_8 
REMARK    4  A    between atoms: C9_11  and  C10_12 
REMARK       I    between atoms: C10_12  and  N2_14 
REMARK    5  A    between atoms: N2_14  and  O3_15 
REMARK    6  A    between atoms: N4_18  and  C11_19 
ROOT
ATOM      1  N1  NON d   1       5.366  -4.915  -0.007  0.00  0.00    -0.272 N 
ATOM      2  C3  NON d   1       6.427  -5.736  -0.249  0.00  0.00     0.115 A 
ATOM      3  C4  NON d   1       5.933  -7.018  -0.233  0.00  0.00     0.053 A 
ATOM      4  C5  NON d   1       4.539  -6.876  -0.050  0.00  0.00     0.095 A 
ATOM      5  N3  NON d   1       4.195  -5.587   0.060  0.00  0.00    -0.171 NA
ENDROOT
BRANCH   1   6
ATOM      6  C2  NON d   1       5.318  -3.459   0.057  0.00  0.00     0.253 C 
BRANCH   6   7
ATOM      7  C1  NON d   1       6.626  -2.765   0.380  0.00  0.00     0.242 C 
ATOM      8  O1  NON d   1       7.565  -3.320   0.942  0.00  0.00    -0.271 OA
ATOM      9  N4  NON d   1       6.612  -1.420   0.015  0.00  0.00    -0.326 N 
ATOM     10  H9  NON d   1       5.710  -1.004  -0.184  0.00  0.00     0.169 HD
BRANCH   9  11
ATOM     11  C11 NON d   1       7.715  -0.538   0.025  0.00  0.00     0.036 A 
ATOM     12  C12 NON d   1       7.447   0.832  -0.097  0.00  0.00     0.029 A 
ATOM     13  C13 NON d   1       8.489   1.764  -0.112  0.00  0.00     0.004 A 
ATOM     14  C14 NON d   1       9.810   1.331  -0.027  0.00  0.00     0.024 A 
ATOM     15  C15 NON d   1      10.081  -0.030   0.075  0.00  0.00     0.036 A 
ATOM     16 Cl1  NON d   1      11.717  -0.566   0.147  0.00  0.00    -0.084 Cl
ATOM     17  C16 NON d   1       9.043  -0.964   0.106  0.00  0.00     0.053 A 
ENDBRANCH   9  11
ENDBRANCH   6   7
ENDBRANCH   1   6
BRANCH   4  18
ATOM     18  C6  NON d   1       3.540  -7.997  -0.002  0.00  0.00     0.036 A 
ATOM     19  C7  NON d   1       3.869  -9.335  -0.044  0.00  0.00     0.023 A 
ATOM     20  C8  NON d   1       2.718 -10.179   0.002  0.00  0.00     0.026 A 
ATOM     21  C9  NON d   1       1.537  -9.462   0.067  0.00  0.00     0.075 A 
ATOM     22  S1  NON d   1       1.852  -7.772   0.103  0.00  0.00    -0.082 SA
BRANCH  21  23
ATOM     23  C10 NON d   1       0.156  -9.921   0.109  0.00  0.00     0.281 C 
ATOM     24  O2  NON d   1      -0.834  -9.188   0.160  0.00  0.00    -0.265 OA
ATOM     25  N2  NON d   1      -0.021 -11.289   0.071  0.00  0.00    -0.233 N 
ATOM     26  H7  NON d   1       0.707 -11.969  -0.100  0.00  0.00     0.197 HD
BRANCH  25  27
ATOM     27  O3  NON d   1      -1.354 -11.757   0.013  0.00  0.00    -0.287 OA
ATOM     28  H8  NON d   1      -1.867 -10.918   0.030  0.00  0.00     0.244 HD
ENDBRANCH  25  27
ENDBRANCH  21  23
ENDBRANCH   4  18
TORSDOF 6
