REMARK  6 active torsions:
REMARK  status: ('A' for Active; 'I' for Inactive)
REMARK    1  A    between atoms: N1_1  and  C1_2 
REMARK    2  A    between atoms: C6_7  and  N2_8 
REMARK       I    between atoms: N2_8  and  C7_9 
REMARK    3  A    between atoms: C7_9  and  C8_11 
REMARK    4  A    between atoms: C11_14  and  C12_15 
REMARK    5  A    between atoms: C12_15  and  N3_16 
REMARK    6  A    between atoms: N3_16  and  C13_17 
ROOT
ATOM      1  C8  NON d   1      -1.459 -11.485   0.066  0.00  0.00     0.032 A 
ATOM      2  C9  NON d   1      -2.705 -12.123   0.167  0.00  0.00     0.017 A 
ATOM      3  C10 NON d   1      -3.899 -11.394   0.150  0.00  0.00     0.009 A 
ATOM      4  C11 NON d   1      -3.889 -10.001   0.010  0.00  0.00    -0.045 A 
ATOM      5  C18 NON d   1      -2.641  -9.362  -0.091  0.00  0.00     0.009 A 
ATOM      6  C19 NON d   1      -1.440 -10.091  -0.063  0.00  0.00     0.017 A 
ENDROOT
BRANCH   1   7
ATOM      7  C7  NON d   1      -0.234 -12.356   0.135  0.00  0.00     0.256 C 
ATOM      8  N2  NON d   1       0.995 -11.740  -0.008  0.00  0.00    -0.321 N 
ATOM      9  H7  NON d   1       1.045 -10.751  -0.204  0.00  0.00     0.169 HD
ATOM     10  O1  NON d   1      -0.400 -13.557   0.331  0.00  0.00    -0.267 OA
BRANCH   8  11
ATOM     11  C6  NON d   1       2.272 -12.355   0.003  0.00  0.00     0.056 A 
ATOM     12  C5  NON d   1       2.472 -13.737   0.051  0.00  0.00     0.031 A 
ATOM     13  C4  NON d   1       3.762 -14.270  -0.014  0.00  0.00     0.002 A 
ATOM     14  C3  NON d   1       4.863 -13.427  -0.139  0.00  0.00     0.002 A 
ATOM     15  C2  NON d   1       4.679 -12.045  -0.177  0.00  0.00     0.025 A 
ATOM     16  C1  NON d   1       3.394 -11.499  -0.072  0.00  0.00     0.033 A 
BRANCH  16  17
ATOM     17  N1  NON d   1       3.225 -10.090  -0.075  0.00  0.00    -0.301 NA
ATOM     18  H1  NON d   1       4.120  -9.605  -0.076  0.00  0.00     0.124 HD
ATOM     19  H2  NON d   1       2.682  -9.808   0.739  0.00  0.00     0.124 HD
ENDBRANCH  16  17
ENDBRANCH   8  11
ENDBRANCH   1   7
BRANCH   4  20
ATOM     20  C12 NON d   1      -5.154  -9.154   0.008  0.00  0.00     0.132 C 
BRANCH  20  21
ATOM     21  N3  NON d   1      -6.360  -9.975  -0.050  0.00  0.00    -0.273 NA
ATOM     22  H12 NON d   1      -6.362 -10.568  -0.874  0.00  0.00     0.129 HD
BRANCH  21  23
ATOM     23  C13 NON d   1      -7.569  -9.261  -0.011  0.00  0.00     0.106 A 
ATOM     24  C14 NON d   1      -8.754 -10.001   0.001  0.00  0.00     0.044 A 
ATOM     25  C15 NON d   1      -9.980  -9.344   0.046  0.00  0.00     0.008 A 
ATOM     26  C16 NON d   1      -9.993  -7.958   0.077  0.00  0.00     0.063 A 
ATOM     27  C17 NON d   1      -8.778  -7.300   0.070  0.00  0.00     0.211 A 
ATOM     28  F1  NON d   1      -8.782  -5.959   0.094  0.00  0.00    -0.184 F 
ATOM     29  N4  NON d   1      -7.576  -7.916   0.033  0.00  0.00    -0.208 NA
ENDBRANCH  21  23
ENDBRANCH  20  21
ENDBRANCH   4  20
TORSDOF 6
