REMARK  5 active torsions:
REMARK  status: ('A' for Active; 'I' for Inactive)
REMARK    1  A    between atoms: C4_4  and  C2_2 
REMARK    2  A    between atoms: C13_19  and  C14_20 
REMARK    3  A    between atoms: C15_21  and  C16_22 
REMARK    4  A    between atoms: C16_22  and  C17_23 
REMARK    5  A    between atoms: C17_23  and  S1_24 
ROOT
ATOM      1  C4  NON d   1       3.931   2.936  -0.091  0.00  0.00     0.158 C 
ATOM      2  N1  NON d   1       5.103   2.692   0.776  0.00  0.00    -0.247 NA
ATOM      3  C5  NON d   1       6.374   2.940   0.281  0.00  0.00     0.220 C 
ATOM      4  O1  NON d   1       6.761   4.084   0.069  0.00  0.00    -0.278 OA
ATOM      5  C6  NON d   1       7.153   1.669  -0.135  0.00  0.00     0.166 C 
ATOM      6  C7  NON d   1       8.648   1.842   0.096  0.00  0.00     0.042 C 
ATOM      7  N2  NON d   1       6.602   0.488   0.530  0.00  0.00    -0.347 N 
ATOM      8  C8  NON d   1       6.906  -0.752   0.007  0.00  0.00     0.236 C 
ATOM      9  O2  NON d   1       8.051  -1.190  -0.028  0.00  0.00    -0.272 OA
ATOM     10  C9  NON d   1       5.712  -1.606  -0.469  0.00  0.00     0.151 C 
ATOM     11  C10 NON d   1       4.529  -0.747  -0.899  0.00  0.00     0.036 C 
ATOM     12  N3  NON d   1       5.354  -2.586   0.546  0.00  0.00    -0.250 NA
ATOM     13  C11 NON d   1       4.277  -3.401   0.211  0.00  0.00     0.200 C 
ATOM     14  O3  NON d   1       4.321  -4.154  -0.752  0.00  0.00    -0.280 OA
ATOM     15  C12 NON d   1       3.134  -3.281   1.188  0.00  0.00     0.133 C 
ATOM     16  C13 NON d   1       1.768  -2.900   0.600  0.00  0.00     0.162 C 
ATOM     17  O4  NON d   1       1.788  -1.551   0.052  0.00  0.00    -0.310 OA
ATOM     18  C18 NON d   1       0.669  -0.807   0.292  0.00  0.00     0.277 C 
ATOM     19  O5  NON d   1      -0.388  -1.282   0.704  0.00  0.00    -0.263 OA
ATOM     20  C19 NON d   1       0.782   0.693  -0.021  0.00  0.00     0.233 C 
ATOM     21  N4  NON d   1       2.031   1.355  -0.404  0.00  0.00    -0.350 N 
ATOM     22  C20 NON d   1       2.762   2.099   0.503  0.00  0.00     0.236 C 
ATOM     23  O6  NON d   1       2.516   2.085   1.708  0.00  0.00    -0.272 OA
ATOM     24  H9  NON d   1       4.969   3.238   1.621  0.00  0.00     0.131 HD
ATOM     25  H14 NON d   1       5.656   0.634   0.868  0.00  0.00     0.163 HD
ATOM     26  H19 NON d   1       6.172  -3.180   0.658  0.00  0.00     0.131 HD
ATOM     27  H32 NON d   1       2.280   1.355  -1.384  0.00  0.00     0.163 HD
ENDROOT
BRANCH  16  28
ATOM     28  C14 NON d   1       1.046  -3.896  -0.289  0.00  0.00     0.002 C 
ATOM     29  C15 NON d   1       1.369  -5.191  -0.466  0.00  0.00    -0.027 C 
BRANCH  29  30
ATOM     30  C16 NON d   1       0.415  -6.278  -0.915  0.00  0.00     0.037 C 
BRANCH  30  31
ATOM     31  C17 NON d   1      -1.013  -6.051  -0.407  0.00  0.00     0.074 C 
BRANCH  31  32
ATOM     32  S1  NON d   1      -2.043  -7.540  -0.514  0.00  0.00    -0.182 SA
ATOM     33  H29 NON d   1      -3.123  -6.990   0.063  0.00  0.00     0.101 HD
ENDBRANCH  31  32
ENDBRANCH  30  31
ENDBRANCH  29  30
ENDBRANCH  16  28
BRANCH   1  34
ATOM     34  C2  NON d   1       3.590   4.450  -0.251  0.00  0.00     0.004 C 
ATOM     35  C1  NON d   1       3.410   5.208   1.075  0.00  0.00     0.011 C 
ATOM     36  C3  NON d   1       2.365   4.679  -1.141  0.00  0.00     0.011 C 
ENDBRANCH   1  34
TORSDOF 5
