@<TRIPOS>MOLECULE
*****
 52 55 0 0 0
SMALL
USER_CHARGES

@<TRIPOS>ATOM
      1 O1          1.8560  -12.1729   -2.0978 O.2     1  NONAME1    -0.2675
      2 C1          1.1131  -12.5589   -2.9984 C.2     1  NONAME1     0.2731
      3 N1          0.6065  -11.6864   -3.9571 N.am    1  NONAME1    -0.1930
      4 O2          0.7310  -10.3060   -3.6739 O.3     1  NONAME1    -0.2949
      5 C2          0.6834  -13.9495   -3.1770 C.ar    1  NONAME1     0.0764
      6 C3         -0.0058  -14.5334   -4.2265 C.ar    1  NONAME1    -0.0418
      7 C4         -0.2263  -15.9316   -4.0387 C.ar    1  NONAME1    -0.0447
      8 C5          0.3052  -16.3930   -2.8525 C.ar    1  NONAME1     0.0400
      9 C6          0.2516  -17.8332   -2.4080 C.ar    1  NONAME1     0.0993
     10 C7         -0.3015  -18.9131   -3.1378 C.ar    1  NONAME1    -0.0158
     11 C8         -0.0753  -20.0374   -2.3742 C.ar    1  NONAME1     0.0263
     12 N2          0.5779  -19.6007   -1.2613 N.ar    1  NONAME1    -0.2658
     13 C9          1.0958  -20.3545   -0.1336 C.3     1  NONAME1     0.0814
     14 C10         0.9760  -21.8800   -0.1956 C.3     1  NONAME1    -0.0133
     15 N3         -0.3955  -22.3615    0.2144 N.4     1  NONAME1     0.2316
     16 C11        -0.6101  -23.8445    0.1181 C.3     1  NONAME1    -0.0076
     17 C12        -0.1536  -24.6986    1.2721 C.ar    1  NONAME1    -0.0029
     18 C13        -0.4265  -26.0763    1.2159 C.ar    1  NONAME1    -0.0529
     19 C14        -0.0541  -26.9457    2.2549 C.ar    1  NONAME1    -0.0521
     20 C15         0.6119  -26.4830    3.3996 C.ar    1  NONAME1     0.0004
     21 C16         1.0244  -27.3695    4.5239 C.ar    1  NONAME1     0.0710
     22 C17         0.7378  -28.7345    4.5943 C.ar    1  NONAME1    -0.0357
     23 C18         1.1702  -29.4773    5.6948 C.ar    1  NONAME1    -0.0583
     24 C19         1.8783  -28.8490    6.7071 C.ar    1  NONAME1    -0.0436
     25 C20         2.1262  -27.4969    6.5749 C.ar    1  NONAME1     0.0283
     26 N4          1.7196  -26.7543    5.5177 N.ar    1  NONAME1    -0.2550
     27 C21         0.8813  -25.0995    3.4398 C.ar    1  NONAME1    -0.0521
     28 C22         0.5077  -24.2211    2.4066 C.ar    1  NONAME1    -0.0529
     29 N5          0.7559  -18.2681   -1.2452 N.ar    1  NONAME1    -0.1705
     30 S1          1.0457  -15.1263   -1.9724 S.2     1  NONAME1    -0.0820
     31 H1         -0.2419  -11.9354   -4.4495 H       1  NONAME1     0.1825
     32 H2          1.5868  -10.0883   -4.0896 H       1  NONAME1     0.2414
     33 H3         -0.3348  -14.0035   -5.1119 H       1  NONAME1     0.0631
     34 H4         -0.7424  -16.5501   -4.7616 H       1  NONAME1     0.0630
     35 H5         -0.7776  -18.8850   -4.1092 H       1  NONAME1     0.0655
     36 H6         -0.3050  -21.0708   -2.5817 H       1  NONAME1     0.0826
     37 H7          2.1598  -20.0950   -0.0745 H       1  NONAME1     0.0562
     38 H8          0.6002  -19.9648    0.7633 H       1  NONAME1     0.0562
     39 H9          1.6806  -22.3300    0.5094 H       1  NONAME1     0.0832
     40 H10         1.1797  -22.2741   -1.1964 H       1  NONAME1     0.0832
     41 H11        -1.1072  -21.9185   -0.3822 H       1  NONAME1     0.2017
     42 H12        -0.6294  -22.0621    1.1712 H       1  NONAME1     0.2017
     43 H13        -0.1384  -24.1768   -0.8138 H       1  NONAME1     0.0866
     44 H14        -1.6948  -23.9633    0.0140 H       1  NONAME1     0.0866
     45 H15        -0.9450  -26.5068    0.3585 H       1  NONAME1     0.0622
     46 H16        -0.3015  -27.9987    2.1385 H       1  NONAME1     0.0624
     47 H17         0.1825  -29.2492    3.8199 H       1  NONAME1     0.0639
     48 H18         0.9519  -30.5399    5.7570 H       1  NONAME1     0.0619
     49 H19         2.2270  -29.3970    7.5751 H       1  NONAME1     0.0633
     50 H20         2.6744  -26.9538    7.3394 H       1  NONAME1     0.0830
     51 H21         1.3988  -24.6842    4.3051 H       1  NONAME1     0.0624
     52 H22         0.7608  -23.1783    2.5445 H       1  NONAME1     0.0622
@<TRIPOS>BOND
     1     1     2    2
     2     2     3   am
     3     3     4    1
     4     2     5    1
     5     5     6   ar
     6     6     7   ar
     7     7     8   ar
     8     8     9    1
     9     9    10   ar
    10    10    11   ar
    11    11    12   ar
    12    12    13    1
    13    13    14    1
    14    14    15    1
    15    15    16    1
    16    16    17    1
    17    17    18   ar
    18    18    19   ar
    19    19    20   ar
    20    20    21    1
    21    21    22   ar
    22    22    23   ar
    23    23    24   ar
    24    24    25   ar
    25    25    26   ar
    26    21    26   ar
    27    20    27   ar
    28    27    28   ar
    29    17    28   ar
    30    12    29   ar
    31     9    29   ar
    32     8    30   ar
    33     5    30   ar
    34     3    31    1
    35     4    32    1
    36     6    33    1
    37     7    34    1
    38    10    35    1
    39    11    36    1
    40    13    37    1
    41    13    38    1
    42    14    39    1
    43    14    40    1
    44    15    41    1
    45    15    42    1
    46    16    43    1
    47    16    44    1
    48    18    45    1
    49    19    46    1
    50    22    47    1
    51    23    48    1
    52    24    49    1
    53    25    50    1
    54    27    51    1
    55    28    52    1
