@<TRIPOS>MOLECULE
*****
 53 55 0 0 0
SMALL
USER_CHARGES

@<TRIPOS>ATOM
      1 C1          4.3748   17.3650    0.6597 C.3     1  NONAME1    -0.0586
      2 C2          5.5339   16.5950    0.0000 C.3     1  NONAME1    -0.0016
      3 P1          5.5339   15.0550    0.0000 P.3     1  NONAME1     0.0927
      4 O1          4.2828   15.1011   -0.8791 O.2     1  NONAME1    -0.3207
      5 C3          5.5222   15.0550    1.5400 C.3     1  NONAME1    -0.0016
      6 C4          5.5145   16.3887    2.3099 C.3     1  NONAME1    -0.0586
      7 C5          5.5339   13.5150    0.0000 C.3     1  NONAME1     0.0261
      8 C6          4.2362   12.5906    0.1807 C.ar    1  NONAME1    -0.0402
      9 C7          4.2565   11.2010   -0.0544 C.ar    1  NONAME1    -0.0574
     10 C8          3.0545   10.4342   -0.1066 C.ar    1  NONAME1    -0.0494
     11 C9          1.8088   11.0512    0.0625 C.ar    1  NONAME1     0.0370
     12 C10         0.4645   10.4400   -0.2061 C.2     1  NONAME1     0.2483
     13 O2         -0.3683   11.1801   -0.7291 O.2     1  NONAME1    -0.2699
     14 N1          0.2336    9.1139    0.1300 N.am    1  NONAME1    -0.2799
     15 C11        -1.0330    8.4262    0.0861 C.ar    1  NONAME1     0.0551
     16 C12        -0.9816    7.0083    0.0570 C.ar    1  NONAME1    -0.0305
     17 C13        -2.1436    6.1980    0.0123 C.ar    1  NONAME1    -0.0094
     18 C14        -2.0592    4.7105   -0.0212 C.ar    1  NONAME1     0.0194
     19 C15        -0.9427    3.8861   -0.0116 C.ar    1  NONAME1    -0.0469
     20 C16        -1.2615    2.4934   -0.0323 C.ar    1  NONAME1    -0.0541
     21 C17        -2.6150    2.2726   -0.0642 C.ar    1  NONAME1    -0.0237
     22 S1         -3.4895    3.7339   -0.0757 S.2     1  NONAME1    -0.0967
     23 C18        -3.3806    6.8523    0.0232 C.ar    1  NONAME1    -0.0517
     24 C19        -3.4562    8.2413    0.0887 C.ar    1  NONAME1    -0.0386
     25 C20        -2.3086    9.0454    0.0914 C.ar    1  NONAME1     0.0461
     26 N2         -2.5197   10.4089    0.3923 N.pl3   1  NONAME1    -0.3565
     27 C21         1.7922   12.4110    0.3797 C.ar    1  NONAME1    -0.0494
     28 C22         2.9749   13.1524    0.4594 C.ar    1  NONAME1    -0.0574
     29 H1          3.6127   17.1474   -0.1160 H       1  NONAME1     0.0234
     30 H2          3.2157   18.1350    1.3194 H       1  NONAME1     0.0234
     31 H3          4.7819   18.3768    0.4408 H       1  NONAME1     0.0234
     32 H4          5.5570   16.9786   -1.0388 H       1  NONAME1     0.0339
     33 H5          6.4838   17.0536    0.3295 H       1  NONAME1     0.0339
     34 H6          6.3696   14.5165    2.0023 H       1  NONAME1     0.0339
     35 H7          4.6554   14.5392    1.9805 H       1  NONAME1     0.0339
     36 H8          6.6224   16.4800    2.3966 H       1  NONAME1     0.0234
     37 H9          5.5068   17.7224    3.0799 H       1  NONAME1     0.0234
     38 H10         5.1634   15.9617    3.2756 H       1  NONAME1     0.0234
     39 H11         5.8733   13.1807   -0.9959 H       1  NONAME1     0.0390
     40 H12         6.2758   12.9954    0.6293 H       1  NONAME1     0.0390
     41 H13         5.2012   10.7031   -0.2632 H       1  NONAME1     0.0621
     42 H14         3.1177    9.3808   -0.3623 H       1  NONAME1     0.0625
     43 H15         1.0366    8.5503    0.3676 H       1  NONAME1     0.1552
     44 H16        -0.0064    6.5306    0.0515 H       1  NONAME1     0.0643
     45 H17         0.0730    4.2535    0.0164 H       1  NONAME1     0.0629
     46 H18        -0.5321    1.6925   -0.0217 H       1  NONAME1     0.0623
     47 H19        -3.1368    1.3250   -0.0824 H       1  NONAME1     0.0693
     48 H20        -4.3196    6.3078    0.0080 H       1  NONAME1     0.0624
     49 H21        -4.4404    8.6999    0.1564 H       1  NONAME1     0.0637
     50 H22        -1.7543   10.9755    0.0102 H       1  NONAME1     0.1424
     51 H23        -3.3994   10.7605    0.0308 H       1  NONAME1     0.1424
     52 H24         0.8446   12.9354    0.5018 H       1  NONAME1     0.0625
     53 H25         2.8518   14.2170    0.6479 H       1  NONAME1     0.0621
@<TRIPOS>BOND
     1     1     2    1
     2     2     3    1
     3     3     4    2
     4     3     5    1
     5     5     6    1
     6     3     7    1
     7     7     8    1
     8     8     9   ar
     9     9    10   ar
    10    10    11   ar
    11    11    12    1
    12    12    13    2
    13    12    14   am
    14    14    15    1
    15    15    16   ar
    16    16    17   ar
    17    17    18    1
    18    18    19   ar
    19    19    20   ar
    20    20    21   ar
    21    21    22   ar
    22    18    22   ar
    23    17    23   ar
    24    23    24   ar
    25    24    25   ar
    26    15    25   ar
    27    25    26    1
    28    11    27   ar
    29    27    28   ar
    30     8    28   ar
    31     1    29    1
    32     1    30    1
    33     1    31    1
    34     2    32    1
    35     2    33    1
    36     5    34    1
    37     5    35    1
    38     6    36    1
    39     6    37    1
    40     6    38    1
    41     7    39    1
    42     7    40    1
    43     9    41    1
    44    10    42    1
    45    14    43    1
    46    16    44    1
    47    19    45    1
    48    20    46    1
    49    21    47    1
    50    23    48    1
    51    24    49    1
    52    26    50    1
    53    26    51    1
    54    27    52    1
    55    28    53    1
