REMARK  7 active torsions:
REMARK  status: ('A' for Active; 'I' for Inactive)
REMARK    1  A    between atoms: C1_2  and  C2_3 
REMARK       I    between atoms: C1_2  and  N1_12 
REMARK    2  A    between atoms: C2_3  and  C3_4 
REMARK    3  A    between atoms: C3_4  and  C4_5 
REMARK    4  A    between atoms: C4_5  and  C5_6 
REMARK    5  A    between atoms: N1_12  and  C11_13 
REMARK    6  A    between atoms: C13_15  and  C14_16 
REMARK    7  A    between atoms: C22_24  and  O2_25 
ROOT
ATOM      1  C11 NON d   1       2.609 -11.127  -0.176  0.00  0.00     0.069 A 
ATOM      2  C12 NON d   1       3.761 -10.309  -0.105  0.00  0.00     0.044 A 
ATOM      3  C13 NON d   1       5.073 -10.838  -0.009  0.00  0.00    -0.024 A 
ATOM      4  C20 NON d   1       5.164 -12.243   0.034  0.00  0.00     0.015 A 
ATOM      5  C21 NON d   1       4.048 -13.067  -0.099  0.00  0.00     0.040 A 
ATOM      6  C22 NON d   1       2.787 -12.507  -0.235  0.00  0.00     0.092 A 
ENDROOT
BRANCH   1   7
ATOM      7  N1  NON d   1       1.350 -10.478  -0.232  0.00  0.00    -0.325 N 
ATOM      8  C1  NON d   1       0.130 -11.018   0.146  0.00  0.00     0.222 C 
ATOM      9  O1  NON d   1      -0.022 -12.084   0.749  0.00  0.00    -0.273 OA
ATOM     10  H12 NON d   1       1.365  -9.480  -0.388  0.00  0.00     0.169 HD
BRANCH   8  11
ATOM     11  C2  NON d   1      -1.028 -10.077  -0.158  0.00  0.00     0.103 C 
BRANCH  11  12
ATOM     12  C3  NON d   1      -2.416 -10.704   0.020  0.00  0.00     0.014 C 
BRANCH  12  13
ATOM     13  C4  NON d   1      -2.776 -11.644  -1.139  0.00  0.00     0.039 C 
BRANCH  13  14
ATOM     14  C5  NON d   1      -4.114 -12.352  -1.069  0.00  0.00    -0.058 A 
ATOM     15  C6  NON d   1      -5.054 -12.151  -0.051  0.00  0.00     0.007 A 
ATOM     16  C7  NON d   1      -6.267 -12.848  -0.050  0.00  0.00     0.001 A 
ATOM     17  C8  NON d   1      -6.560 -13.751  -1.070  0.00  0.00     0.000 A 
ATOM     18  C9  NON d   1      -5.642 -13.956  -2.095  0.00  0.00     0.001 A 
ATOM     19  C10 NON d   1      -4.429 -13.262  -2.093  0.00  0.00     0.007 A 
ENDBRANCH  13  14
ENDBRANCH  12  13
ENDBRANCH  11  12
ENDBRANCH   8  11
ENDBRANCH   1   7
BRANCH   6  20
ATOM     20  O2  NON d   1       1.789 -13.385  -0.540  0.00  0.00    -0.358 OA
ATOM     21  H21 NON d   1       1.364 -13.613   0.310  0.00  0.00     0.217 HD
ENDBRANCH   6  20
BRANCH   3  22
ATOM     22  C14 NON d   1       6.306  -9.974   0.022  0.00  0.00    -0.026 A 
ATOM     23  C15 NON d   1       6.249  -8.567   0.070  0.00  0.00     0.012 A 
ATOM     24  C16 NON d   1       7.403  -7.771   0.060  0.00  0.00     0.001 A 
ATOM     25  C17 NON d   1       8.667  -8.356   0.018  0.00  0.00     0.000 A 
ATOM     26  C18 NON d   1       8.764  -9.742  -0.025  0.00  0.00     0.001 A 
ATOM     27  C19 NON d   1       7.606 -10.530  -0.029  0.00  0.00     0.012 A 
ENDBRANCH   3  22
TORSDOF 7
