@<TRIPOS>MOLECULE
*****
 84 86 0 0 0
SMALL
USER_CHARGES

@<TRIPOS>ATOM
      1 C1         -4.2615   -7.2986    1.7442 C.3     1  NONAME1    -0.0652
      2 C2         -2.7526   -7.3569    1.5317 C.3     1  NONAME1    -0.0538
      3 C3         -2.2631   -6.6167    0.2775 C.3     1  NONAME1    -0.0262
      4 C4         -2.4172   -5.0807    0.3626 C.3     1  NONAME1     0.0994
      5 N1         -3.2587   -4.5823   -0.7122 N.am    1  NONAME1    -0.3025
      6 C5         -4.5679   -4.3663   -0.3508 C.2     1  NONAME1     0.2337
      7 O1         -5.4042   -5.2335   -0.5969 O.2     1  NONAME1    -0.2738
      8 C6         -4.9225   -2.9076    0.0000 C.3     1  NONAME1     0.0966
      9 C7         -6.4583   -2.7936    0.0000 C.3     1  NONAME1    -0.0381
     10 N2         -4.1371   -1.9907    0.7779 N.am    1  NONAME1    -0.3042
     11 C8         -3.3666   -1.0862    0.0708 C.2     1  NONAME1     0.2154
     12 O2         -3.1389   -1.2014   -1.1285 O.2     1  NONAME1    -0.2757
     13 C9         -2.8289    0.0459    0.8826 C.3     1  NONAME1     0.0424
     14 C10        -1.9194    0.9693    0.0363 C.3     1  NONAME1     0.0316
     15 C11        -2.0458    2.3831    0.6697 C.3     1  NONAME1    -0.0317
     16 C12        -1.0281    3.4935    0.3760 C.3     1  NONAME1    -0.0450
     17 C13         0.3123    3.2437    1.0644 C.3     1  NONAME1    -0.0626
     18 C14        -0.8826    3.8339   -1.1034 C.3     1  NONAME1    -0.0626
     19 N3         -0.5379    0.4471   -0.0577 N.am    1  NONAME1    -0.3105
     20 C15        -0.3389   -0.7444   -0.7669 C.2     1  NONAME1     0.2339
     21 O3         -0.2016   -0.7018   -1.9866 O.2     1  NONAME1    -0.2738
     22 C16        -0.1514   -2.0347    0.0729 C.3     1  NONAME1     0.1034
     23 C17         1.3613   -2.3564    0.0419 C.3     1  NONAME1     0.0013
     24 C18         2.1343   -1.8492    1.2387 C.ar    1  NONAME1    -0.0197
     25 C19         1.7105   -0.9948    2.2346 C.ar    1  NONAME1     0.0138
     26 N4          2.6439   -1.0116    3.2382 N.ar    1  NONAME1    -0.3086
     27 C20         2.4607   -0.5940    4.6263 C.3     1  NONAME1     0.0483
     28 N5          1.3380    0.4025    4.8770 N.4     1  NONAME1     0.2462
     29 C21         1.5475    1.1210    6.1821 C.3     1  NONAME1    -0.0416
     30 C22        -0.0486   -0.1797    4.8154 C.3     1  NONAME1    -0.0416
     31 C23         3.8020   -1.6112    2.7734 C.ar    1  NONAME1     0.0538
     32 C24         5.0783   -1.7397    3.3455 C.ar    1  NONAME1    -0.0374
     33 C25         6.0465   -2.4552    2.6336 C.ar    1  NONAME1    -0.0598
     34 C26         5.7497   -3.0451    1.4106 C.ar    1  NONAME1    -0.0611
     35 C27         4.4742   -2.9232    0.8549 C.ar    1  NONAME1    -0.0523
     36 C28         3.4901   -2.1792    1.5354 C.ar    1  NONAME1     0.0033
     37 N6         -0.9928   -3.1642   -0.3461 N.am    1  NONAME1    -0.3022
     38 C29        -1.0887   -4.2958    0.4544 C.2     1  NONAME1     0.2340
     39 O4         -0.2535   -4.5694    1.3151 O.2     1  NONAME1    -0.2738
     40 H1         -4.6227   -6.2724    1.8485 H       1  NONAME1     0.0230
     41 H2         -4.7971   -7.7710    0.9139 H       1  NONAME1     0.0230
     42 H3         -4.5321   -7.8327    2.6614 H       1  NONAME1     0.0230
     43 H4         -2.4674   -8.4127    1.4454 H       1  NONAME1     0.0263
     44 H5         -2.2433   -6.9597    2.4157 H       1  NONAME1     0.0263
     45 H6         -1.2132   -6.8813    0.1078 H       1  NONAME1     0.0288
     46 H7         -2.8172   -7.0264   -0.5789 H       1  NONAME1     0.0288
     47 H8         -2.9201   -4.8262    1.3052 H       1  NONAME1     0.0594
     48 H9         -3.2517   -5.2422   -1.4836 H       1  NONAME1     0.1495
     49 H10        -4.7877   -2.5388   -1.0315 H       1  NONAME1     0.0592
     50 H11        -6.4916   -1.6851   -0.0728 H       1  NONAME1     0.0252
     51 H12        -7.9941   -2.6796    0.0000 H       1  NONAME1     0.0252
     52 H13        -6.5766   -3.0719    1.0685 H       1  NONAME1     0.0252
     53 H14        -4.3723   -1.8444    1.7501 H       1  NONAME1     0.1494
     54 H15        -3.7087    0.6003    1.2366 H       1  NONAME1     0.0376
     55 H16        -2.2943   -0.3400    1.7529 H       1  NONAME1     0.0376
     56 H17        -2.2874    1.0391   -0.9974 H       1  NONAME1     0.0503
     57 H18        -2.1028    2.2802    1.7602 H       1  NONAME1     0.0286
     58 H19        -3.0354    2.7644    0.3660 H       1  NONAME1     0.0286
     59 H20        -1.4394    4.3984    0.8444 H       1  NONAME1     0.0296
     60 H21         1.1548    3.2791    0.3667 H       1  NONAME1     0.0232
     61 H22         0.4847    4.0145    1.8251 H       1  NONAME1     0.0232
     62 H23         0.3445    2.2845    1.5937 H       1  NONAME1     0.0232
     63 H24        -0.6224    2.9658   -1.7142 H       1  NONAME1     0.0232
     64 H25        -1.8178    4.2536   -1.4937 H       1  NONAME1     0.0232
     65 H26        -0.1056    4.5946   -1.2493 H       1  NONAME1     0.0232
     66 H27        -0.0499    1.1207   -0.6411 H       1  NONAME1     0.1490
     67 H28        -0.4892   -1.8280    1.0925 H       1  NONAME1     0.0598
     68 H29         1.8299   -1.9523   -0.8645 H       1  NONAME1     0.0337
     69 H30         1.5179   -3.4413   -0.0133 H       1  NONAME1     0.0337
     70 H31         0.7714   -0.4780    2.3323 H       1  NONAME1     0.0814
     71 H32         3.3867   -0.1049    4.9394 H       1  NONAME1     0.1072
     72 H33         2.2653   -1.4836    5.2318 H       1  NONAME1     0.1072
     73 H34         1.4312    1.0992    4.1250 H       1  NONAME1     0.2047
     74 H35         0.7592    1.8727    6.2864 H       1  NONAME1     0.0778
     75 H36         1.4939    0.3859    6.9910 H       1  NONAME1     0.0778
     76 H37         2.5264    1.6043    6.1602 H       1  NONAME1     0.0778
     77 H38        -0.0457   -1.1196    4.2581 H       1  NONAME1     0.0778
     78 H39        -0.4121   -0.3692    5.8278 H       1  NONAME1     0.0778
     79 H40        -0.6871    0.5567    4.3160 H       1  NONAME1     0.0778
     80 H41         5.3396   -1.2972    4.3008 H       1  NONAME1     0.0638
     81 H42         7.0474   -2.5588    3.0448 H       1  NONAME1     0.0618
     82 H43         6.5142   -3.6057    0.8763 H       1  NONAME1     0.0618
     83 H44         4.2563   -3.3879   -0.1045 H       1  NONAME1     0.0624
     84 H45        -1.7793   -2.9633   -0.9672 H       1  NONAME1     0.1495
@<TRIPOS>BOND
     1     1     2    1
     2     2     3    1
     3     4     3    1
     4     4     5    1
     5     5     6   am
     6     6     7    2
     7     8     6    1
     8     8     9    1
     9     8    10    1
    10    10    11   am
    11    11    12    2
    12    11    13    1
    13    14    13    1
    14    14    15    1
    15    15    16    1
    16    16    17    1
    17    16    18    1
    18    14    19    1
    19    19    20   am
    20    20    21    2
    21    22    20    1
    22    22    23    1
    23    23    24    1
    24    24    25   ar
    25    25    26   ar
    26    26    27    1
    27    27    28    1
    28    28    29    1
    29    28    30    1
    30    26    31   ar
    31    31    32   ar
    32    32    33   ar
    33    33    34   ar
    34    34    35   ar
    35    35    36   ar
    36    24    36   ar
    37    31    36   ar
    38    22    37    1
    39    37    38   am
    40     4    38    1
    41    38    39    2
    42     1    40    1
    43     1    41    1
    44     1    42    1
    45     2    43    1
    46     2    44    1
    47     3    45    1
    48     3    46    1
    49     4    47    1
    50     5    48    1
    51     8    49    1
    52     9    50    1
    53     9    51    1
    54     9    52    1
    55    10    53    1
    56    13    54    1
    57    13    55    1
    58    14    56    1
    59    15    57    1
    60    15    58    1
    61    16    59    1
    62    17    60    1
    63    17    61    1
    64    17    62    1
    65    18    63    1
    66    18    64    1
    67    18    65    1
    68    19    66    1
    69    22    67    1
    70    23    68    1
    71    23    69    1
    72    25    70    1
    73    27    71    1
    74    27    72    1
    75    28    73    1
    76    29    74    1
    77    29    75    1
    78    29    76    1
    79    30    77    1
    80    30    78    1
    81    30    79    1
    82    32    80    1
    83    33    81    1
    84    34    82    1
    85    35    83    1
    86    37    84    1
