@<TRIPOS>MOLECULE
*****
 33 33 0 0 0
SMALL
USER_CHARGES

@<TRIPOS>ATOM
      1 C1          2.3342   -8.6346    1.2142 C.3     1  NONAME1    -0.0649
      2 C2          2.6675   -7.6998    0.0366 C.3     1  NONAME1    -0.0509
      3 C3          4.0231   -7.0023    0.1863 C.3     1  NONAME1    -0.0152
      4 C4          5.3239   -7.8122    0.0899 C.2     1  NONAME1     0.0296
      5 S1          5.3735   -9.4603   -0.2101 S.2     1  NONAME1    -0.0494
      6 S2          6.7417   -6.7708    0.3338 S.3     1  NONAME1    -0.1140
      7 C5          8.1662   -7.8266   -0.0572 C.3     1  NONAME1     0.0616
      8 C6          9.4640   -7.0274   -0.1050 C.2     1  NONAME1     0.1732
      9 O1          9.5063   -5.8009   -0.1902 O.2     1  NONAME1    -0.2912
     10 C7         10.7611   -7.7785   -0.0924 C.ar    1  NONAME1     0.0185
     11 C8         11.9569   -7.0445   -0.0790 C.ar    1  NONAME1    -0.0478
     12 C9         13.1996   -7.6913   -0.0518 C.ar    1  NONAME1    -0.0193
     13 C10        13.2608   -9.0824   -0.0306 C.ar    1  NONAME1     0.1201
     14 O2         14.3977   -9.8391    0.0217 O.3     1  NONAME1    -0.4951
     15 C11        15.6329   -9.1424    0.1314 C.3     1  NONAME1     0.0788
     16 C12        12.0723   -9.8164   -0.0627 C.ar    1  NONAME1    -0.0193
     17 C13        10.8274   -9.1749   -0.0955 C.ar    1  NONAME1    -0.0478
     18 H1          2.2299   -7.8238    1.9651 H       1  NONAME1     0.0230
     19 H2          2.0009   -9.5694    2.3918 H       1  NONAME1     0.0230
     20 H3          1.3231   -8.9016    0.8432 H       1  NONAME1     0.0230
     21 H4          1.8896   -6.9280   -0.0428 H       1  NONAME1     0.0266
     22 H5          2.6360   -8.2689   -0.9001 H       1  NONAME1     0.0266
     23 H6          4.0775   -6.2374   -0.6018 H       1  NONAME1     0.0323
     24 H7          4.0340   -6.4598    1.1413 H       1  NONAME1     0.0323
     25 H8          8.0333   -8.2902   -1.0386 H       1  NONAME1     0.0461
     26 H9          8.2391   -8.5833    0.7294 H       1  NONAME1     0.0461
     27 H10        11.9309   -5.9553   -0.0872 H       1  NONAME1     0.0626
     28 H11        14.0933   -7.0761   -0.0460 H       1  NONAME1     0.0654
     29 H12        16.4216   -9.8848    0.2899 H       1  NONAME1     0.0660
     30 H13        15.8578   -8.6050   -0.7954 H       1  NONAME1     0.0660
     31 H14        15.6410   -8.4665    0.9930 H       1  NONAME1     0.0660
     32 H15        12.1167  -10.9039   -0.0568 H       1  NONAME1     0.0654
     33 H16         9.9396   -9.7982   -0.1250 H       1  NONAME1     0.0626
@<TRIPOS>BOND
     1     1     2    1
     2     2     3    1
     3     3     4    1
     4     4     5    2
     5     4     6    1
     6     6     7    1
     7     7     8    1
     8     8     9    2
     9     8    10    1
    10    10    11   ar
    11    11    12   ar
    12    12    13   ar
    13    13    14    1
    14    14    15    1
    15    13    16   ar
    16    16    17   ar
    17    10    17   ar
    18     1    18    1
    19     1    19    1
    20     1    20    1
    21     2    21    1
    22     2    22    1
    23     3    23    1
    24     3    24    1
    25     7    25    1
    26     7    26    1
    27    11    27    1
    28    12    28    1
    29    15    29    1
    30    15    30    1
    31    15    31    1
    32    16    32    1
    33    17    33    1
