REMARK  9 active torsions:
REMARK  status: ('A' for Active; 'I' for Inactive)
REMARK    1  A    between atoms: N1_1  and  C1_2 
REMARK    2  A    between atoms: C6_7  and  N2_8 
REMARK       I    between atoms: N2_8  and  C7_9 
REMARK    3  A    between atoms: C7_9  and  C8_11 
REMARK    4  A    between atoms: C11_14  and  C12_15 
REMARK    5  A    between atoms: C12_15  and  N3_16 
REMARK    6  A    between atoms: N3_16  and  C13_17 
REMARK    7  A    between atoms: C16_21  and  C17_22 
REMARK    8  A    between atoms: C19_24  and  C20_25 
REMARK    9  A    between atoms: C20_25  and  O2_26 
ROOT
ATOM      1  C8  NON d   1      -1.315  12.349  -0.093  0.00  0.00     0.032 A 
ATOM      2  C9  NON d   1      -0.064  12.968   0.017  0.00  0.00     0.017 A 
ATOM      3  C10 NON d   1       1.106  12.213   0.099  0.00  0.00     0.009 A 
ATOM      4  C11 NON d   1       1.072  10.809   0.061  0.00  0.00    -0.045 A 
ATOM      5  C21 NON d   1      -0.179  10.187  -0.040  0.00  0.00     0.009 A 
ATOM      6  C22 NON d   1      -1.364  10.948  -0.122  0.00  0.00     0.017 A 
ENDROOT
BRANCH   4   7
ATOM      7  C12 NON d   1       2.402  10.089   0.201  0.00  0.00     0.134 C 
BRANCH   7   8
ATOM      8  N3  NON d   1       2.423   8.725  -0.299  0.00  0.00    -0.257 NA
ATOM      9  H12 NON d   1       1.807   8.069   0.165  0.00  0.00     0.131 HD
BRANCH   8  10
ATOM     10  C13 NON d   1       3.699   8.156  -0.244  0.00  0.00     0.202 A 
ATOM     11  N4  NON d   1       4.782   8.947  -0.295  0.00  0.00    -0.231 NA
ATOM     12  C14 NON d   1       5.988   8.365  -0.234  0.00  0.00     0.122 A 
ATOM     13  C15 NON d   1       6.159   7.014  -0.129  0.00  0.00     0.054 A 
ATOM     14  C16 NON d   1       5.000   6.267  -0.086  0.00  0.00     0.097 A 
ATOM     15  N6  NON d   1       3.767   6.824  -0.125  0.00  0.00    -0.216 NA
BRANCH  14  16
ATOM     16  C17 NON d   1       5.071   4.812  -0.015  0.00  0.00     0.132 A 
ATOM     17  C18 NON d   1       6.104   3.901   0.008  0.00  0.00     0.073 A 
ATOM     18  C19 NON d   1       5.476   2.635   0.048  0.00  0.00     0.088 A 
ATOM     19  N5  NON d   1       4.142   2.761   0.064  0.00  0.00    -0.130 NA
ATOM     20  O3  NON d   1       3.892   4.127   0.024  0.00  0.00    -0.211 OA
BRANCH  18  21
ATOM     21  C20 NON d   1       6.110   1.287   0.060  0.00  0.00     0.225 C 
BRANCH  21  22
ATOM     22  O2  NON d   1       7.535   1.354   0.159  0.00  0.00    -0.395 OA
ATOM     23  H18 NON d   1       7.850   0.434   0.165  0.00  0.00     0.209 HD
ENDBRANCH  21  22
ENDBRANCH  18  21
ENDBRANCH  14  16
ENDBRANCH   8  10
ENDBRANCH   7   8
ENDBRANCH   4   7
BRANCH   1  24
ATOM     24  C7  NON d   1      -2.507  13.257  -0.194  0.00  0.00     0.256 C 
ATOM     25  N2  NON d   1      -3.756  12.699  -0.011  0.00  0.00    -0.321 N 
ATOM     26  H7  NON d   1      -3.852  11.709   0.178  0.00  0.00     0.169 HD
ATOM     27  O1  NON d   1      -2.297  14.445  -0.429  0.00  0.00    -0.267 OA
BRANCH  25  28
ATOM     28  C6  NON d   1      -5.000  13.381   0.016  0.00  0.00     0.056 A 
ATOM     29  C5  NON d   1      -5.138  14.770  -0.042  0.00  0.00     0.031 A 
ATOM     30  C4  NON d   1      -6.403  15.360   0.015  0.00  0.00     0.002 A 
ATOM     31  C3  NON d   1      -7.542  14.566   0.122  0.00  0.00     0.002 A 
ATOM     32  C2  NON d   1      -7.420  13.178   0.171  0.00  0.00     0.025 A 
ATOM     33  C1  NON d   1      -6.154  12.578   0.147  0.00  0.00     0.033 A 
BRANCH  33  34
ATOM     34  N1  NON d   1      -6.042  11.164   0.051  0.00  0.00    -0.301 NA
ATOM     35  H1  NON d   1      -6.911  10.710   0.326  0.00  0.00     0.124 HD
ATOM     36  H2  NON d   1      -5.838  10.921  -0.918  0.00  0.00     0.124 HD
ENDBRANCH  33  34
ENDBRANCH  25  28
ENDBRANCH   1  24
TORSDOF 9
