REMARK  4 active torsions:
REMARK  status: ('A' for Active; 'I' for Inactive)
REMARK    1  A    between atoms: O1_1  and  C1_2 
REMARK    2  A    between atoms: N1_6  and  C5_7 
REMARK    3  A    between atoms: C5_7  and  C6_8 
REMARK    4  A    between atoms: C9_11  and  C10_12 
ROOT
ATOM      1  C6  NON d   1      -0.034  -8.643  -0.045  0.00  0.00    -0.040 A 
ATOM      2  C7  NON d   1      -1.160  -9.361  -0.488  0.00  0.00     0.010 A 
ATOM      3  C8  NON d   1      -2.455  -8.846  -0.397  0.00  0.00     0.013 A 
ATOM      4  C9  NON d   1      -2.705  -7.581   0.148  0.00  0.00    -0.026 A 
ATOM      5  C15 NON d   1      -1.582  -6.884   0.645  0.00  0.00     0.013 A 
ATOM      6  C16 NON d   1      -0.269  -7.412   0.568  0.00  0.00     0.010 A 
ENDROOT
BRANCH   1   7
ATOM      7  C5  NON d   1       1.297  -9.317  -0.314  0.00  0.00     0.168 C 
BRANCH   7   8
ATOM      8  N1  NON d   1       2.630  -8.734   0.003  0.00  0.00    -0.342 N 
ATOM      9  C4  NON d   1       3.541  -9.670   0.517  0.00  0.00     0.092 C 
ATOM     10  C3  NON d   1       4.850  -9.441   0.616  0.00  0.00     0.020 C 
ATOM     11  C2  NON d   1       5.379  -8.153   0.292  0.00  0.00     0.041 C 
ATOM     12  C1  NON d   1       4.595  -7.212  -0.252  0.00  0.00     0.103 C 
ATOM     13  C17 NON d   1       3.136  -7.544  -0.595  0.00  0.00     0.136 C 
ATOM     14  S1  NON d   1       2.263  -6.556  -1.660  0.00  0.00    -0.057 SA
BRANCH  12  15
ATOM     15  O1  NON d   1       5.092  -5.951  -0.554  0.00  0.00    -0.358 OA
ATOM     16  H1  NON d   1       6.022  -5.911  -0.293  0.00  0.00     0.217 HD
ENDBRANCH  12  15
ENDBRANCH   7   8
ENDBRANCH   1   7
BRANCH   4  17
ATOM     17  C10 NON d   1      -4.084  -7.027   0.154  0.00  0.00    -0.023 A 
ATOM     18  C11 NON d   1      -5.213  -7.857   0.279  0.00  0.00     0.031 A 
ATOM     19  C12 NON d   1      -6.489  -7.313   0.204  0.00  0.00     0.117 A 
ATOM     20  N2  NON d   1      -6.733  -6.001   0.028  0.00  0.00    -0.273 NA
ATOM     21  C13 NON d   1      -5.650  -5.204  -0.078  0.00  0.00     0.117 A 
ATOM     22  C14 NON d   1      -4.337  -5.660  -0.025  0.00  0.00     0.031 A 
ENDBRANCH   4  17
TORSDOF 4
