REMARK  7 active torsions:
REMARK  status: ('A' for Active; 'I' for Inactive)
REMARK    1  A    between atoms: N1_1  and  C1_2 
REMARK    2  A    between atoms: C6_7  and  N2_8 
REMARK       I    between atoms: N2_8  and  C7_9 
REMARK    3  A    between atoms: C7_9  and  C8_11 
REMARK    4  A    between atoms: C11_14  and  C12_15 
REMARK    5  A    between atoms: C12_15  and  S1_16 
REMARK    6  A    between atoms: S1_16  and  C13_17 
REMARK    7  A    between atoms: C14_20  and  C15_21 
ROOT
ATOM      1  C8  NON d   1       2.564   4.492  -0.013  0.00  0.00     0.032 A 
ATOM      2  C9  NON d   1       3.720   3.697   0.038  0.00  0.00     0.017 A 
ATOM      3  C10 NON d   1       3.643   2.297   0.056  0.00  0.00     0.009 A 
ATOM      4  C11 NON d   1       2.404   1.641   0.029  0.00  0.00    -0.048 A 
ATOM      5  C21 NON d   1       1.252   2.443  -0.043  0.00  0.00     0.009 A 
ATOM      6  C22 NON d   1       1.326   3.848  -0.053  0.00  0.00     0.017 A 
ENDROOT
BRANCH   1   7
ATOM      7  C7  NON d   1       2.745   5.984  -0.077  0.00  0.00     0.256 C 
ATOM      8  N2  NON d   1       1.614   6.776   0.034  0.00  0.00    -0.321 N 
ATOM      9  H7  NON d   1       0.723   6.351   0.251  0.00  0.00     0.169 HD
ATOM     10  O1  NON d   1       3.887   6.402  -0.241  0.00  0.00    -0.267 OA
BRANCH   8  11
ATOM     11  C6  NON d   1       1.550   8.196  -0.009  0.00  0.00     0.056 A 
ATOM     12  C5  NON d   1       2.677   9.021  -0.074  0.00  0.00     0.031 A 
ATOM     13  C4  NON d   1       2.549  10.413  -0.039  0.00  0.00     0.002 A 
ATOM     14  C3  NON d   1       1.292  10.998   0.073  0.00  0.00     0.002 A 
ATOM     15  C2  NON d   1       0.157  10.191   0.128  0.00  0.00     0.025 A 
ATOM     16  C1  NON d   1       0.270   8.796   0.043  0.00  0.00     0.033 A 
BRANCH  16  17
ATOM     17  N1  NON d   1      -0.905   8.001   0.093  0.00  0.00    -0.301 NA
ATOM     18  H1  NON d   1      -1.747   8.569   0.016  0.00  0.00     0.124 HD
ATOM     19  H2  NON d   1      -0.892   7.311  -0.656  0.00  0.00     0.124 HD
ENDBRANCH  16  17
ENDBRANCH   8  11
ENDBRANCH   1   7
BRANCH   4  20
ATOM     20  C12 NON d   1       2.389   0.116   0.001  0.00  0.00     0.121 C 
BRANCH  20  21
ATOM     21  S1  NON d   1       0.813  -0.640   0.475  0.00  0.00    -0.078 SA
BRANCH  21  22
ATOM     22  C13 NON d   1       1.095  -2.330   0.218  0.00  0.00     0.231 A 
ATOM     23  N3  NON d   1       2.257  -2.920   0.027  0.00  0.00    -0.114 NA
ATOM     24  N4  NON d   1       1.996  -4.281  -0.079  0.00  0.00    -0.120 NA
ATOM     25  C14 NON d   1       0.690  -4.420   0.042  0.00  0.00     0.203 A 
ATOM     26  O2  NON d   1       0.057  -3.221   0.226  0.00  0.00    -0.263 OA
BRANCH  25  27
ATOM     27  C15 NON d   1      -0.157  -5.610   0.036  0.00  0.00     0.019 A 
ATOM     28  C16 NON d   1       0.413  -6.891   0.030  0.00  0.00     0.016 A 
ATOM     29  C17 NON d   1      -0.395  -8.036   0.037  0.00  0.00     0.001 A 
ATOM     30  C18 NON d   1      -1.782  -7.913   0.046  0.00  0.00     0.000 A 
ATOM     31  C19 NON d   1      -2.367  -6.650   0.048  0.00  0.00     0.001 A 
ATOM     32  C20 NON d   1      -1.559  -5.508   0.044  0.00  0.00     0.016 A 
ENDBRANCH  25  27
ENDBRANCH  21  22
ENDBRANCH  20  21
ENDBRANCH   4  20
TORSDOF 7
