@<TRIPOS>MOLECULE
*****
 46 48 0 0 0
SMALL
USER_CHARGES

@<TRIPOS>ATOM
      1 C1         -0.5097  -10.1066    1.4151 C.3     1  NONAME1     0.0790
      2 O1         -0.1818   -9.7142    0.0731 O.3     1  NONAME1    -0.4915
      3 C2          0.3965   -8.4714    0.1000 C.ar    1  NONAME1     0.1616
      4 C3         -0.4735   -7.3708    0.1370 C.ar    1  NONAME1    -0.0144
      5 C4          0.0183   -6.0894    0.3801 C.ar    1  NONAME1    -0.0312
      6 C5          1.3910   -5.9086    0.5591 C.ar    1  NONAME1     0.1147
      7 S1          1.9439   -4.4572    1.4299 S.O2    1  NONAME1     0.0843
      8 O2          3.1213   -4.8327    2.1927 O.2     1  NONAME1    -0.1476
      9 O3          0.7904   -3.8758    2.0909 O.2     1  NONAME1    -0.1476
     10 N1          2.4320   -3.2883    0.2853 N.ar    1  NONAME1    -0.2182
     11 C6          1.5520   -2.3870   -0.2669 C.ar    1  NONAME1     0.0301
     12 C7          2.2914   -1.3093   -0.7036 C.ar    1  NONAME1    -0.0346
     13 C8          3.6659   -1.5980   -0.4617 C.ar    1  NONAME1     0.0022
     14 C9          4.8618   -0.8552   -0.6138 C.ar    1  NONAME1    -0.0454
     15 C10         6.1045   -1.4240   -0.2763 C.ar    1  NONAME1    -0.0242
     16 C11         7.3148   -0.5782   -0.3300 C.2     1  NONAME1    -0.0496
     17 C12         8.5753   -1.0291   -0.2175 C.2     1  NONAME1     0.0027
     18 C13         9.7199   -0.0875   -0.2311 C.2     1  NONAME1     0.2593
     19 O4          9.6152    1.1063   -0.4881 O.2     1  NONAME1    -0.2687
     20 N2         10.9126   -0.6866    0.0769 N.am    1  NONAME1    -0.1940
     21 O5         12.0609    0.1356    0.0736 O.3     1  NONAME1    -0.2949
     22 C14         6.1340   -2.7502    0.1636 C.ar    1  NONAME1    -0.0526
     23 C15         4.9684   -3.5054    0.3310 C.ar    1  NONAME1    -0.0353
     24 C16         3.7363   -2.8956    0.0629 C.ar    1  NONAME1     0.0722
     25 C17         2.2710   -6.9893    0.3846 C.ar    1  NONAME1     0.0105
     26 C18         1.7804   -8.2840    0.1387 C.ar    1  NONAME1     0.1634
     27 O6          2.7589   -9.2315    0.0000 O.3     1  NONAME1    -0.4914
     28 C19         2.2830  -10.6961    0.0000 C.3     1  NONAME1     0.0790
     29 H1         -1.1872  -10.9630    1.3611 H       1  NONAME1     0.0660
     30 H2          0.3920  -10.4174    1.9544 H       1  NONAME1     0.0660
     31 H3         -1.0152   -9.3119    1.9769 H       1  NONAME1     0.0660
     32 H4         -1.5470   -7.5297    0.0627 H       1  NONAME1     0.0656
     33 H5         -0.6837   -5.2714    0.5292 H       1  NONAME1     0.0638
     34 H6          0.4813   -2.5339   -0.2040 H       1  NONAME1     0.0828
     35 H7          1.8851   -0.3882   -1.1049 H       1  NONAME1     0.0639
     36 H8          4.8010    0.1732   -0.9627 H       1  NONAME1     0.0630
     37 H9          7.1413    0.4926   -0.4383 H       1  NONAME1     0.0625
     38 H10         8.8114   -2.0777   -0.1103 H       1  NONAME1     0.0670
     39 H11        11.0476   -1.6596    0.3224 H       1  NONAME1     0.1825
     40 H12        11.6950    1.0033   -0.1989 H       1  NONAME1     0.2414
     41 H13         7.0681   -3.2332    0.4358 H       1  NONAME1     0.0624
     42 H14         5.0400   -4.5201    0.7118 H       1  NONAME1     0.0639
     43 H15         3.3415   -6.8583    0.5325 H       1  NONAME1     0.0675
     44 H16         2.4043  -10.8055   -1.0932 H       1  NONAME1     0.0660
     45 H17         1.8071  -12.1607    0.0000 H       1  NONAME1     0.0660
     46 H18         3.2050  -11.0609    0.4857 H       1  NONAME1     0.0660
@<TRIPOS>BOND
     1     1     2    1
     2     2     3    1
     3     3     4   ar
     4     4     5   ar
     5     5     6   ar
     6     6     7    1
     7     7     8    2
     8     7     9    2
     9     7    10    1
    10    10    11   ar
    11    11    12   ar
    12    12    13   ar
    13    13    14   ar
    14    14    15   ar
    15    15    16    1
    16    16    17    2
    17    17    18    1
    18    18    19    2
    19    18    20   am
    20    20    21    1
    21    15    22   ar
    22    22    23   ar
    23    23    24   ar
    24    13    24   ar
    25    10    24   ar
    26     6    25   ar
    27    25    26   ar
    28     3    26   ar
    29    26    27    1
    30    27    28    1
    31     1    29    1
    32     1    30    1
    33     1    31    1
    34     4    32    1
    35     5    33    1
    36    11    34    1
    37    12    35    1
    38    14    36    1
    39    16    37    1
    40    17    38    1
    41    20    39    1
    42    21    40    1
    43    22    41    1
    44    23    42    1
    45    25    43    1
    46    28    44    1
    47    28    45    1
    48    28    46    1
