@<TRIPOS>MOLECULE
*****
 51 54 0 0 0
SMALL
USER_CHARGES

@<TRIPOS>ATOM
      1 N1         -6.0421   11.1640    0.0508 N.pl3   1  NONAME1    -0.3565
      2 C1         -6.1542   12.5781    0.1471 C.ar    1  NONAME1     0.0461
      3 C2         -7.4195   13.1784    0.1712 C.ar    1  NONAME1    -0.0392
      4 C3         -7.5423   14.5665    0.1217 C.ar    1  NONAME1    -0.0599
      5 C4         -6.4032   15.3603    0.0146 C.ar    1  NONAME1    -0.0599
      6 C5         -5.1382   14.7698   -0.0423 C.ar    1  NONAME1    -0.0387
      7 C6         -5.0002   13.3809    0.0158 C.ar    1  NONAME1     0.0545
      8 N2         -3.7565   12.6989   -0.0105 N.am    1  NONAME1    -0.2800
      9 C7         -2.5068   13.2570   -0.1942 C.2     1  NONAME1     0.2483
     10 O1         -2.2973   14.4451   -0.4292 O.2     1  NONAME1    -0.2699
     11 C8         -1.3148   12.3491   -0.0933 C.ar    1  NONAME1     0.0370
     12 C9         -0.0638   12.9684    0.0168 C.ar    1  NONAME1    -0.0493
     13 C10         1.1063   12.2134    0.0989 C.ar    1  NONAME1    -0.0564
     14 C11         1.0723   10.8095    0.0611 C.ar    1  NONAME1    -0.0303
     15 C12         2.4020   10.0890    0.2010 C.3     1  NONAME1     0.0370
     16 N3          2.4227    8.7252   -0.2992 N.pl3   1  NONAME1    -0.3093
     17 C13         3.6990    8.1556   -0.2437 C.ar    1  NONAME1     0.2160
     18 N4          4.7817    8.9475   -0.2950 N.ar    1  NONAME1    -0.2229
     19 C14         5.9882    8.3654   -0.2337 C.ar    1  NONAME1     0.0333
     20 C15         6.1589    7.0139   -0.1286 C.ar    1  NONAME1    -0.0143
     21 C16         5.0005    6.2669   -0.0859 C.ar    1  NONAME1     0.1137
     22 C17         5.0711    4.8116   -0.0150 C.ar    1  NONAME1     0.1858
     23 C18         6.1035    3.9006    0.0080 C.ar    1  NONAME1     0.0121
     24 C19         5.4764    2.6353    0.0479 C.ar    1  NONAME1     0.1095
     25 C20         6.1098    1.2871    0.0601 C.3     1  NONAME1     0.0894
     26 O2          7.5355    1.3537    0.1589 O.3     1  NONAME1    -0.3888
     27 N5          4.1418    2.7611    0.0644 N.ar    1  NONAME1    -0.0802
     28 O3          3.8915    4.1265    0.0235 O.2     1  NONAME1    -0.3528
     29 N6          3.7665    6.8239   -0.1252 N.ar    1  NONAME1    -0.2113
     30 C21        -0.1791   10.1867   -0.0400 C.ar    1  NONAME1    -0.0564
     31 C22        -1.3640   10.9483   -0.1217 C.ar    1  NONAME1    -0.0493
     32 H1         -6.9112   10.7102    0.3260 H       1  NONAME1     0.1424
     33 H2         -5.8382   10.9206   -0.9185 H       1  NONAME1     0.1424
     34 H3         -8.3201   12.5745    0.2308 H       1  NONAME1     0.0636
     35 H4         -8.5241   15.0317    0.1580 H       1  NONAME1     0.0618
     36 H5         -6.4926   16.4431   -0.0288 H       1  NONAME1     0.0618
     37 H6         -4.2780   15.4267   -0.1238 H       1  NONAME1     0.0637
     38 H7         -3.8520   11.7089    0.1776 H       1  NONAME1     0.1552
     39 H8          0.0124   14.0546    0.0396 H       1  NONAME1     0.0625
     40 H9          2.0565   12.7384    0.1867 H       1  NONAME1     0.0621
     41 H10         3.1286   10.6915   -0.3616 H       1  NONAME1     0.0512
     42 H11         2.6823   10.1076    1.2618 H       1  NONAME1     0.0512
     43 H12         1.8067    8.0693    0.1646 H       1  NONAME1     0.1492
     44 H13         6.8349    9.0429   -0.2763 H       1  NONAME1     0.0831
     45 H14         7.1474    6.5797   -0.0901 H       1  NONAME1     0.0655
     46 H15         7.1646    4.0981   -0.0145 H       1  NONAME1     0.0676
     47 H16         5.7414    0.7061    0.9118 H       1  NONAME1     0.0624
     48 H17         5.8632    0.7541   -0.8638 H       1  NONAME1     0.0624
     49 H18         7.8496    0.4339    0.1649 H       1  NONAME1     0.2099
     50 H19        -0.2533    9.1020   -0.0705 H       1  NONAME1     0.0621
     51 H20        -2.3032   10.4149   -0.2246 H       1  NONAME1     0.0625
@<TRIPOS>BOND
     1     1     2    1
     2     2     3   ar
     3     3     4   ar
     4     4     5   ar
     5     5     6   ar
     6     6     7   ar
     7     2     7   ar
     8     7     8    1
     9     8     9   am
    10     9    10    2
    11     9    11    1
    12    11    12   ar
    13    12    13   ar
    14    13    14   ar
    15    14    15    1
    16    15    16    1
    17    16    17    1
    18    17    18   ar
    19    18    19   ar
    20    19    20   ar
    21    20    21   ar
    22    21    22    1
    23    22    23   ar
    24    23    24   ar
    25    24    25    1
    26    25    26    1
    27    24    27   ar
    28    27    28   ar
    29    22    28   ar
    30    21    29   ar
    31    17    29   ar
    32    14    30   ar
    33    30    31   ar
    34    11    31   ar
    35     1    32    1
    36     1    33    1
    37     3    34    1
    38     4    35    1
    39     5    36    1
    40     6    37    1
    41     8    38    1
    42    12    39    1
    43    13    40    1
    44    15    41    1
    45    15    42    1
    46    16    43    1
    47    19    44    1
    48    20    45    1
    49    23    46    1
    50    25    47    1
    51    25    48    1
    52    26    49    1
    53    30    50    1
    54    31    51    1
