@<TRIPOS>MOLECULE
*****
 48 51 0 0 0
SMALL
USER_CHARGES

@<TRIPOS>ATOM
      1 O1         -9.7641   -7.3560    0.1181 O.2     1  NONAME1    -0.2680
      2 C1         -8.7280   -8.0128    0.0275 C.2     1  NONAME1     0.2694
      3 N1         -8.7531   -9.3881    0.0084 N.am    1  NONAME1    -0.1934
      4 O2        -10.0372   -9.9768    0.0481 O.3     1  NONAME1    -0.2949
      5 C2         -7.4233   -7.3359   -0.0739 C.ar    1  NONAME1     0.0749
      6 C3         -7.3548   -5.9637   -0.1337 C.ar    1  NONAME1     0.0448
      7 N2         -6.1955   -5.2658   -0.2183 N.ar    1  NONAME1    -0.2220
      8 C4         -5.0439   -5.9574   -0.2432 C.ar    1  NONAME1     0.2178
      9 N3         -3.8417   -5.2759   -0.3872 N.pl3   1  NONAME1    -0.2971
     10 C5         -3.8568   -3.8605    0.0009 C.3     1  NONAME1     0.0293
     11 C6         -2.5659   -3.1455   -0.4649 C.3     1  NONAME1     0.0363
     12 N4         -1.3337   -3.8500    0.0000 N.3     1  NONAME1    -0.1736
     13 S1          0.0000   -3.0800    0.0000 S.O2    1  NONAME1     0.0610
     14 O3          0.4980   -3.9949    1.0434 O.2     1  NONAME1    -0.1528
     15 O4          0.1561   -3.4726   -1.4125 O.2     1  NONAME1    -0.1528
     16 C7          1.3337   -2.3100    0.0000 C.ar    1  NONAME1     0.1061
     17 C8          1.9857   -1.8460   -1.1746 C.ar    1  NONAME1    -0.0348
     18 C9          3.1775   -1.1119   -1.1734 C.ar    1  NONAME1    -0.0522
     19 C10         3.7854   -0.7665    0.0275 C.ar    1  NONAME1    -0.0178
     20 C11         4.9971   -0.0605    0.0423 C.ar    1  NONAME1    -0.0540
     21 C12         5.6001    0.2755    1.2512 C.ar    1  NONAME1    -0.0612
     22 C13         4.9954   -0.0866    2.4507 C.ar    1  NONAME1    -0.0612
     23 C14         3.7859   -0.7879    2.4431 C.ar    1  NONAME1    -0.0540
     24 C15         3.1657   -1.1443    1.2359 C.ar    1  NONAME1    -0.0160
     25 C16         1.9518   -1.8730    1.2003 C.ar    1  NONAME1    -0.0276
     26 C17        -1.3753   -5.3171   -0.3837 C.3     1  NONAME1     0.0363
     27 C18        -2.6610   -6.0042    0.0969 C.3     1  NONAME1     0.0293
     28 N5         -5.0251   -7.3021   -0.1866 N.ar    1  NONAME1    -0.2220
     29 C19        -6.2031   -7.9610   -0.1008 C.ar    1  NONAME1     0.0448
     30 H1         -7.9838  -10.0165   -0.1870 H       1  NONAME1     0.1825
     31 H2        -10.6292   -9.1928    0.0882 H       1  NONAME1     0.2414
     32 H3         -8.2526   -5.3501   -0.1178 H       1  NONAME1     0.0839
     33 H4         -3.9481   -3.7810    1.0925 H       1  NONAME1     0.0478
     34 H5         -4.7030   -3.3266   -0.4481 H       1  NONAME1     0.0478
     35 H6         -2.5785   -2.1318   -0.0465 H       1  NONAME1     0.0459
     36 H7         -2.5568   -3.0698   -1.5563 H       1  NONAME1     0.0459
     37 H8          1.5759   -2.0548   -2.1656 H       1  NONAME1     0.0637
     38 H9          3.6161   -0.8259   -2.1267 H       1  NONAME1     0.0624
     39 H10         5.4823    0.2245   -0.8886 H       1  NONAME1     0.0624
     40 H11         6.5444    0.8126    1.2539 H       1  NONAME1     0.0618
     41 H12         5.4692    0.1712    3.3951 H       1  NONAME1     0.0618
     42 H13         3.3385   -1.0678    3.3948 H       1  NONAME1     0.0624
     43 H14         1.5028   -2.1463    2.1553 H       1  NONAME1     0.0643
     44 H15        -1.3106   -5.4147   -1.4735 H       1  NONAME1     0.0459
     45 H16        -0.5312   -5.8615    0.0549 H       1  NONAME1     0.0459
     46 H17        -2.6334   -7.0328   -0.2834 H       1  NONAME1     0.0478
     47 H18        -2.6759   -6.0492    1.1939 H       1  NONAME1     0.0478
     48 H19        -6.0897   -9.0377   -0.0513 H       1  NONAME1     0.0839
@<TRIPOS>BOND
     1     1     2    2
     2     2     3   am
     3     3     4    1
     4     2     5    1
     5     5     6   ar
     6     6     7   ar
     7     7     8   ar
     8     8     9    1
     9     9    10    1
    10    10    11    1
    11    11    12    1
    12    12    13    1
    13    13    14    2
    14    13    15    2
    15    13    16    1
    16    16    17   ar
    17    17    18   ar
    18    18    19   ar
    19    19    20   ar
    20    20    21   ar
    21    21    22   ar
    22    22    23   ar
    23    23    24   ar
    24    19    24   ar
    25    24    25   ar
    26    16    25   ar
    27    12    26    1
    28    26    27    1
    29     9    27    1
    30     8    28   ar
    31    28    29   ar
    32     5    29   ar
    33     3    30    1
    34     4    31    1
    35     6    32    1
    36    10    33    1
    37    10    34    1
    38    11    35    1
    39    11    36    1
    40    17    37    1
    41    18    38    1
    42    20    39    1
    43    21    40    1
    44    22    41    1
    45    23    42    1
    46    25    43    1
    47    26    44    1
    48    26    45    1
    49    27    46    1
    50    27    47    1
    51    29    48    1
