REMARK  8 active torsions:
REMARK  status: ('A' for Active; 'I' for Inactive)
REMARK    1  A    between atoms: N1_1  and  C1_2 
REMARK    2  A    between atoms: C4_5  and  C5_6 
REMARK    3  A    between atoms: C12_13  and  N2_14 
REMARK       I    between atoms: N2_14  and  C13_15 
REMARK    4  A    between atoms: C13_15  and  C14_17 
REMARK    5  A    between atoms: C17_20  and  C18_21 
REMARK    6  A    between atoms: C18_21  and  N3_22 
REMARK       I    between atoms: N3_22  and  C19_23 
REMARK    7  A    between atoms: C19_23  and  O3_25 
REMARK    8  A    between atoms: O3_25  and  C20_26 
ROOT
ATOM      1  N2  NON d   1       2.242 -14.192   0.003  0.00  0.00    -0.321 N 
ATOM      2  C13 NON d   1       0.992 -14.773   0.122  0.00  0.00     0.256 C 
ATOM      3  O1  NON d   1       0.778 -15.968   0.308  0.00  0.00    -0.267 OA
ATOM      4  H11 NON d   1       2.314 -13.212  -0.230  0.00  0.00     0.169 HD
ENDROOT
BRANCH   2   5
ATOM      5  C14 NON d   1      -0.199 -13.861   0.036  0.00  0.00     0.032 A 
ATOM      6  C15 NON d   1      -1.473 -14.450  -0.030  0.00  0.00     0.017 A 
ATOM      7  C16 NON d   1      -2.639 -13.672  -0.060  0.00  0.00     0.010 A 
ATOM      8  C17 NON d   1      -2.562 -12.278  -0.015  0.00  0.00    -0.040 A 
ATOM      9  C26 NON d   1      -1.284 -11.690   0.035  0.00  0.00     0.010 A 
ATOM     10  C27 NON d   1      -0.117 -12.466   0.062  0.00  0.00     0.017 A 
BRANCH   8  11
ATOM     11  C18 NON d   1      -3.756 -11.352   0.005  0.00  0.00     0.163 C 
BRANCH  11  12
ATOM     12  N3  NON d   1      -5.057 -11.968  -0.059  0.00  0.00    -0.332 N 
ATOM     13  C19 NON d   1      -6.160 -11.174  -0.257  0.00  0.00     0.366 C 
ATOM     14  O2  NON d   1      -6.104  -9.998  -0.588  0.00  0.00    -0.238 OA
ATOM     15  H16 NON d   1      -5.237 -12.832   0.429  0.00  0.00     0.165 HD
BRANCH  13  16
ATOM     16  O3  NON d   1      -7.317 -11.900   0.012  0.00  0.00    -0.262 OA
BRANCH  16  17
ATOM     17  C20 NON d   1      -8.632 -11.371  -0.013  0.00  0.00     0.081 A 
ATOM     18  C21 NON d   1      -9.654 -12.323  -0.043  0.00  0.00     0.037 A 
ATOM     19  C22 NON d   1     -10.988 -11.913  -0.035  0.00  0.00     0.003 A 
ATOM     20  C23 NON d   1     -11.299 -10.554   0.007  0.00  0.00     0.000 A 
ATOM     21  C24 NON d   1     -10.276  -9.606   0.043  0.00  0.00     0.003 A 
ATOM     22  C25 NON d   1      -8.938 -10.012   0.041  0.00  0.00     0.037 A 
ENDBRANCH  16  17
ENDBRANCH  13  16
ENDBRANCH  11  12
ENDBRANCH   8  11
ENDBRANCH   2   5
BRANCH   1  23
ATOM     23  C12 NON d   1       3.508 -14.833   0.025  0.00  0.00     0.057 A 
ATOM     24  C11 NON d   1       3.677 -16.224   0.069  0.00  0.00     0.043 A 
ATOM     25  C4  NON d   1       4.942 -16.849  -0.031  0.00  0.00    -0.024 A 
ATOM     26  C3  NON d   1       6.041 -15.982  -0.185  0.00  0.00     0.014 A 
ATOM     27  C2  NON d   1       5.897 -14.588  -0.200  0.00  0.00     0.026 A 
ATOM     28  C1  NON d   1       4.642 -14.003  -0.044  0.00  0.00     0.033 A 
BRANCH  25  29
ATOM     29  C5  NON d   1       5.097 -18.342  -0.005  0.00  0.00    -0.026 A 
ATOM     30  C6  NON d   1       6.361 -18.967   0.058  0.00  0.00     0.012 A 
ATOM     31  C7  NON d   1       6.507 -20.361   0.071  0.00  0.00     0.001 A 
ATOM     32  C8  NON d   1       5.389 -21.183   0.034  0.00  0.00     0.000 A 
ATOM     33  C9  NON d   1       4.128 -20.608  -0.020  0.00  0.00     0.001 A 
ATOM     34  C10 NON d   1       3.989 -19.214  -0.044  0.00  0.00     0.012 A 
ENDBRANCH  25  29
BRANCH  28  35
ATOM     35  N1  NON d   1       4.515 -12.594  -0.058  0.00  0.00    -0.301 NA
ATOM     36  H1  NON d   1       5.420 -12.131   0.012  0.00  0.00     0.124 HD
ATOM     37  H2  NON d   1       3.914 -12.289   0.704  0.00  0.00     0.124 HD
ENDBRANCH  28  35
ENDBRANCH   1  23
TORSDOF 8
