@<TRIPOS>MOLECULE
*****
 44 46 0 0 0
SMALL
USER_CHARGES

@<TRIPOS>ATOM
      1 C1         -5.3347   -3.0800    0.0000 C.3     1  NONAME1     0.0125
      2 C2         -5.3347   -4.6200    0.0000 C.2     1  NONAME1     0.2141
      3 O1         -6.4536   -5.1162    0.1807 O.2     1  NONAME1    -0.2758
      4 N1         -4.1764   -5.3624   -0.1221 N.am    1  NONAME1    -0.2857
      5 C3         -4.1200   -6.7965   -0.0938 C.ar    1  NONAME1     0.0334
      6 C4         -2.8771   -7.4527   -0.0448 C.ar    1  NONAME1    -0.0398
      7 C5         -2.7822   -8.8693    0.0508 C.ar    1  NONAME1    -0.0479
      8 C6         -3.9394   -9.6519    0.0973 C.ar    1  NONAME1     0.0371
      9 C7         -4.0147  -11.1348    0.2960 C.2     1  NONAME1     0.2483
     10 O2         -5.0580  -11.5696    0.7852 O.2     1  NONAME1    -0.2699
     11 N2         -2.9495  -11.9460   -0.0586 N.am    1  NONAME1    -0.2785
     12 C8         -2.9589  -13.3839   -0.0764 C.ar    1  NONAME1     0.0762
     13 C9         -1.7015  -14.0411   -0.0703 C.ar    1  NONAME1    -0.0292
     14 C10        -1.5557  -15.4587   -0.0727 C.ar    1  NONAME1    -0.0159
     15 C11        -0.2232  -16.1592   -0.0323 C.ar    1  NONAME1    -0.0178
     16 C12         0.9993  -15.4654    0.0293 C.ar    1  NONAME1    -0.0540
     17 C13         2.2378  -16.1263    0.0629 C.ar    1  NONAME1    -0.0612
     18 C14         2.2971  -17.5132    0.0373 C.ar    1  NONAME1    -0.0617
     19 C15         1.1173  -18.2372   -0.0182 C.ar    1  NONAME1    -0.0612
     20 C16        -0.1142  -17.5697   -0.0531 C.ar    1  NONAME1    -0.0540
     21 C17        -2.7524  -16.1958   -0.1145 C.ar    1  NONAME1    -0.0505
     22 C18        -3.9987  -15.5788   -0.1653 C.ar    1  NONAME1    -0.0178
     23 C19        -4.1030  -14.1940   -0.1439 C.ar    1  NONAME1     0.1380
     24 O3         -5.3895  -13.7531   -0.2570 O.3     1  NONAME1    -0.5049
     25 C20        -5.1728   -8.9960    0.0065 C.ar    1  NONAME1    -0.0479
     26 C21        -5.2591   -7.6035   -0.0953 C.ar    1  NONAME1    -0.0398
     27 H1         -4.2737   -2.9767   -0.3105 H       1  NONAME1     0.0323
     28 H2         -5.3347   -1.5400    0.0000 H       1  NONAME1     0.0323
     29 H3         -5.9544   -3.0028   -0.9205 H       1  NONAME1     0.0323
     30 H4         -3.2937   -4.8701   -0.1453 H       1  NONAME1     0.1548
     31 H5         -1.9559   -6.8745   -0.0488 H       1  NONAME1     0.0636
     32 H6         -1.7979   -9.3206    0.1296 H       1  NONAME1     0.0626
     33 H7         -2.0628  -11.5061   -0.2581 H       1  NONAME1     0.1552
     34 H8         -0.8132  -13.4189   -0.0372 H       1  NONAME1     0.0643
     35 H9          1.0315  -14.3808    0.0543 H       1  NONAME1     0.0624
     36 H10         3.1582  -15.5498    0.1090 H       1  NONAME1     0.0618
     37 H11         3.2546  -18.0258    0.0616 H       1  NONAME1     0.0618
     38 H12         1.1444  -19.3246   -0.0378 H       1  NONAME1     0.0618
     39 H13        -0.9900  -18.2098   -0.0968 H       1  NONAME1     0.0624
     40 H14        -2.7649  -17.2804   -0.1166 H       1  NONAME1     0.0625
     41 H15        -4.8995  -16.1860   -0.2209 H       1  NONAME1     0.0655
     42 H16        -5.4400  -12.8871    0.1987 H       1  NONAME1     0.2922
     43 H17        -6.1036   -9.5632    0.0313 H       1  NONAME1     0.0626
     44 H18        -6.2641   -7.2013   -0.1625 H       1  NONAME1     0.0636
@<TRIPOS>BOND
     1     1     2    1
     2     2     3    2
     3     2     4   am
     4     4     5    1
     5     5     6   ar
     6     6     7   ar
     7     7     8   ar
     8     8     9    1
     9     9    10    2
    10     9    11   am
    11    11    12    1
    12    12    13   ar
    13    13    14   ar
    14    14    15    1
    15    15    16   ar
    16    16    17   ar
    17    17    18   ar
    18    18    19   ar
    19    19    20   ar
    20    15    20   ar
    21    14    21   ar
    22    21    22   ar
    23    22    23   ar
    24    12    23   ar
    25    23    24    1
    26     8    25   ar
    27    25    26   ar
    28     5    26   ar
    29     1    27    1
    30     1    28    1
    31     1    29    1
    32     4    30    1
    33     6    31    1
    34     7    32    1
    35    11    33    1
    36    13    34    1
    37    16    35    1
    38    17    36    1
    39    18    37    1
    40    19    38    1
    41    20    39    1
    42    21    40    1
    43    22    41    1
    44    24    42    1
    45    25    43    1
    46    26    44    1
