@<TRIPOS>MOLECULE

38 38 1
SMALL
USER_CHARGES
@<TRIPOS>ATOM
1	C1    -5.3347     3.0800     0.0000	C.3	1	noname	-0.0087
2	N1    -5.3347     4.6200     0.0000	N.3	1	noname	-0.1323
3	C2    -6.6684     5.3900     0.0000	C.3	1	noname	-0.0087
4	C3    -4.0010     5.3900     0.0000	C.2	1	noname	-0.0089
5	C4    -4.0010     6.9300     0.0000	C.2	1	noname	-0.0586
6	C5    -2.6674     7.7000     0.0000	C.2	1	noname	-0.0558
7	C6    -1.3337     6.9300     0.0000	C.2	1	noname	-0.0752
8	C7     0.0000     7.7000     0.0000	C.3	1	noname	0.0222
9	C8     1.3337     6.9300     0.0000	C.2	1	noname	0.1499
10	N2     1.3337     5.3900     0.0000	N.2	1	noname	-0.1757
11	O1     0.0000     4.6200     0.0000	O.3	1	noname	-0.2062
12	C9     2.6674     7.7000     0.0000	C.2	1	noname	0.1784
13	O2     2.6674     9.2400     0.0000	O.2	1	noname	-0.2552
14	N3     4.0010     6.9300     0.0000	N.3	1	noname	-0.2422
15	C10     5.3347     7.7000     0.0000	C.3	1	noname	0.0119
16	C11     6.6684     6.9300     0.0000	C.3	1	noname	0.0033
17	S1     8.0021     7.7000     0.0000	S.3	1	noname	-0.1779
18	C12    -1.3337     5.3900     0.0000	C.2	1	noname	-0.0330
19	C13    -2.6674     4.6200     0.0000	C.2	1	noname	-0.0320
20	Br1    -2.6674     3.0800     0.0000	Br	1	noname	-0.0490
21	H1    -6.8747     3.0800     0.0000	H	1	noname	0.0398
22	H2    -5.3347     1.5400     0.0000	H	1	noname	0.0398
23	H3    -3.7947     3.0800     0.0000	H	1	noname	0.0398
24	H4    -5.8984     6.7237     0.0000	H	1	noname	0.0398
25	H5    -8.0021     6.1600     0.0000	H	1	noname	0.0398
26	H6    -7.4384     4.0563     0.0000	H	1	noname	0.0398
27	H7    -5.3347     7.7000     0.0000	H	1	noname	0.0639
28	H8    -2.6674     9.2400     0.0000	H	1	noname	0.0626
29	H9    -0.7230     9.0597     0.0000	H	1	noname	0.0384
30	H10     0.7230     9.0597     0.0000	H	1	noname	0.0384
31	H11    -0.0000     3.0800     0.0000	H	1	noname	0.2481
32	H12     4.0010     5.3900     0.0000	H	1	noname	0.1314
33	H13     4.6117     9.0597     0.0000	H	1	noname	0.0441
34	H14     6.0577     9.0597     0.0000	H	1	noname	0.0441
35	H15     5.9454     5.5703     0.0000	H	1	noname	0.0390
36	H16     7.3914     5.5703     0.0000	H	1	noname	0.0390
37	H17     9.3358     6.9300     0.0000	H	1	noname	0.1022
38	H18    -0.7073     3.9831     0.0000	H	1	noname	0.0638
@<TRIPOS>BOND
1	1	2	1
2	2	3	1
3	2	4	1
4	4	5	2
5	5	6	1
6	6	7	2
7	7	8	1
8	8	9	1
9	9	10	2
10	10	11	1
11	9	12	1
12	12	13	2
13	12	14	1
14	14	15	1
15	15	16	1
16	16	17	1
17	7	18	1
18	18	19	2
19	4	19	1
20	19	20	1
21	1	21	1
22	1	22	1
23	1	23	1
24	3	24	1
25	3	25	1
26	3	26	1
27	5	27	1
28	6	28	1
29	8	29	1
30	8	30	1
31	11	31	1
32	14	32	1
33	15	33	1
34	15	34	1
35	16	35	1
36	16	36	1
37	17	37	1
38	18	38	1
@<TRIPOS>SUBSTRUCTURE
1	noname	1
