@<TRIPOS>MOLECULE
*****
 54 55 0 0 0
SMALL
USER_CHARGES

@<TRIPOS>ATOM
      1 O1          9.9196   -5.0150   -3.2866 O.2     1  NONAME1    -0.2737
      2 C1          8.9624   -5.3335   -2.5897 C.2     1  NONAME1     0.2354
      3 C2          8.3955   -4.4628   -1.4810 C.3     1  NONAME1     0.0259
      4 C3          9.1458   -3.1494   -1.2762 C.3     1  NONAME1    -0.0447
      5 C4          8.6671   -2.3269   -0.0678 C.3     1  NONAME1    -0.0512
      6 C5          7.3410   -1.5653   -0.2483 C.3     1  NONAME1    -0.0373
      7 C6          6.1065   -2.4181    0.0210 C.3     1  NONAME1     0.0131
      8 N1          4.8592   -1.6687   -0.0349 N.am    1  NONAME1    -0.2991
      9 C7          3.6871   -2.4056   -0.1581 C.2     1  NONAME1     0.3061
     10 O2          3.7012   -3.6059   -0.4046 O.2     1  NONAME1    -0.2524
     11 N2          2.5617   -1.6222   -0.0079 N.am    1  NONAME1    -0.2362
     12 C8          1.3067   -2.1850    0.1681 C.2     1  NONAME1     0.2515
     13 O3          1.1100   -3.3530    0.4939 O.2     1  NONAME1    -0.2697
     14 C9          0.1008   -1.3079    0.0423 C.ar    1  NONAME1     0.0394
     15 C10        -1.1377   -1.9411   -0.0628 C.ar    1  NONAME1    -0.0477
     16 C11        -2.3363   -1.2112   -0.1061 C.ar    1  NONAME1    -0.0377
     17 C12        -2.3980    0.1974   -0.0381 C.ar    1  NONAME1     0.0603
     18 N3         -3.6369    0.8109   -0.0779 N.pl3   1  NONAME1    -0.3281
     19 C13        -4.8895    0.0398    0.0185 C.3     1  NONAME1     0.0123
     20 C14        -5.9993    1.0676    0.2049 C.3     1  NONAME1    -0.0358
     21 C15        -5.4132    2.3450   -0.3591 C.3     1  NONAME1    -0.0358
     22 C16        -3.9303    2.2439   -0.0125 C.3     1  NONAME1     0.0123
     23 C17        -1.1203    0.8011    0.0471 C.ar    1  NONAME1     0.1478
     24 N4         -0.9506    2.2366    0.1181 N.pl3   1  NONAME1     0.0583
     25 O4         -0.4633    2.7895   -0.8790 O.2     1  NONAME1    -0.1261
     26 O5         -1.2054    2.7912    1.1957 O.2     1  NONAME1    -0.1261
     27 C18         0.1098    0.0811    0.0861 C.ar    1  NONAME1    -0.0175
     28 N5          8.2214   -6.4918   -2.7436 N.am    1  NONAME1    -0.1975
     29 O6          8.7609   -7.4535   -3.6252 O.3     1  NONAME1    -0.2952
     30 H1          7.3568   -4.2626   -1.7642 H       1  NONAME1     0.0359
     31 H2          8.4062   -5.0441   -0.5515 H       1  NONAME1     0.0359
     32 H3         10.2096   -3.3794   -1.1228 H       1  NONAME1     0.0270
     33 H4          9.0977   -2.5398   -2.1862 H       1  NONAME1     0.0270
     34 H5          9.4433   -1.5754    0.1293 H       1  NONAME1     0.0266
     35 H6          8.6253   -2.9591    0.8272 H       1  NONAME1     0.0266
     36 H7          7.2909   -1.1219   -1.2490 H       1  NONAME1     0.0280
     37 H8          7.3362   -0.7262    0.4600 H       1  NONAME1     0.0280
     38 H9          6.1628   -2.8729    1.0168 H       1  NONAME1     0.0462
     39 H10         6.0376   -3.2265   -0.7052 H       1  NONAME1     0.0462
     40 H11         4.7982   -0.8711    0.5825 H       1  NONAME1     0.1502
     41 H12         2.6562   -0.6682   -0.2989 H       1  NONAME1     0.1594
     42 H13        -1.1957   -3.0302   -0.1029 H       1  NONAME1     0.0626
     43 H14        -3.2423   -1.8073   -0.1953 H       1  NONAME1     0.0637
     44 H15        -4.8864   -0.6453    0.8745 H       1  NONAME1     0.0464
     45 H16        -5.0546   -0.5293   -0.9035 H       1  NONAME1     0.0464
     46 H17        -6.9222    0.7696   -0.3022 H       1  NONAME1     0.0281
     47 H18        -6.2271    1.1895    1.2702 H       1  NONAME1     0.0281
     48 H19        -5.5495    2.3724   -1.4462 H       1  NONAME1     0.0281
     49 H20        -5.8806    3.2393    0.0650 H       1  NONAME1     0.0281
     50 H21        -3.7653    2.6176    1.0037 H       1  NONAME1     0.0464
     51 H22        -3.3534    2.8308   -0.7323 H       1  NONAME1     0.0464
     52 H23         1.0376    0.6363    0.1841 H       1  NONAME1     0.0648
     53 H24         7.7015   -6.8694   -1.9569 H       1  NONAME1     0.1822
     54 H25         8.3609   -7.1918   -4.4759 H       1  NONAME1     0.2414
@<TRIPOS>BOND
     1     1     2    2
     2     2     3    1
     3     3     4    1
     4     4     5    1
     5     5     6    1
     6     6     7    1
     7     7     8    1
     8     8     9   am
     9     9    10    2
    10     9    11   am
    11    11    12   am
    12    12    13    2
    13    12    14    1
    14    14    15   ar
    15    15    16   ar
    16    16    17   ar
    17    17    18    1
    18    18    19    1
    19    19    20    1
    20    20    21    1
    21    21    22    1
    22    18    22    1
    23    17    23   ar
    24    23    24    1
    25    24    25    2
    26    24    26    1
    27    23    27   ar
    28    14    27   ar
    29     2    28   am
    30    28    29    1
    31     3    30    1
    32     3    31    1
    33     4    32    1
    34     4    33    1
    35     5    34    1
    36     5    35    1
    37     6    36    1
    38     6    37    1
    39     7    38    1
    40     7    39    1
    41     8    40    1
    42    11    41    1
    43    15    42    1
    44    16    43    1
    45    19    44    1
    46    19    45    1
    47    20    46    1
    48    20    47    1
    49    21    48    1
    50    21    49    1
    51    22    50    1
    52    22    51    1
    53    27    52    1
    54    28    53    1
    55    29    54    1
