REMARK  7 active torsions:
REMARK  status: ('A' for Active; 'I' for Inactive)
REMARK       I    between atoms: C1_2  and  N1_3 
REMARK    1  A    between atoms: C1_2  and  C2_5 
REMARK    2  A    between atoms: N1_3  and  O2_4 
REMARK    3  A    between atoms: C5_8  and  C6_9 
REMARK    4  A    between atoms: C9_12  and  C10_13 
REMARK    5  A    between atoms: C10_13  and  N2_14 
REMARK    6  A    between atoms: N2_14  and  C11_15 
REMARK    7  A    between atoms: C11_15  and  C12_16 
ROOT
ATOM      1  C6  NON d   1      14.021   2.006  -0.050  0.00  0.00     0.073 A 
ATOM      2  C7  NON d   1      12.806   1.330  -0.076  0.00  0.00     0.034 A 
ATOM      3  C8  NON d   1      11.607   2.053  -0.066  0.00  0.00     0.012 A 
ATOM      4  C9  NON d   1      11.634   3.450  -0.041  0.00  0.00    -0.015 A 
ATOM      5  C19 NON d   1      12.896   4.040  -0.016  0.00  0.00     0.126 A 
ATOM      6  N3  NON d   1      14.061   3.357  -0.026  0.00  0.00    -0.259 NA
ENDROOT
BRANCH   4   7
ATOM      7  C10 NON d   1      10.423   4.339   0.018  0.00  0.00     0.272 C 
BRANCH   7   8
ATOM      8  N2  NON d   1       9.124   3.642  -0.230  0.00  0.00    -0.067 N 
ATOM      9  H9  NON d   1       9.034   2.900   0.473  0.00  0.00     0.277 HD
ATOM     10  H10 NON d   1       9.132   3.174  -1.143  0.00  0.00     0.277 HD
BRANCH   8  11
ATOM     11  C11 NON d   1       7.899   4.488  -0.114  0.00  0.00     0.271 C 
BRANCH  11  12
ATOM     12  C12 NON d   1       7.526   5.352  -1.293  0.00  0.00    -0.030 A 
ATOM     13  C13 NON d   1       8.254   5.408  -2.506  0.00  0.00     0.012 A 
ATOM     14  C14 NON d   1       7.834   6.228  -3.564  0.00  0.00     0.040 A 
ATOM     15  C15 NON d   1       6.685   6.966  -3.398  0.00  0.00     0.105 A 
ATOM     16  C16 NON d   1       5.962   6.913  -2.236  0.00  0.00     0.105 A 
ATOM     17  O4  NON d   1       6.131   7.801  -4.315  0.00  0.00    -0.323 OA
ATOM     18  C17 NON d   1       6.352   6.124  -1.173  0.00  0.00     0.048 A 
ATOM     19  O3  NON d   1       4.859   7.704  -2.271  0.00  0.00    -0.323 OA
ATOM     20  C18 NON d   1       4.962   8.260  -3.602  0.00  0.00     0.352 A 
ENDBRANCH  11  12
ENDBRANCH   8  11
ENDBRANCH   7   8
ENDBRANCH   4   7
BRANCH   1  21
ATOM     21  C5  NON d   1      15.317   1.296  -0.045  0.00  0.00     0.034 A 
ATOM     22  C4  NON d   1      15.565  -0.066  -0.034  0.00  0.00     0.023 A 
ATOM     23  C3  NON d   1      16.955  -0.388  -0.044  0.00  0.00     0.026 A 
ATOM     24  C2  NON d   1      17.764   0.734  -0.052  0.00  0.00     0.075 A 
ATOM     25  S1  NON d   1      16.809   2.160  -0.056  0.00  0.00    -0.083 SA
BRANCH  24  26
ATOM     26  C1  NON d   1      19.225   0.839  -0.070  0.00  0.00     0.281 C 
ATOM     27  O1  NON d   1      19.848   1.890  -0.223  0.00  0.00    -0.265 OA
ATOM     28  N1  NON d   1      19.880  -0.377   0.080  0.00  0.00    -0.233 N 
ATOM     29  H1  NON d   1      19.403  -1.163   0.503  0.00  0.00     0.197 HD
BRANCH  28  30
ATOM     30  O2  NON d   1      21.265  -0.313   0.352  0.00  0.00    -0.287 OA
ATOM     31  H2  NON d   1      21.639  -0.132  -0.532  0.00  0.00     0.244 HD
ENDBRANCH  28  30
ENDBRANCH  24  26
ENDBRANCH   1  21
TORSDOF 7
