REMARK  2 active torsions:
REMARK  status: ('A' for Active; 'I' for Inactive)
REMARK    1  A    between atoms: C14_20  and  C15_21 
REMARK    2  A    between atoms: C20_30  and  C21_31 
ROOT
ATOM      1  C1  NON d   1       9.630  -3.832  -0.702  0.00  0.00     0.038 C 
ATOM      2  C2  NON d   1       9.607  -2.361  -0.393  0.00  0.00     0.004 C 
ATOM      3  C3  NON d   1       8.656  -1.447  -0.702  0.00  0.00     0.099 C 
ATOM      4  N1  NON d   1       7.657  -1.759  -1.596  0.00  0.00    -0.321 N 
ATOM      5  C4  NON d   1       6.389  -1.291  -1.800  0.00  0.00     0.245 C 
ATOM      6  O1  NON d   1       6.024  -1.173  -2.979  0.00  0.00    -0.271 OA
ATOM      7  C5  NON d   1       5.326  -1.134  -0.666  0.00  0.00     0.187 C 
ATOM      8  C6  NON d   1       5.895  -1.226   0.762  0.00  0.00     0.120 C 
ATOM      9  S1  NON d   1       4.838  -1.927   2.147  0.00  0.00    -0.095 SA
ATOM     10  S2  NON d   1       3.876  -0.339   3.127  0.00  0.00    -0.097 SA
ATOM     11  C7  NON d   1       5.089   0.936   2.808  0.00  0.00     0.090 C 
ATOM     12  C8  NON d   1       4.883   2.436   2.891  0.00  0.00     0.038 C 
ATOM     13  C9  NON d   1       5.767   3.149   1.853  0.00  0.00    -0.027 C 
ATOM     14  C10 NON d   1       5.892   2.696   0.582  0.00  0.00     0.002 C 
ATOM     15  C11 NON d   1       6.114   3.453  -0.684  0.00  0.00     0.163 C 
ATOM     16  C12 NON d   1       5.019   4.538  -0.785  0.00  0.00     0.139 C 
ATOM     17  C13 NON d   1       3.627   3.937  -0.519  0.00  0.00     0.221 C 
ATOM     18  O2  NON d   1       2.858   4.406   0.311  0.00  0.00    -0.274 OA
ATOM     19  N2  NON d   1       3.335   2.753  -1.208  0.00  0.00    -0.347 N 
ATOM     20  C14 NON d   1       2.599   1.688  -0.492  0.00  0.00     0.180 C 
ATOM     21  C18 NON d   1       3.221   0.230  -0.585  0.00  0.00     0.241 C 
ATOM     22  O3  NON d   1       2.601  -0.756  -0.165  0.00  0.00    -0.271 OA
ATOM     23  N3  NON d   1       4.540   0.102  -0.963  0.00  0.00    -0.345 N 
ATOM     24  O4  NON d   1       7.451   3.898  -0.941  0.00  0.00    -0.310 OA
ATOM     25  C19 NON d   1       8.404   3.708  -0.001  0.00  0.00     0.282 C 
ATOM     26  O5  NON d   1       8.796   4.650   0.683  0.00  0.00    -0.263 OA
ATOM     27  C20 NON d   1       9.113   2.312   0.009  0.00  0.00     0.188 C 
ATOM     28  N4  NON d   1       8.551   1.078  -0.632  0.00  0.00    -0.342 N 
ATOM     29  C24 NON d   1       8.830  -0.123   0.015  0.00  0.00     0.268 C 
ATOM     30  O6  NON d   1       9.284  -0.140   1.166  0.00  0.00    -0.266 OA
ATOM     31  H5  NON d   1       7.961  -2.347  -2.367  0.00  0.00     0.169 HD
ATOM     32  H18 NON d   1       3.051   2.919  -2.164  0.00  0.00     0.163 HD
ATOM     33  H27 NON d   1       4.726   0.532  -1.864  0.00  0.00     0.163 HD
ATOM     34  H36 NON d   1       8.400   1.087  -1.633  0.00  0.00     0.163 HD
ENDROOT
BRANCH  20  35
ATOM     35  C15 NON d   1       1.059   1.626  -0.709  0.00  0.00     0.009 C 
ATOM     36  C16 NON d   1       0.399   2.821  -1.398  0.00  0.00     0.012 C 
ATOM     37  C17 NON d   1       0.361   1.399   0.644  0.00  0.00     0.012 C 
ENDBRANCH  20  35
BRANCH  27  38
ATOM     38  C21 NON d   1      10.627   2.455  -0.409  0.00  0.00     0.010 C 
ATOM     39  C22 NON d   1      10.912   3.569  -1.422  0.00  0.00     0.012 C 
ATOM     40  C23 NON d   1      11.529   2.613   0.823  0.00  0.00     0.012 C 
ENDBRANCH  27  38
TORSDOF 2
