@<TRIPOS>MOLECULE
*****
 36 37 0 0 0
SMALL
USER_CHARGES

@<TRIPOS>ATOM
      1 O1         -2.9757   -0.2421    0.4998 O.2     1  NONAME1    -0.2681
      2 C1         -3.9996   -0.9108    0.5389 C.2     1  NONAME1     0.2665
      3 N1         -5.2642   -0.3826    0.4103 N.am    1  NONAME1    -0.1935
      4 O2         -5.3576    0.9887    0.1032 O.3     1  NONAME1    -0.2949
      5 C2         -3.9495   -2.3935    0.6408 C.ar    1  NONAME1     0.0387
      6 C3         -2.9423   -3.0890   -0.0291 C.ar    1  NONAME1    -0.0491
      7 C4         -2.9763   -4.4915   -0.0871 C.ar    1  NONAME1    -0.0528
      8 C5         -4.0144   -5.2053    0.5284 C.ar    1  NONAME1    -0.0029
      9 C6         -4.1319   -6.6947    0.3374 C.3     1  NONAME1    -0.0074
     10 N2         -5.4946   -7.1625   -0.0914 N.4     1  NONAME1     0.2336
     11 C7         -5.8153   -7.1543   -1.5566 C.3     1  NONAME1    -0.0074
     12 C8         -6.6806   -6.0075   -2.0138 C.ar    1  NONAME1    -0.0016
     13 C9         -6.2192   -4.6842   -1.9895 C.ar    1  NONAME1    -0.0535
     14 C10        -7.0212   -3.6230   -2.4162 C.ar    1  NONAME1    -0.0599
     15 C11        -8.2901   -3.8722   -2.9278 C.ar    1  NONAME1    -0.0434
     16 C12        -8.7486   -5.1830   -3.0066 C.ar    1  NONAME1     0.0414
     17 Cl1       -10.2882   -5.5056   -3.6998 Cl      1  NONAME1    -0.0835
     18 C13        -7.9609   -6.2439   -2.5439 C.ar    1  NONAME1    -0.0352
     19 C14        -4.9445   -4.4977    1.3109 C.ar    1  NONAME1    -0.0528
     20 C15        -4.9235   -3.1008    1.3527 C.ar    1  NONAME1    -0.0491
     21 H1         -6.0976   -0.9314    0.2370 H       1  NONAME1     0.1825
     22 H2         -4.5038    1.3449    0.4286 H       1  NONAME1     0.2414
     23 H3         -2.1532   -2.5397   -0.5453 H       1  NONAME1     0.0625
     24 H4         -2.1931   -4.9982   -0.6524 H       1  NONAME1     0.0622
     25 H5         -3.9175   -7.1952    1.2867 H       1  NONAME1     0.0867
     26 H6         -3.4173   -7.0709   -0.4059 H       1  NONAME1     0.0867
     27 H7         -5.5858   -8.1328    0.2323 H       1  NONAME1     0.2020
     28 H8         -6.2261   -6.6437    0.4073 H       1  NONAME1     0.2020
     29 H9         -4.8832   -7.2071   -2.1278 H       1  NONAME1     0.0867
     30 H10        -6.3499   -8.0973   -1.7264 H       1  NONAME1     0.0867
     31 H11        -5.2117   -4.4446   -1.6727 H       1  NONAME1     0.0622
     32 H12        -6.6439   -2.6023   -2.3796 H       1  NONAME1     0.0618
     33 H13        -8.9012   -3.0470   -3.2862 H       1  NONAME1     0.0632
     34 H14        -8.3533   -7.2558   -2.6359 H       1  NONAME1     0.0637
     35 H15        -5.7177   -5.0103    1.8794 H       1  NONAME1     0.0622
     36 H16        -5.6702   -2.5719    1.9433 H       1  NONAME1     0.0625
@<TRIPOS>BOND
     1     1     2    2
     2     2     3   am
     3     3     4    1
     4     2     5    1
     5     5     6   ar
     6     6     7   ar
     7     7     8   ar
     8     8     9    1
     9     9    10    1
    10    10    11    1
    11    11    12    1
    12    12    13   ar
    13    13    14   ar
    14    14    15   ar
    15    15    16   ar
    16    16    17    1
    17    16    18   ar
    18    12    18   ar
    19     8    19   ar
    20    19    20   ar
    21     5    20   ar
    22     3    21    1
    23     4    22    1
    24     6    23    1
    25     7    24    1
    26     9    25    1
    27     9    26    1
    28    10    27    1
    29    10    28    1
    30    11    29    1
    31    11    30    1
    32    13    31    1
    33    14    32    1
    34    15    33    1
    35    18    34    1
    36    19    35    1
    37    20    36    1
