@<TRIPOS>MOLECULE
*****
 33 35 0 0 0
SMALL
USER_CHARGES

@<TRIPOS>ATOM
      1 O1         -2.4111   -4.9368    0.3853 O.2     1  NONAME1    -0.2664
      2 C1         -3.5712   -5.2386    0.1345 C.2     1  NONAME1     0.2863
      3 N1         -4.6503   -4.3806   -0.0269 N.am    1  NONAME1    -0.2759
      4 C2         -4.7029   -2.9616   -0.0322 C.ar    1  NONAME1     0.0762
      5 C3         -6.0004   -2.3914    0.0021 C.ar    1  NONAME1    -0.0292
      6 C4         -6.2452   -0.9952    0.0190 C.ar    1  NONAME1    -0.0159
      7 C5         -7.6292   -0.4060    0.0262 C.ar    1  NONAME1    -0.0178
      8 C6         -8.7938   -1.2017    0.0229 C.ar    1  NONAME1    -0.0540
      9 C7        -10.0821   -0.6458    0.0159 C.ar    1  NONAME1    -0.0612
     10 C8        -10.2534    0.7309    0.0114 C.ar    1  NONAME1    -0.0617
     11 C9         -9.1360    1.5517    0.0156 C.ar    1  NONAME1    -0.0612
     12 C10        -7.8513    0.9901    0.0230 C.ar    1  NONAME1    -0.0540
     13 C11        -5.0983   -0.1828    0.0170 C.ar    1  NONAME1    -0.0505
     14 C12        -3.8077   -0.7159   -0.0372 C.ar    1  NONAME1    -0.0178
     15 C13        -3.6127   -2.0933   -0.0831 C.ar    1  NONAME1     0.1380
     16 O2         -2.3397   -2.5364   -0.2608 O.3     1  NONAME1    -0.5049
     17 C14        -3.9372   -6.6394    0.0339 C.ar    1  NONAME1     0.2217
     18 C15        -3.1681   -7.7829    0.0466 C.ar    1  NONAME1     0.0098
     19 C16        -4.0979   -8.8303   -0.0484 C.ar    1  NONAME1     0.0708
     20 N2         -5.3526   -8.3805   -0.1208 N.ar    1  NONAME1    -0.0859
     21 O3         -5.2508   -6.9981   -0.0739 O.2     1  NONAME1    -0.3500
     22 H1         -5.5458   -4.8495   -0.0977 H       1  NONAME1     0.1553
     23 H2         -6.8419   -3.0773    0.0198 H       1  NONAME1     0.0643
     24 H3         -8.7404   -2.2857    0.0220 H       1  NONAME1     0.0624
     25 H4        -10.9522   -1.2993    0.0104 H       1  NONAME1     0.0618
     26 H5        -11.2499    1.1628    0.0039 H       1  NONAME1     0.0618
     27 H6         -9.2539    2.6328    0.0108 H       1  NONAME1     0.0618
     28 H7         -7.0278    1.6972    0.0221 H       1  NONAME1     0.0624
     29 H8         -5.1654    0.9001    0.0353 H       1  NONAME1     0.0625
     30 H9         -2.9637   -0.0329   -0.0780 H       1  NONAME1     0.0655
     31 H10        -1.7089   -1.8600    0.0284 H       1  NONAME1     0.2922
     32 H11        -2.0915   -7.8322    0.1192 H       1  NONAME1     0.0673
     33 H12        -3.9194   -9.8969   -0.0644 H       1  NONAME1     0.0864
@<TRIPOS>BOND
     1     1     2    2
     2     2     3   am
     3     3     4    1
     4     4     5   ar
     5     5     6   ar
     6     6     7    1
     7     7     8   ar
     8     8     9   ar
     9     9    10   ar
    10    10    11   ar
    11    11    12   ar
    12     7    12   ar
    13     6    13   ar
    14    13    14   ar
    15    14    15   ar
    16     4    15   ar
    17    15    16    1
    18     2    17    1
    19    17    18   ar
    20    18    19   ar
    21    19    20   ar
    22    20    21   ar
    23    17    21   ar
    24     3    22    1
    25     5    23    1
    26     8    24    1
    27     9    25    1
    28    10    26    1
    29    11    27    1
    30    12    28    1
    31    13    29    1
    32    14    30    1
    33    16    31    1
    34    18    32    1
    35    19    33    1
