@<TRIPOS>MOLECULE
*****
 28 30 0 0 0
SMALL
USER_CHARGES

@<TRIPOS>ATOM
      1 O1         -3.5396   -6.0307   -0.0126 O.2     1  NONAME1    -0.2820
      2 C1         -2.3033   -6.0435    0.0279 C.2     1  NONAME1     0.2719
      3 C2         -1.5511   -4.7904   -0.0096 C.ar    1  NONAME1     0.0642
      4 C3         -2.0871   -3.5186   -0.0292 C.ar    1  NONAME1    -0.0432
      5 C4         -1.0866   -2.5041   -0.0503 C.ar    1  NONAME1    -0.0463
      6 C5          0.2046   -3.0084   -0.0518 C.ar    1  NONAME1     0.0201
      7 C6          1.4948   -2.2767   -0.0571 C.ar    1  NONAME1    -0.0092
      8 C7          1.5124   -0.8762   -0.0784 C.ar    1  NONAME1    -0.0514
      9 C8          2.7198   -0.1706   -0.0714 C.ar    1  NONAME1    -0.0336
     10 C9          3.9370   -0.8291   -0.0436 C.ar    1  NONAME1     0.0892
     11 N1          5.0771   -0.1148   -0.0329 N.ar    1  NONAME1    -0.2519
     12 C10         6.2272   -0.8216   -0.0038 C.ar    1  NONAME1     0.0464
     13 C11         6.2433   -2.1999    0.0127 C.ar    1  NONAME1     0.0464
     14 N2          5.1082   -2.9310    0.0021 N.ar    1  NONAME1    -0.2519
     15 C12         3.9490   -2.2421   -0.0254 C.ar    1  NONAME1     0.0897
     16 C13         2.7395   -2.9307   -0.0335 C.ar    1  NONAME1    -0.0260
     17 S1          0.1496   -4.7283   -0.0425 S.2     1  NONAME1    -0.0851
     18 C14        -1.5313   -7.3626    0.1201 C.3     1  NONAME1     0.4559
     19 F1         -0.7471   -7.5926   -0.9714 F       1  NONAME1    -0.1630
     20 F2         -2.3531   -8.4478    0.2198 F       1  NONAME1    -0.1630
     21 F3         -0.7108   -7.4231    1.2078 F       1  NONAME1    -0.1630
     22 H1         -3.1544   -3.3234   -0.0202 H       1  NONAME1     0.0630
     23 H2         -1.3262   -1.4480   -0.0581 H       1  NONAME1     0.0629
     24 H3          0.5928   -0.2974   -0.0993 H       1  NONAME1     0.0624
     25 H4          2.7091    0.9170   -0.0862 H       1  NONAME1     0.0640
     26 H5          7.1426   -0.2417    0.0059 H       1  NONAME1     0.0845
     27 H6          7.1713   -2.7591    0.0354 H       1  NONAME1     0.0845
     28 H7          2.8053   -4.0157   -0.0163 H       1  NONAME1     0.0646
@<TRIPOS>BOND
     1     1     2    2
     2     2     3    1
     3     3     4   ar
     4     4     5   ar
     5     5     6   ar
     6     6     7    1
     7     7     8   ar
     8     8     9   ar
     9     9    10   ar
    10    10    11   ar
    11    11    12   ar
    12    12    13   ar
    13    13    14   ar
    14    14    15   ar
    15    10    15   ar
    16    15    16   ar
    17     7    16   ar
    18     6    17   ar
    19     3    17   ar
    20     2    18    1
    21    18    19    1
    22    18    20    1
    23    18    21    1
    24     4    22    1
    25     5    23    1
    26     8    24    1
    27     9    25    1
    28    12    26    1
    29    13    27    1
    30    16    28    1
