@<TRIPOS>MOLECULE
*****
 57 59 0 0 0
SMALL
USER_CHARGES

@<TRIPOS>ATOM
      1 C1         16.2726    7.0354    1.5604 C.3     1  NONAME1    -0.0605
      2 C2         16.1145    6.7626    0.0000 C.3     1  NONAME1    -0.0179
      3 C3         15.2294    7.7838   -0.8443 C.3     1  NONAME1    -0.0605
      4 C4         15.1616    5.5528    0.0000 C.3     1  NONAME1     0.1228
      5 N1         15.7411    4.2912    0.5128 N.am    1  NONAME1    -0.3006
      6 C5         15.5681    3.1311   -0.2404 C.2     1  NONAME1     0.2370
      7 O1         15.4371    3.1559   -1.4625 O.2     1  NONAME1    -0.2737
      8 C6         15.5613    1.8346    0.5344 C.3     1  NONAME1     0.1387
      9 N2         14.3409    1.1009    0.2796 N.ar    1  NONAME1    -0.1538
     10 N3         14.3512   -0.1738   -0.1623 N.ar    1  NONAME1    -0.0453
     11 N4         13.0720   -0.5224   -0.2227 N.ar    1  NONAME1    -0.1062
     12 C7         12.3563    0.5489    0.2476 C.ar    1  NONAME1     0.2231
     13 N5         13.1315    1.5689    0.6503 N.ar    1  NONAME1    -0.1284
     14 C8         10.8893    0.5641    0.1929 C.ar    1  NONAME1     0.1189
     15 C9         10.0635   -0.4576   -0.2323 C.ar    1  NONAME1     0.0066
     16 S1          8.4412    0.1071   -0.3325 S.2     1  NONAME1    -0.0783
     17 C10         8.9676    1.6647    0.1617 C.ar    1  NONAME1     0.0961
     18 N6         10.2362    1.7342    0.5256 N.ar    1  NONAME1    -0.2392
     19 C11         8.0447    2.8502    0.1363 C.3     1  NONAME1     0.0604
     20 N7          8.7071    3.9677    0.7901 N.am    1  NONAME1    -0.3091
     21 C12         9.7664    4.6105    0.1480 C.2     1  NONAME1     0.2172
     22 O2          9.9562    4.5615   -1.0592 O.2     1  NONAME1    -0.2757
     23 C13        10.6511    5.3417    1.1386 C.3     1  NONAME1     0.0647
     24 C14        11.5533    6.4740    0.6246 C.3     1  NONAME1     0.1295
     25 C15        10.9208    7.6228   -0.1280 C.2     1  NONAME1    -0.0474
     26 C16         9.6326    7.7722   -0.4840 C.2     1  NONAME1    -0.0837
     27 C17         8.9764    9.0555   -0.9302 C.3     1  NONAME1    -0.0258
     28 C18         9.7164   10.3173   -0.4825 C.3     1  NONAME1    -0.0059
     29 S2          8.6600   11.7880   -0.5819 S.3     1  NONAME1    -0.1779
     30 O3         12.7571    6.0640   -0.0621 O.3     1  NONAME1    -0.4554
     31 C19        13.7940    5.7087    0.7536 C.2     1  NONAME1     0.3285
     32 O4         13.6827    5.5300    1.9655 O.2     1  NONAME1    -0.2487
     33 H1         15.8311    7.9950    1.8465 H       1  NONAME1     0.0233
     34 H2         17.3468    7.0610    1.7941 H       1  NONAME1     0.0233
     35 H3         15.8876    6.2649    2.2286 H       1  NONAME1     0.0233
     36 H4         17.0674    7.9724    0.0000 H       1  NONAME1     0.0319
     37 H5         14.5152    7.3065   -1.5241 H       1  NONAME1     0.0233
     38 H6         14.6999    8.4952   -0.2067 H       1  NONAME1     0.0233
     39 H7         15.8839    8.3408   -1.5305 H       1  NONAME1     0.0233
     40 H8         14.8969    5.3376   -1.0428 H       1  NONAME1     0.0617
     41 H9         15.6737    4.1911    1.5216 H       1  NONAME1     0.1496
     42 H10        15.6246    2.0004    1.6127 H       1  NONAME1     0.0624
     43 H11        16.4136    1.2266    0.2159 H       1  NONAME1     0.0624
     44 H12        10.3299   -1.4641   -0.5298 H       1  NONAME1     0.0716
     45 H13         7.1258    2.6423    0.6963 H       1  NONAME1     0.0532
     46 H14         7.7900    3.1249   -0.8945 H       1  NONAME1     0.0532
     47 H15         8.7927    3.8788    1.7941 H       1  NONAME1     0.1491
     48 H16         9.9885    5.7758    1.9001 H       1  NONAME1     0.0398
     49 H17        11.2590    4.5745    1.6316 H       1  NONAME1     0.0398
     50 H18        11.8874    6.9813    1.5428 H       1  NONAME1     0.0784
     51 H19        11.6079    8.4526   -0.2791 H       1  NONAME1     0.0605
     52 H20         8.9291    6.9510   -0.3775 H       1  NONAME1     0.0570
     53 H21         7.9737    9.0509   -0.4807 H       1  NONAME1     0.0315
     54 H22         8.8376    9.0423   -2.0173 H       1  NONAME1     0.0315
     55 H23        10.6026   10.4849   -1.1027 H       1  NONAME1     0.0377
     56 H24        10.0451   10.2258    0.5591 H       1  NONAME1     0.0377
     57 H25         9.5169   12.6205    0.0288 H       1  NONAME1     0.1016
@<TRIPOS>BOND
     1     1     2    1
     2     2     3    1
     3     4     2    1
     4     4     5    1
     5     5     6   am
     6     6     7    2
     7     6     8    1
     8     8     9    1
     9     9    10   ar
    10    10    11   ar
    11    11    12   ar
    12    12    13   ar
    13     9    13   ar
    14    12    14    1
    15    14    15   ar
    16    15    16   ar
    17    16    17   ar
    18    17    18   ar
    19    14    18   ar
    20    17    19    1
    21    19    20    1
    22    20    21   am
    23    21    22    2
    24    21    23    1
    25    24    23    1
    26    24    25    1
    27    25    26    2
    28    26    27    1
    29    27    28    1
    30    28    29    1
    31    24    30    1
    32    30    31    1
    33     4    31    1
    34    31    32    2
    35     1    33    1
    36     1    34    1
    37     1    35    1
    38     2    36    1
    39     3    37    1
    40     3    38    1
    41     3    39    1
    42     4    40    1
    43     5    41    1
    44     8    42    1
    45     8    43    1
    46    15    44    1
    47    19    45    1
    48    19    46    1
    49    20    47    1
    50    23    48    1
    51    23    49    1
    52    24    50    1
    53    25    51    1
    54    26    52    1
    55    27    53    1
    56    27    54    1
    57    28    55    1
    58    28    56    1
    59    29    57    1
