@<TRIPOS>MOLECULE
*****
 76 80 0 0 0
SMALL
USER_CHARGES

@<TRIPOS>ATOM
      1 C1          5.0795   -5.5508   -0.1400 C.3     1  NONAME1     0.0788
      2 O1          6.2215   -6.4008   -0.0918 O.3     1  NONAME1    -0.4951
      3 C2          7.4490   -5.7918   -0.0403 C.ar    1  NONAME1     0.1208
      4 C3          7.6625   -4.4168   -0.0029 C.ar    1  NONAME1    -0.0180
      5 C4          8.9575   -3.8944    0.0168 C.ar    1  NONAME1    -0.0343
      6 C5         10.0283   -4.7927    0.0224 C.ar    1  NONAME1     0.0472
      7 N1         11.3715   -4.5436    0.0385 N.ar    1  NONAME1    -0.3579
      8 C6         12.0925   -5.7108    0.1184 C.ar    1  NONAME1     0.0175
      9 C7         13.5728   -5.6162    0.2242 C.3     1  NONAME1    -0.0242
     10 C8         11.2017   -6.7812    0.0534 C.ar    1  NONAME1    -0.0106
     11 C9         11.4542   -8.2893    0.0812 C.3     1  NONAME1     0.0513
     12 C10        12.8689   -8.8074   -0.2420 C.2     1  NONAME1     0.2180
     13 O2         13.5906   -8.2501   -1.0638 O.2     1  NONAME1    -0.2754
     14 N2         13.2283  -10.0136    0.3821 N.am    1  NONAME1    -0.3052
     15 C11        14.6348  -10.5004    0.5589 C.3     1  NONAME1     0.0810
     16 C12        15.6873   -9.8390   -0.3680 C.3     1  NONAME1    -0.0275
     17 C13        17.1608  -10.2665   -0.2124 C.3     1  NONAME1    -0.0510
     18 C14        17.7976  -10.7812   -1.5180 C.3     1  NONAME1    -0.0525
     19 C15        17.1789  -12.0893   -2.0114 C.3     1  NONAME1    -0.0447
     20 C16        17.7948  -12.6733   -3.2787 C.3     1  NONAME1     0.0259
     21 C17        19.1262  -13.3885   -3.0754 C.2     1  NONAME1     0.2354
     22 O3         19.9475  -13.0741   -2.2214 O.2     1  NONAME1    -0.2737
     23 N3         19.3320  -14.3648   -4.0404 N.am    1  NONAME1    -0.1975
     24 O4         20.4619  -15.1894   -3.8268 O.3     1  NONAME1    -0.2952
     25 C18        14.7210  -12.0265    0.5235 C.ar    1  NONAME1     0.1282
     26 N4         15.7339  -12.7476    0.9796 N.ar    1  NONAME1    -0.2306
     27 C19        15.5572  -14.0505    0.5532 C.ar    1  NONAME1     0.0889
     28 C20        16.6217  -15.0582    0.5736 C.ar    1  NONAME1     0.0024
     29 C21        17.9552  -14.6323    0.6591 C.ar    1  NONAME1    -0.0519
     30 C22        19.0262  -15.5273    0.5238 C.ar    1  NONAME1    -0.0534
     31 C23        18.7938  -16.8940    0.3452 C.ar    1  NONAME1    -0.0178
     32 C24        19.8635  -17.7980    0.2007 C.ar    1  NONAME1    -0.0540
     33 C25        19.6321  -19.1634    0.0366 C.ar    1  NONAME1    -0.0612
     34 C26        18.3240  -19.6390    0.0191 C.ar    1  NONAME1    -0.0612
     35 C27        17.2505  -18.7483    0.1480 C.ar    1  NONAME1    -0.0540
     36 C28        17.4623  -17.3661    0.3067 C.ar    1  NONAME1    -0.0173
     37 C29        16.3906  -16.4381    0.4103 C.ar    1  NONAME1    -0.0448
     38 C30        14.3173  -14.1474   -0.0528 C.ar    1  NONAME1     0.0293
     39 N5         13.8066  -12.8679   -0.0681 N.ar    1  NONAME1    -0.3462
     40 C31         9.8744   -6.1776    0.0102 C.ar    1  NONAME1     0.0070
     41 C32         8.5490   -6.6753   -0.0287 C.ar    1  NONAME1    -0.0105
     42 H1          5.1478   -4.8113   -0.9456 H       1  NONAME1     0.0660
     43 H2          4.9191   -5.0626    0.8275 H       1  NONAME1     0.0660
     44 H3          4.2043   -6.1736   -0.3506 H       1  NONAME1     0.0660
     45 H4          6.8393   -3.7103    0.0077 H       1  NONAME1     0.0655
     46 H5          9.1173   -2.8193    0.0311 H       1  NONAME1     0.0639
     47 H6         11.7707   -3.6147    0.0261 H       1  NONAME1     0.1656
     48 H7         13.9658   -6.3579    0.9237 H       1  NONAME1     0.0292
     49 H8         14.0375   -5.7514   -0.7567 H       1  NONAME1     0.0292
     50 H9         13.8760   -4.6286    0.5929 H       1  NONAME1     0.0292
     51 H10        10.7927   -8.7573   -0.6595 H       1  NONAME1     0.0408
     52 H11        11.1557   -8.6570    1.0694 H       1  NONAME1     0.0408
     53 H12        12.5854  -10.3516    1.0857 H       1  NONAME1     0.1494
     54 H13        14.8794  -10.2115    1.5898 H       1  NONAME1     0.0579
     55 H14        15.6788   -8.7644   -0.1408 H       1  NONAME1     0.0287
     56 H15        15.3748   -9.9370   -1.4132 H       1  NONAME1     0.0287
     57 H16        17.3098  -10.9879    0.5948 H       1  NONAME1     0.0266
     58 H17        17.7356   -9.3821    0.0948 H       1  NONAME1     0.0266
     59 H18        17.7065  -10.0127   -2.2943 H       1  NONAME1     0.0265
     60 H19        18.8686  -10.9227   -1.3375 H       1  NONAME1     0.0265
     61 H20        16.1128  -11.9290   -2.2073 H       1  NONAME1     0.0270
     62 H21        17.2525  -12.8330   -1.2234 H       1  NONAME1     0.0270
     63 H22        17.9287  -11.8994   -4.0412 H       1  NONAME1     0.0359
     64 H23        17.0788  -13.4054   -3.6750 H       1  NONAME1     0.0359
     65 H24        18.5216  -14.8579   -4.4029 H       1  NONAME1     0.1822
     66 H25        21.1426  -14.7440   -4.3644 H       1  NONAME1     0.2414
     67 H26        18.1839  -13.5723    0.7756 H       1  NONAME1     0.0624
     68 H27        20.0391  -15.1338    0.5375 H       1  NONAME1     0.0624
     69 H28        20.8936  -17.4394    0.2119 H       1  NONAME1     0.0624
     70 H29        20.4673  -19.8507   -0.0672 H       1  NONAME1     0.0618
     71 H30        18.1379  -20.7031   -0.1010 H       1  NONAME1     0.0618
     72 H31        16.2386  -19.1470    0.1186 H       1  NONAME1     0.0624
     73 H32        15.3710  -16.8059    0.3552 H       1  NONAME1     0.0630
     74 H33        13.8073  -14.9673   -0.5382 H       1  NONAME1     0.0829
     75 H34        12.9477  -12.5731   -0.5102 H       1  NONAME1     0.1666
     76 H35         8.3687   -7.7466   -0.0485 H       1  NONAME1     0.0661
@<TRIPOS>BOND
     1     1     2    1
     2     2     3    1
     3     3     4   ar
     4     4     5   ar
     5     5     6   ar
     6     6     7   ar
     7     7     8   ar
     8     8     9    1
     9     8    10   ar
    10    10    11    1
    11    11    12    1
    12    12    13    2
    13    12    14   am
    14    15    14    1
    15    15    16    1
    16    16    17    1
    17    17    18    1
    18    18    19    1
    19    19    20    1
    20    20    21    1
    21    21    22    2
    22    21    23   am
    23    23    24    1
    24    15    25    1
    25    25    26   ar
    26    26    27   ar
    27    27    28    1
    28    28    29   ar
    29    29    30   ar
    30    30    31   ar
    31    31    32   ar
    32    32    33   ar
    33    33    34   ar
    34    34    35   ar
    35    35    36   ar
    36    31    36   ar
    37    36    37   ar
    38    28    37   ar
    39    27    38   ar
    40    38    39   ar
    41    25    39   ar
    42    10    40   ar
    43     6    40   ar
    44    40    41   ar
    45     3    41   ar
    46     1    42    1
    47     1    43    1
    48     1    44    1
    49     4    45    1
    50     5    46    1
    51     7    47    1
    52     9    48    1
    53     9    49    1
    54     9    50    1
    55    11    51    1
    56    11    52    1
    57    14    53    1
    58    15    54    1
    59    16    55    1
    60    16    56    1
    61    17    57    1
    62    17    58    1
    63    18    59    1
    64    18    60    1
    65    19    61    1
    66    19    62    1
    67    20    63    1
    68    20    64    1
    69    23    65    1
    70    24    66    1
    71    29    67    1
    72    30    68    1
    73    32    69    1
    74    33    70    1
    75    34    71    1
    76    35    72    1
    77    37    73    1
    78    38    74    1
    79    39    75    1
    80    41    76    1
