@<TRIPOS>MOLECULE
*****
 76 79 0 0 0
SMALL
USER_CHARGES

@<TRIPOS>ATOM
      1 C1         23.1350    6.8692    6.0111 C.3     1  NONAME1     0.0788
      2 O1         23.1189    5.6170    5.3244 O.3     1  NONAME1    -0.4951
      3 C2         23.7572    5.5702    4.1117 C.ar    1  NONAME1     0.1208
      4 C3         24.5806    6.5602    3.5847 C.ar    1  NONAME1    -0.0180
      5 C4         25.1886    6.4007    2.3292 C.ar    1  NONAME1    -0.0343
      6 C5         24.9048    5.2338    1.6088 C.ar    1  NONAME1     0.0473
      7 N1         25.3327    4.8413    0.3663 N.ar    1  NONAME1    -0.3577
      8 C6         24.6990    3.6774   -0.0315 C.ar    1  NONAME1     0.0221
      9 C7         24.9477    3.1699   -1.4063 C.3     1  NONAME1    -0.0240
     10 C8         23.9060    3.2420    1.0244 C.ar    1  NONAME1     0.0250
     11 C9         22.9293    2.1053    1.1424 C.3     1  NONAME1    -0.0047
     12 N2         22.6454    1.2184   -0.0281 N.4     1  NONAME1     0.2391
     13 C10        21.3629    0.3394    0.0000 C.3     1  NONAME1     0.0555
     14 C11        19.7898    0.3989    0.0076 C.3     1  NONAME1    -0.0010
     15 C12        19.1396    0.9060    1.3265 C.3     1  NONAME1    -0.0475
     16 C13        18.9106    2.4310    1.3919 C.3     1  NONAME1    -0.0525
     17 C14        19.6692    3.1464    2.5259 C.3     1  NONAME1    -0.0464
     18 C15        20.0547    4.5824    2.1323 C.3     1  NONAME1     0.0055
     19 C16        19.8367    5.6877    3.1494 C.2     1  NONAME1     0.1303
     20 C17        19.5748    5.3416    4.5861 C.3     1  NONAME1    -0.0061
     21 O2         19.8981    6.8652    2.7877 O.2     1  NONAME1    -0.2977
     22 C18        21.8670   -1.1158    0.0000 C.2     1  NONAME1     0.2654
     23 O3         23.1060   -1.1735   -0.1227 O.2     1  NONAME1    -0.2693
     24 N3         21.0830   -2.2399    0.1127 N.am    1  NONAME1    -0.2809
     25 C19        21.5449   -3.5976    0.0822 C.ar    1  NONAME1     0.0341
     26 C20        22.8920   -3.9536    0.0450 C.ar    1  NONAME1    -0.0404
     27 C21        23.2696   -5.2895    0.0124 C.ar    1  NONAME1    -0.0594
     28 C22        22.3032   -6.2930    0.0149 C.ar    1  NONAME1    -0.0539
     29 C23        20.9247   -6.0151    0.0590 C.ar    1  NONAME1    -0.0161
     30 C24        19.9093   -7.1273    0.0584 C.ar    1  NONAME1    -0.0178
     31 C25        20.2853   -8.4901    0.0650 C.ar    1  NONAME1    -0.0540
     32 C26        19.3518   -9.5372    0.0658 C.ar    1  NONAME1    -0.0612
     33 C27        17.9957   -9.2567    0.0652 C.ar    1  NONAME1    -0.0617
     34 C28        17.5796   -7.9324    0.0633 C.ar    1  NONAME1    -0.0612
     35 C29        18.5198   -6.8883    0.0603 C.ar    1  NONAME1    -0.0540
     36 C30        20.5818   -4.6360    0.0936 C.ar    1  NONAME1    -0.0328
     37 C31        24.0660    4.2313    2.0795 C.ar    1  NONAME1     0.0116
     38 C32        23.5198    4.3932    3.3733 C.ar    1  NONAME1    -0.0103
     39 H1         24.1548    7.1886    6.2499 H       1  NONAME1     0.0660
     40 H2         22.6036    7.6357    5.4368 H       1  NONAME1     0.0660
     41 H3         22.6058    6.7343    6.9596 H       1  NONAME1     0.0660
     42 H4         24.7904    7.4789    4.1256 H       1  NONAME1     0.0655
     43 H5         25.8353    7.1762    1.9310 H       1  NONAME1     0.0639
     44 H6         25.9733    5.3827   -0.2002 H       1  NONAME1     0.1656
     45 H7         24.0175    3.1755   -1.9803 H       1  NONAME1     0.0292
     46 H8         25.3486    2.1532   -1.3772 H       1  NONAME1     0.0292
     47 H9         25.6655    3.8005   -1.9431 H       1  NONAME1     0.0292
     48 H10        21.9860    2.5987    1.3501 H       1  NONAME1     0.0867
     49 H11        23.1680    1.4577    1.9908 H       1  NONAME1     0.0867
     50 H12        23.4377    0.5453   -0.0867 H       1  NONAME1     0.2025
     51 H13        22.6955    1.7549   -0.8986 H       1  NONAME1     0.2025
     52 H14        20.8588    1.7946    0.0000 H       1  NONAME1     0.0949
     53 H15        19.3481   -0.5775   -0.1900 H       1  NONAME1     0.0325
     54 H16        19.4160    0.9623   -0.8641 H       1  NONAME1     0.0325
     55 H17        19.6953    0.5333    2.1933 H       1  NONAME1     0.0267
     56 H18        18.1454    0.4410    1.3819 H       1  NONAME1     0.0267
     57 H19        19.1238    2.8913    0.4205 H       1  NONAME1     0.0265
     58 H20        17.8421    2.6147    1.5667 H       1  NONAME1     0.0265
     59 H21        20.5754    2.5960    2.7990 H       1  NONAME1     0.0269
     60 H22        19.0449    3.1160    3.4225 H       1  NONAME1     0.0269
     61 H23        19.5129    4.8904    1.2309 H       1  NONAME1     0.0341
     62 H24        21.1184    4.6114    1.8760 H       1  NONAME1     0.0341
     63 H25        19.6701    6.2400    5.2019 H       1  NONAME1     0.0306
     64 H26        18.5594    4.9522    4.6877 H       1  NONAME1     0.0306
     65 H27        20.3068    4.6095    4.9364 H       1  NONAME1     0.0306
     66 H28        20.0786   -2.1753    0.2009 H       1  NONAME1     0.1550
     67 H29        23.6993   -3.2328    0.0480 H       1  NONAME1     0.0636
     68 H30        24.3244   -5.5576   -0.0166 H       1  NONAME1     0.0618
     69 H31        22.6811   -7.3123   -0.0146 H       1  NONAME1     0.0624
     70 H32        21.3273   -8.7958    0.0690 H       1  NONAME1     0.0624
     71 H33        19.6962  -10.5687    0.0654 H       1  NONAME1     0.0618
     72 H34        17.2683  -10.0638    0.0663 H       1  NONAME1     0.0618
     73 H35        16.5165   -7.7039    0.0628 H       1  NONAME1     0.0618
     74 H36        18.1164   -5.8821    0.0545 H       1  NONAME1     0.0624
     75 H37        19.5329   -4.3554    0.1191 H       1  NONAME1     0.0642
     76 H38        22.8799    3.6332    3.8062 H       1  NONAME1     0.0661
@<TRIPOS>BOND
     1     1     2    1
     2     2     3    1
     3     3     4   ar
     4     4     5   ar
     5     5     6   ar
     6     6     7   ar
     7     7     8   ar
     8     8     9    1
     9     8    10   ar
    10    10    11    1
    11    11    12    1
    12    13    12    1
    13    13    14    1
    14    14    15    1
    15    15    16    1
    16    16    17    1
    17    17    18    1
    18    18    19    1
    19    19    20    1
    20    19    21    2
    21    13    22    1
    22    22    23    2
    23    22    24   am
    24    24    25    1
    25    25    26   ar
    26    26    27   ar
    27    27    28   ar
    28    28    29   ar
    29    29    30    1
    30    30    31   ar
    31    31    32   ar
    32    32    33   ar
    33    33    34   ar
    34    34    35   ar
    35    30    35   ar
    36    29    36   ar
    37    25    36   ar
    38    10    37   ar
    39     6    37   ar
    40    37    38   ar
    41     3    38   ar
    42     1    39    1
    43     1    40    1
    44     1    41    1
    45     4    42    1
    46     5    43    1
    47     7    44    1
    48     9    45    1
    49     9    46    1
    50     9    47    1
    51    11    48    1
    52    11    49    1
    53    12    50    1
    54    12    51    1
    55    13    52    1
    56    14    53    1
    57    14    54    1
    58    15    55    1
    59    15    56    1
    60    16    57    1
    61    16    58    1
    62    17    59    1
    63    17    60    1
    64    18    61    1
    65    18    62    1
    66    20    63    1
    67    20    64    1
    68    20    65    1
    69    24    66    1
    70    26    67    1
    71    27    68    1
    72    28    69    1
    73    31    70    1
    74    32    71    1
    75    33    72    1
    76    34    73    1
    77    35    74    1
    78    36    75    1
    79    38    76    1
