REMARK  4 active torsions:
REMARK  status: ('A' for Active; 'I' for Inactive)
REMARK    1  A    between atoms: N1_1  and  C1_2 
REMARK    2  A    between atoms: C4_5  and  C5_6 
REMARK    3  A    between atoms: C12_13  and  N2_14 
REMARK       I    between atoms: N2_14  and  C13_15 
REMARK    4  A    between atoms: C13_15  and  C14_17 
ROOT
ATOM      1  C1  NON d   1       2.290  -4.848   0.046  0.00  0.00     0.033 A 
ATOM      2  C2  NON d   1       3.533  -5.455   0.205  0.00  0.00     0.026 A 
ATOM      3  C3  NON d   1       3.650  -6.852   0.191  0.00  0.00     0.014 A 
ATOM      4  C4  NON d   1       2.535  -7.697   0.026  0.00  0.00    -0.024 A 
ATOM      5  C11 NON d   1       1.285  -7.049  -0.094  0.00  0.00     0.043 A 
ATOM      6  C12 NON d   1       1.143  -5.656  -0.045  0.00  0.00     0.057 A 
ENDROOT
BRANCH   6   7
ATOM      7  N2  NON d   1      -0.109  -4.988  -0.030  0.00  0.00    -0.321 N 
ATOM      8  C13 NON d   1      -1.366  -5.551  -0.150  0.00  0.00     0.257 C 
ATOM      9  O1  NON d   1      -1.597  -6.741  -0.347  0.00  0.00    -0.267 OA
ATOM     10  H11 NON d   1      -0.008  -4.010   0.205  0.00  0.00     0.169 HD
BRANCH   8  11
ATOM     11  C14 NON d   1      -2.542  -4.641  -0.042  0.00  0.00     0.049 A 
ATOM     12  C15 NON d   1      -3.824  -5.203   0.028  0.00  0.00     0.020 A 
ATOM     13  C16 NON d   1      -4.948  -4.383   0.101  0.00  0.00     0.020 A 
ATOM     14  C17 NON d   1      -4.757  -3.013   0.104  0.00  0.00     0.116 A 
ATOM     15  N3  NON d   1      -3.541  -2.429   0.038  0.00  0.00    -0.272 NA
ATOM     16  C18 NON d   1      -2.465  -3.255  -0.036  0.00  0.00     0.133 A 
ENDBRANCH   8  11
ENDBRANCH   6   7
BRANCH   1  17
ATOM     17  N1  NON d   1       2.182  -3.437   0.055  0.00  0.00    -0.301 NA
ATOM     18  H1  NON d   1       3.094  -2.985   0.036  0.00  0.00     0.124 HD
ATOM     19  H2  NON d   1       1.631  -3.122  -0.741  0.00  0.00     0.124 HD
ENDBRANCH   1  17
BRANCH   4  20
ATOM     20  C5  NON d   1       2.657  -9.191   0.003  0.00  0.00    -0.026 A 
ATOM     21  C6  NON d   1       3.904  -9.844  -0.090  0.00  0.00     0.012 A 
ATOM     22  C7  NON d   1       4.018 -11.242  -0.100  0.00  0.00     0.001 A 
ATOM     23  C8  NON d   1       2.882 -12.038  -0.032  0.00  0.00     0.000 A 
ATOM     24  C9  NON d   1       1.636 -11.435   0.052  0.00  0.00     0.001 A 
ATOM     25  C10 NON d   1       1.529 -10.038   0.075  0.00  0.00     0.012 A 
ENDBRANCH   4  20
TORSDOF 4
