REMARK  5 active torsions:
REMARK  status: ('A' for Active; 'I' for Inactive)
REMARK       I    between atoms: C1_2  and  N1_3 
REMARK    1  A    between atoms: C1_2  and  C2_5 
REMARK    2  A    between atoms: N1_3  and  O2_4 
REMARK    3  A    between atoms: C4_8  and  N3_9 
REMARK    4  A    between atoms: N4_12  and  S1_13 
REMARK    5  A    between atoms: S1_13  and  C7_16 
ROOT
ATOM      1  N3  NON d   1      -3.842  -5.276  -0.387  0.00  0.00    -0.248 NA
ATOM      2  C5  NON d   1      -3.857  -3.861   0.001  0.00  0.00     0.119 C 
ATOM      3  C6  NON d   1      -2.566  -3.146  -0.465  0.00  0.00     0.150 C 
ATOM      4  N4  NON d   1      -1.334  -3.850   0.000  0.00  0.00    -0.304 N 
ATOM      5  C17 NON d   1      -1.375  -5.317  -0.384  0.00  0.00     0.150 C 
ATOM      6  C18 NON d   1      -2.661  -6.004   0.097  0.00  0.00     0.119 C 
ENDROOT
BRANCH   4   7
ATOM      7  S1  NON d   1       0.000  -3.080   0.000  0.00  0.00     0.260 S 
ATOM      8  O3  NON d   1       0.498  -3.995   1.043  0.00  0.00    -0.200 OA
ATOM      9  O4  NON d   1       0.156  -3.473  -1.413  0.00  0.00    -0.200 OA
BRANCH   7  10
ATOM     10  C7  NON d   1       1.334  -2.310   0.000  0.00  0.00     0.080 A 
ATOM     11  C8  NON d   1       1.986  -1.846  -1.175  0.00  0.00     0.026 A 
ATOM     12  C9  NON d   1       3.178  -1.112  -1.173  0.00  0.00     0.014 A 
ATOM     13  C10 NON d   1       3.785  -0.766   0.028  0.00  0.00    -0.026 A 
ATOM     14  C11 NON d   1       4.997  -0.060   0.042  0.00  0.00     0.012 A 
ATOM     15  C15 NON d   1       3.166  -1.144   1.236  0.00  0.00    -0.025 A 
ATOM     16  C12 NON d   1       5.600   0.276   1.251  0.00  0.00     0.001 A 
ATOM     17  C13 NON d   1       4.995  -0.087   2.451  0.00  0.00     0.001 A 
ATOM     18  C14 NON d   1       3.786  -0.788   2.443  0.00  0.00     0.012 A 
ATOM     19  C16 NON d   1       1.952  -1.873   1.200  0.00  0.00     0.037 A 
ENDBRANCH   7  10
ENDBRANCH   4   7
BRANCH   1  20
ATOM     20  C4  NON d   1      -5.044  -5.957  -0.243  0.00  0.00     0.203 A 
ATOM     21  N2  NON d   1      -6.196  -5.266  -0.218  0.00  0.00    -0.230 NA
ATOM     22  C3  NON d   1      -7.355  -5.964  -0.134  0.00  0.00     0.138 A 
ATOM     23  C2  NON d   1      -7.423  -7.336  -0.074  0.00  0.00     0.069 A 
ATOM     24  C19 NON d   1      -6.203  -7.961  -0.101  0.00  0.00     0.138 A 
ATOM     25  N5  NON d   1      -5.025  -7.302  -0.187  0.00  0.00    -0.230 NA
BRANCH  23  26
ATOM     26  C1  NON d   1      -8.728  -8.013   0.028  0.00  0.00     0.277 C 
ATOM     27  O1  NON d   1      -9.764  -7.356   0.118  0.00  0.00    -0.265 OA
ATOM     28  N1  NON d   1      -8.753  -9.388   0.008  0.00  0.00    -0.233 N 
ATOM     29  H1  NON d   1      -7.984 -10.017  -0.187  0.00  0.00     0.197 HD
BRANCH  28  30
ATOM     30  O2  NON d   1     -10.037  -9.977   0.048  0.00  0.00    -0.287 OA
ATOM     31  H2  NON d   1     -10.629  -9.193   0.088  0.00  0.00     0.244 HD
ENDBRANCH  28  30
ENDBRANCH  23  26
ENDBRANCH   1  20
TORSDOF 5
