@<TRIPOS>MOLECULE
*****
 46 48 0 0 0
SMALL
USER_CHARGES

@<TRIPOS>ATOM
      1 O1          2.2267   -4.0234    0.2783 O.2     1  NONAME1    -0.2687
      2 C1          3.1565   -4.7959    0.0548 C.2     1  NONAME1     0.2593
      3 C2          2.9281   -6.2599    0.1107 C.2     1  NONAME1     0.0027
      4 C3          3.8676   -7.2180    0.0630 C.2     1  NONAME1    -0.0496
      5 C4          3.6131   -8.6663    0.2019 C.ar    1  NONAME1    -0.0248
      6 C5          4.7144   -9.5379    0.2321 C.ar    1  NONAME1    -0.0528
      7 C6          4.5401  -10.9162    0.4010 C.ar    1  NONAME1    -0.0388
      8 C7          3.2581  -11.4350    0.5571 C.ar    1  NONAME1     0.0481
      9 N1          3.0584  -12.8432    0.6910 N.pl3   1  NONAME1    -0.2163
     10 S1          2.8039  -13.6857   -0.7635 S.O2    1  NONAME1     0.0723
     11 O2          3.8896  -14.6418   -0.8437 O.2     1  NONAME1    -0.1500
     12 O3          2.5145  -12.7767   -1.8491 O.2     1  NONAME1    -0.1500
     13 C8          1.3086  -14.5700   -0.3933 C.ar    1  NONAME1     0.1085
     14 C9          1.3435  -15.9282   -0.0929 C.ar    1  NONAME1    -0.0345
     15 C10         0.1418  -16.6252    0.1053 C.ar    1  NONAME1    -0.0522
     16 C11        -1.1208  -16.0036   -0.0159 C.ar    1  NONAME1    -0.0178
     17 C12        -2.4025  -16.7713    0.0956 C.ar    1  NONAME1    -0.0179
     18 C13        -2.4402  -18.1790    0.0197 C.ar    1  NONAME1    -0.0540
     19 C14        -3.6421  -18.8988    0.0717 C.ar    1  NONAME1    -0.0612
     20 C15        -4.8531  -18.2304    0.1895 C.ar    1  NONAME1    -0.0617
     21 C16        -4.8575  -16.8450    0.2747 C.ar    1  NONAME1    -0.0612
     22 C17        -3.6514  -16.1316    0.2397 C.ar    1  NONAME1    -0.0540
     23 C18        -1.1049  -14.6210   -0.2996 C.ar    1  NONAME1    -0.0522
     24 C19         0.0873  -13.9093   -0.4876 C.ar    1  NONAME1    -0.0345
     25 C20         2.1528  -10.5938    0.4961 C.ar    1  NONAME1    -0.0388
     26 C21         2.3296   -9.2185    0.3198 C.ar    1  NONAME1    -0.0528
     27 N2          4.4101   -4.3579   -0.2545 N.am    1  NONAME1    -0.1940
     28 O4          4.5929   -2.9575   -0.3030 O.3     1  NONAME1    -0.2949
     29 H1          1.8774   -6.4906    0.2497 H       1  NONAME1     0.0670
     30 H2          4.9152   -6.9557   -0.0464 H       1  NONAME1     0.0625
     31 H3          5.7278   -9.1559    0.1242 H       1  NONAME1     0.0624
     32 H4          5.4115  -11.5652    0.4045 H       1  NONAME1     0.0637
     33 H5          3.8328  -13.3096    1.1680 H       1  NONAME1     0.1737
     34 H6          2.2884  -16.4639   -0.0311 H       1  NONAME1     0.0637
     35 H7          0.2245  -17.6829    0.3416 H       1  NONAME1     0.0624
     36 H8         -1.5316  -18.7609   -0.1048 H       1  NONAME1     0.0624
     37 H9         -3.6239  -19.9836    0.0066 H       1  NONAME1     0.0618
     38 H10        -5.7867  -18.7853    0.2126 H       1  NONAME1     0.0618
     39 H11        -5.7988  -16.3087    0.3646 H       1  NONAME1     0.0618
     40 H12        -3.7245  -15.0513    0.3250 H       1  NONAME1     0.0624
     41 H13        -2.0285  -14.0616   -0.4205 H       1  NONAME1     0.0624
     42 H14         0.0462  -12.8521   -0.7379 H       1  NONAME1     0.0637
     43 H15         1.1489  -10.9961    0.5897 H       1  NONAME1     0.0637
     44 H16         1.4373   -8.6011    0.2785 H       1  NONAME1     0.0624
     45 H17         5.1990   -4.9282   -0.5252 H       1  NONAME1     0.1825
     46 H18         3.7007   -2.6210   -0.0634 H       1  NONAME1     0.2414
@<TRIPOS>BOND
     1     1     2    2
     2     2     3    1
     3     3     4    2
     4     4     5    1
     5     5     6   ar
     6     6     7   ar
     7     7     8   ar
     8     8     9    1
     9     9    10    1
    10    10    11    2
    11    10    12    2
    12    10    13    1
    13    13    14   ar
    14    14    15   ar
    15    15    16   ar
    16    16    17    1
    17    17    18   ar
    18    18    19   ar
    19    19    20   ar
    20    20    21   ar
    21    21    22   ar
    22    17    22   ar
    23    16    23   ar
    24    23    24   ar
    25    13    24   ar
    26     8    25   ar
    27    25    26   ar
    28     5    26   ar
    29     2    27   am
    30    27    28    1
    31     3    29    1
    32     4    30    1
    33     6    31    1
    34     7    32    1
    35     9    33    1
    36    14    34    1
    37    15    35    1
    38    18    36    1
    39    19    37    1
    40    20    38    1
    41    21    39    1
    42    22    40    1
    43    23    41    1
    44    24    42    1
    45    25    43    1
    46    26    44    1
    47    27    45    1
    48    28    46    1
