REMARK  5 active torsions:
REMARK  status: ('A' for Active; 'I' for Inactive)
REMARK    1  A    between atoms: N1_2  and  C2_3 
REMARK       I    between atoms: N1_2  and  C11_14 
REMARK    2  A    between atoms: C2_3  and  C3_4 
REMARK    3  A    between atoms: C11_14  and  C12_16 
REMARK    4  A    between atoms: C15_19  and  C16_20 
REMARK    5  A    between atoms: C16_20  and  C17_22 
ROOT
ATOM      1  C1  NON d   1       1.007  -5.293   1.114  0.00  0.00     0.153 C 
ATOM      2  N1  NON d   1       0.248  -4.745  -0.006  0.00  0.00    -0.348 N 
ATOM      3  C11 NON d   1      -0.905  -5.398  -0.500  0.00  0.00     0.260 C 
ATOM      4  O1  NON d   1      -1.787  -4.745  -1.062  0.00  0.00    -0.267 OA
ENDROOT
BRANCH   2   5
ATOM      5  C2  NON d   1       0.252  -3.296  -0.218  0.00  0.00     0.164 C 
BRANCH   5   6
ATOM      6  C3  NON d   1       1.544  -2.522  -0.090  0.00  0.00    -0.038 A 
ATOM      7  C4  NON d   1       1.460  -1.157   0.216  0.00  0.00     0.011 A 
ATOM      8  C5  NON d   1       2.609  -0.369   0.292  0.00  0.00     0.034 A 
ATOM      9  C6  NON d   1       3.864  -0.910   0.075  0.00  0.00     0.085 A 
ATOM     10  N2  NON d   1       4.949  -0.119   0.183  0.00  0.00    -0.257 NA
ATOM     11  C9  NON d   1       3.972  -2.284  -0.257  0.00  0.00     0.085 A 
ATOM     12  C7  NON d   1       6.144  -0.708  -0.033  0.00  0.00     0.136 A 
ATOM     13  C8  NON d   1       6.253  -2.046  -0.350  0.00  0.00     0.136 A 
ATOM     14  N3  NON d   1       5.176  -2.853  -0.471  0.00  0.00    -0.257 NA
ATOM     15  C10 NON d   1       2.813  -3.054  -0.359  0.00  0.00     0.043 A 
ENDBRANCH   5   6
ENDBRANCH   2   5
BRANCH   3  16
ATOM     16  C12 NON d   1      -1.028  -6.844  -0.342  0.00  0.00     0.073 A 
ATOM     17  C13 NON d   1      -0.087  -7.848  -0.454  0.00  0.00     0.026 A 
ATOM     18  C14 NON d   1      -0.657  -9.152  -0.298  0.00  0.00     0.024 A 
ATOM     19  C15 NON d   1      -2.023  -9.113  -0.080  0.00  0.00     0.061 A 
ATOM     20  S1  NON d   1      -2.585  -7.494  -0.038  0.00  0.00    -0.081 SA
BRANCH  19  21
ATOM     21  C16 NON d   1      -2.992 -10.200   0.093  0.00  0.00     0.272 C 
ATOM     22  O2  NON d   1      -4.169 -10.003   0.412  0.00  0.00    -0.282 OA
BRANCH  21  23
ATOM     23  C17 NON d   1      -2.458 -11.615  -0.116  0.00  0.00     0.456 C 
ATOM     24  F1  NON d   1      -1.581 -11.982   0.864  0.00  0.00    -0.163 F 
ATOM     25  F2  NON d   1      -3.432 -12.567  -0.130  0.00  0.00    -0.163 F 
ATOM     26  F3  NON d   1      -1.780 -11.755  -1.293  0.00  0.00    -0.163 F 
ENDBRANCH  21  23
ENDBRANCH  19  21
ENDBRANCH   3  16
TORSDOF 5
