
 OpenBabel05212416003D

 83 87  0  0  1  0  0  0  0  0999 V2000
    1.0012    3.9960   -0.4751 O   0  0  0  0  0  0  0  0  0  0  0  0
    1.8440    3.2600    0.0426 C   0  0  0  0  0  0  0  0  0  0  0  0
    1.3523    2.1242    0.6605 N   0  0  0  0  0  0  0  0  0  0  0  0
    0.1202    1.2507    0.3166 C   0  0  2  0  0  0  0  0  0  0  0  0
   -1.0931    1.8205    1.0747 C   0  0  0  0  0  0  0  0  0  0  0  0
   -2.4630    1.3017    0.6820 C   0  0  0  0  0  0  0  0  0  0  0  0
   -2.8261   -0.0300    0.9072 C   0  0  0  0  0  0  0  0  0  0  0  0
   -4.1113   -0.4829    0.6001 C   0  0  0  0  0  0  0  0  0  0  0  0
   -5.0655    0.4005    0.1031 C   0  0  0  0  0  0  0  0  0  0  0  0
   -4.7276    1.7348   -0.1038 C   0  0  0  0  0  0  0  0  0  0  0  0
   -3.4376    2.1785    0.1675 C   0  0  0  0  0  0  0  0  0  0  0  0
    0.4624   -0.3153    0.6660 C   0  0  0  0  0  0  0  0  0  0  0  0
    0.6182   -0.6611    1.8405 O   0  0  0  0  0  0  0  0  0  0  0  0
    0.8082   -1.1889   -0.3906 N   0  0  0  0  0  0  0  0  0  0  0  0
   -0.2930   -1.6300   -1.2337 C   0  0  0  0  0  0  0  0  0  0  0  0
   -0.2467   -3.1378   -1.0916 C   0  0  0  0  0  0  0  0  0  0  0  0
    1.2415   -3.4263   -1.2355 C   0  0  0  0  0  0  0  0  0  0  0  0
    1.9596   -2.2752   -0.4673 C   0  0  1  0  0  0  0  0  0  0  0  0
    3.6501   -2.2265   -1.1494 C   0  0  0  0  0  0  0  0  0  0  0  0
    3.9348   -3.1839   -1.9029 O   0  0  0  0  0  0  0  0  0  0  0  0
    4.8223   -1.4269   -0.9498 N   0  0  0  0  0  0  0  0  0  0  0  0
    5.6228   -0.0537   -0.2456 C   0  0  1  0  0  0  0  0  0  0  0  0
    7.0743   -0.4693   -0.0566 C   0  0  0  0  0  0  0  0  0  0  0  0
    7.2783   -1.2265    1.2757 C   0  0  0  0  0  0  0  0  0  0  0  0
    6.1075   -2.0734    1.8245 C   0  0  0  0  0  0  0  0  0  0  0  0
    4.8962   -1.2919    2.4384 C   0  0  0  0  0  0  0  0  0  0  0  0
    3.6036   -1.2720    1.5501 C   0  0  0  0  0  0  0  0  0  0  0  0
    3.1370    0.0504    0.7104 C   0  0  0  0  0  0  0  0  0  0  0  0
    3.1645    1.0166    1.5005 O   0  0  0  0  0  0  0  0  0  0  0  0
    3.0651    0.3744   -1.0125 C   0  0  2  0  0  0  0  0  0  0  0  0
    2.3319    1.3350   -1.9467 C   0  0  0  0  0  0  0  0  0  0  0  0
    2.0394   -0.0428   -1.9172 O   0  0  0  0  0  0  0  0  0  0  0  0
    5.4067    1.6052   -0.7098 C   0  0  0  0  0  0  0  0  0  0  0  0
    5.7651    1.9949   -1.8220 O   0  0  0  0  0  0  0  0  0  0  0  0
    4.5619    2.3784    0.1429 N   0  0  0  0  0  0  0  0  0  0  0  0
    3.5294    3.5078   -0.2079 C   0  0  2  0  0  0  0  0  0  0  0  0
    4.0962    4.8316    0.3896 C   0  0  0  0  0  0  0  0  0  0  0  0
    3.6329    6.2511    0.0847 C   0  0  0  0  0  0  0  0  0  0  0  0
    2.3935    6.6175   -0.4412 C   0  0  0  0  0  0  0  0  0  0  0  0
    1.9793    7.9566   -0.5003 C   0  0  0  0  0  0  0  0  0  0  0  0
    2.8281    8.9738   -0.0899 C   0  0  0  0  0  0  0  0  0  0  0  0
    4.1006    8.6498    0.3629 C   0  0  0  0  0  0  0  0  0  0  0  0
    4.4920    7.3077    0.4574 C   0  0  0  0  0  0  0  0  0  0  0  0
    1.8985    1.7866    1.4487 H   0  0  0  0  0  0  0  0  0  0  0  0
   -0.0830    1.3283   -0.7544 H   0  0  0  0  0  0  0  0  0  0  0  0
   -0.9666    1.6879    2.1550 H   0  0  0  0  0  0  0  0  0  0  0  0
   -1.0962    2.9085    0.9142 H   0  0  0  0  0  0  0  0  0  0  0  0
   -2.1226   -0.7328    1.3454 H   0  0  0  0  0  0  0  0  0  0  0  0
   -4.3714   -1.5236    0.7727 H   0  0  0  0  0  0  0  0  0  0  0  0
   -6.0749    0.0533   -0.1022 H   0  0  0  0  0  0  0  0  0  0  0  0
   -5.4825    2.4327   -0.4659 H   0  0  0  0  0  0  0  0  0  0  0  0
   -3.1986    3.2326    0.0130 H   0  0  0  0  0  0  0  0  0  0  0  0
   -0.0827   -1.3409   -2.2698 H   0  0  0  0  0  0  0  0  0  0  0  0
   -1.2525   -1.2074   -0.9393 H   0  0  0  0  0  0  0  0  0  0  0  0
   -0.5923   -3.4363   -0.0934 H   0  0  0  0  0  0  0  0  0  0  0  0
   -0.8502   -3.6605   -1.8371 H   0  0  0  0  0  0  0  0  0  0  0  0
    1.5126   -3.4260   -2.2960 H   0  0  0  0  0  0  0  0  0  0  0  0
    1.5071   -4.4051   -0.8192 H   0  0  0  0  0  0  0  0  0  0  0  0
    1.9982   -2.6767    0.5467 H   0  0  0  0  0  0  0  0  0  0  0  0
    5.4803   -1.8219   -1.6173 H   0  0  0  0  0  0  0  0  0  0  0  0
    5.2797    0.0493    0.7601 H   0  0  0  0  0  0  0  0  0  0  0  0
    7.7340    0.4062   -0.0608 H   0  0  0  0  0  0  0  0  0  0  0  0
    7.4009   -1.1018   -0.8901 H   0  0  0  0  0  0  0  0  0  0  0  0
    7.5672   -0.5037    2.0482 H   0  0  0  0  0  0  0  0  0  0  0  0
    8.1480   -1.8850    1.1455 H   0  0  0  0  0  0  0  0  0  0  0  0
    6.5332   -2.6795    2.6368 H   0  0  0  0  0  0  0  0  0  0  0  0
    5.7837   -2.8047    1.0750 H   0  0  0  0  0  0  0  0  0  0  0  0
    5.1880   -0.2956    2.7863 H   0  0  0  0  0  0  0  0  0  0  0  0
    4.6257   -1.8522    3.3452 H   0  0  0  0  0  0  0  0  0  0  0  0
    2.7887   -1.4103    2.2710 H   0  0  0  0  0  0  0  0  0  0  0  0
    3.6771   -2.2060    1.0289 H   0  0  0  0  0  0  0  0  0  0  0  0
    3.9985    0.2709   -1.5122 H   0  0  0  0  0  0  0  0  0  0  0  0
    2.9031    1.7088   -2.7989 H   0  0  0  0  0  0  0  0  0  0  0  0
    1.4733    1.9581   -1.8164 H   0  0  0  0  0  0  0  0  0  0  0  0
    4.3749    2.0018    1.0695 H   0  0  0  0  0  0  0  0  0  0  0  0
    3.5980    3.5978   -1.2990 H   0  0  0  0  0  0  0  0  0  0  0  0
    4.0801    4.7315    1.4831 H   0  0  0  0  0  0  0  0  0  0  0  0
    5.1618    4.8288    0.1073 H   0  0  0  0  0  0  0  0  0  0  0  0
    1.6885    5.8989   -0.8200 H   0  0  0  0  0  0  0  0  0  0  0  0
    0.9804    8.1912   -0.8620 H   0  0  0  0  0  0  0  0  0  0  0  0
    2.5007   10.0090   -0.1293 H   0  0  0  0  0  0  0  0  0  0  0  0
    4.7839    9.4418    0.6593 H   0  0  0  0  0  0  0  0  0  0  0  0
    5.4874    7.0921    0.8410 H   0  0  0  0  0  0  0  0  0  0  0  0
  1  2  2  0  0  0  0
  2  3  1  0  0  0  0
  3 44  1  0  0  0  0
  4  3  1  0  0  0  0
  4  5  1  0  0  0  0
  4 12  1  0  0  0  0
  4 45  1  6  0  0  0
  5  6  1  0  0  0  0
  5 46  1  0  0  0  0
  5 47  1  0  0  0  0
  6  7  2  0  0  0  0
  6 11  1  0  0  0  0
  7  8  1  0  0  0  0
  7 48  1  0  0  0  0
  8  9  2  0  0  0  0
  8 49  1  0  0  0  0
  9 10  1  0  0  0  0
  9 50  1  0  0  0  0
 10 11  2  0  0  0  0
 10 51  1  0  0  0  0
 11 52  1  0  0  0  0
 12 13  2  0  0  0  0
 12 14  1  0  0  0  0
 14 15  1  0  0  0  0
 15 16  1  0  0  0  0
 15 53  1  0  0  0  0
 15 54  1  0  0  0  0
 16 17  1  0  0  0  0
 16 55  1  0  0  0  0
 16 56  1  0  0  0  0
 17 57  1  0  0  0  0
 17 58  1  0  0  0  0
 18 17  1  0  0  0  0
 18 14  1  0  0  0  0
 18 19  1  0  0  0  0
 18 59  1  1  0  0  0
 19 20  2  0  0  0  0
 19 21  1  0  0  0  0
 21 60  1  0  0  0  0
 22 21  1  0  0  0  0
 22 23  1  0  0  0  0
 22 33  1  0  0  0  0
 22 61  1  1  0  0  0
 23 24  1  0  0  0  0
 23 62  1  0  0  0  0
 23 63  1  0  0  0  0
 24 25  1  0  0  0  0
 24 64  1  0  0  0  0
 24 65  1  0  0  0  0
 25 26  1  0  0  0  0
 25 66  1  0  0  0  0
 25 67  1  0  0  0  0
 26 27  1  0  0  0  0
 26 68  1  0  0  0  0
 26 69  1  0  0  0  0
 27 28  1  0  0  0  0
 27 70  1  0  0  0  0
 27 71  1  0  0  0  0
 28 29  2  0  0  0  0
 30 28  1  0  0  0  0
 30 31  1  0  0  0  0
 30 32  1  0  0  0  0
 30 72  1  6  0  0  0
 31 32  1  0  0  0  0
 31 73  1  0  0  0  0
 31 74  1  0  0  0  0
 33 34  2  0  0  0  0
 33 35  1  0  0  0  0
 35 75  1  0  0  0  0
 36 35  1  0  0  0  0
 36  2  1  0  0  0  0
 36 37  1  0  0  0  0
 36 76  1  6  0  0  0
 37 38  1  0  0  0  0
 37 77  1  0  0  0  0
 37 78  1  0  0  0  0
 38 39  2  0  0  0  0
 38 43  1  0  0  0  0
 39 40  1  0  0  0  0
 39 79  1  0  0  0  0
 40 41  2  0  0  0  0
 40 80  1  0  0  0  0
 41 42  1  0  0  0  0
 41 81  1  0  0  0  0
 42 43  2  0  0  0  0
 42 82  1  0  0  0  0
 43 83  1  0  0  0  0
M  END
$$$$
