@<TRIPOS>MOLECULE
*****
 73 74 0 0 0
SMALL
USER_CHARGES

@<TRIPOS>ATOM
      1 C1         -0.8748   -1.0122    0.8248 C.3     1  NONAME1    -0.0650
      2 C2         -0.7508   -1.0829   -0.6948 C.3     1  NONAME1    -0.0516
      3 C3          0.0482    0.0619   -1.3962 C.3     1  NONAME1    -0.0232
      4 C4         -0.7133    1.3782   -1.2022 C.3     1  NONAME1    -0.0607
      5 C5          1.5719    0.0437   -0.9863 C.3     1  NONAME1     0.0521
      6 N1          1.9098    1.0642    0.0402 N.am    1  NONAME1    -0.3082
      7 C6          2.1292    0.7096    1.3702 C.2     1  NONAME1     0.2345
      8 O1          1.5477    1.3348    2.2574 O.2     1  NONAME1    -0.2737
      9 C7          3.1636   -0.4052    1.6903 C.3     1  NONAME1     0.1091
     10 C8          4.1979    0.1940    2.6766 C.3     1  NONAME1     0.0309
     11 S1          5.8701   -0.6061    2.5810 S.3     1  NONAME1    -0.0908
     12 S2          6.7194    0.1900    0.8624 S.3     1  NONAME1    -0.0928
     13 C9          8.4437   -0.4422    0.8745 C.3     1  NONAME1     0.0074
     14 C10         8.8969   -1.2203   -0.3755 C.3     1  NONAME1    -0.0248
     15 C11         8.7106   -2.7101   -0.5009 C.2     1  NONAME1    -0.0837
     16 C12         7.6330   -3.5121   -0.5399 C.2     1  NONAME1    -0.0474
     17 C13         6.1563   -3.2451   -0.3476 C.3     1  NONAME1     0.1295
     18 C14         5.2936   -4.5251   -0.4488 C.3     1  NONAME1     0.0647
     19 C15         4.4968   -4.6910    0.8376 C.2     1  NONAME1     0.2175
     20 O2          4.9290   -4.4839    1.9658 O.2     1  NONAME1    -0.2757
     21 N2          3.1753   -4.9786    0.6127 N.am    1  NONAME1    -0.3039
     22 C16         2.1659   -4.2170    1.3381 C.3     1  NONAME1     0.1002
     23 C17         0.7430   -4.6534    0.9026 C.3     1  NONAME1    -0.0146
     24 C18         0.4116   -4.8575   -0.5962 C.3     1  NONAME1     0.0252
     25 S3          1.2731   -6.2507   -1.4042 S.O     1  NONAME1     0.0191
     26 C19        -0.0543   -6.8573   -2.4721 C.3     1  NONAME1     0.0117
     27 O3          1.5546   -7.2888   -0.3574 O.2     1  NONAME1    -0.2575
     28 C20         2.4807   -2.7441    0.9497 C.2     1  NONAME1     0.2340
     29 O4          2.6444   -2.5110   -0.2493 O.2     1  NONAME1    -0.2738
     30 N3          2.6566   -1.7806    1.9484 N.am    1  NONAME1    -0.3017
     31 O5          5.6930   -2.0308   -1.0218 O.3     1  NONAME1    -0.4566
     32 C21         4.7518   -1.8727   -2.0077 C.2     1  NONAME1     0.3102
     33 O6          4.4822   -2.6838   -2.8747 O.2     1  NONAME1    -0.2507
     34 C22         4.0686   -0.5143   -1.7746 C.3     1  NONAME1     0.0726
     35 C23         2.6193   -0.1511   -2.1950 C.3     1  NONAME1     0.0838
     36 O7          2.6174    1.0646   -2.9637 O.3     1  NONAME1    -0.3894
     37 H1         -1.3135   -0.0711    1.1643 H       1  NONAME1     0.0230
     38 H2         -1.5187   -1.8231    1.1841 H       1  NONAME1     0.0230
     39 H3          0.0883   -1.1383    1.3194 H       1  NONAME1     0.0230
     40 H4         -1.7641   -1.1211   -1.1129 H       1  NONAME1     0.0266
     41 H5         -0.2870   -2.0376   -0.9560 H       1  NONAME1     0.0266
     42 H6          0.0006   -0.1734   -2.4679 H       1  NONAME1     0.0317
     43 H7         -1.7520    1.2647   -1.5400 H       1  NONAME1     0.0233
     44 H8         -0.7602    1.6854   -0.1520 H       1  NONAME1     0.0233
     45 H9         -0.2649    2.1881   -1.7827 H       1  NONAME1     0.0233
     46 H10         1.6118   -0.8622   -0.4303 H       1  NONAME1     0.0526
     47 H11         1.3803    1.9257   -0.0447 H       1  NONAME1     0.1491
     48 H12         3.7658   -0.4971    0.8307 H       1  NONAME1     0.0603
     49 H13         4.3589    1.2622    2.4611 H       1  NONAME1     0.0407
     50 H14         3.8425    0.1158    3.7059 H       1  NONAME1     0.0407
     51 H15         9.0606    0.4665    0.9102 H       1  NONAME1     0.0387
     52 H16         8.6594   -0.9966    1.7918 H       1  NONAME1     0.0387
     53 H17         8.5904   -0.7291   -1.3051 H       1  NONAME1     0.0315
     54 H18         9.9957   -1.1097   -0.3687 H       1  NONAME1     0.0315
     55 H19         9.6627   -3.2375   -0.6180 H       1  NONAME1     0.0570
     56 H20         7.8747   -4.5742   -0.6240 H       1  NONAME1     0.0605
     57 H21         6.1220   -2.9411    0.7041 H       1  NONAME1     0.0784
     58 H22         5.8971   -5.4357   -0.5341 H       1  NONAME1     0.0398
     59 H23         4.6179   -4.5004   -1.3066 H       1  NONAME1     0.0398
     60 H24         2.9892   -5.9702    0.4685 H       1  NONAME1     0.1495
     61 H25         2.3043   -4.3559    2.4138 H       1  NONAME1     0.0595
     62 H26         0.0321   -3.9118    1.2876 H       1  NONAME1     0.0296
     63 H27         0.5090   -5.5940    1.4201 H       1  NONAME1     0.0296
     64 H28         0.6347   -3.9720   -1.1939 H       1  NONAME1     0.0401
     65 H29        -0.6652   -5.0456   -0.6707 H       1  NONAME1     0.0401
     66 H30        -0.4021   -7.8255   -2.1006 H       1  NONAME1     0.0365
     67 H31         0.3536   -7.0000   -3.4773 H       1  NONAME1     0.0365
     68 H32        -0.8945   -6.1640   -2.5304 H       1  NONAME1     0.0365
     69 H33         2.7129   -2.1214    2.8956 H       1  NONAME1     0.1495
     70 H34         4.7923    0.2912   -1.9086 H       1  NONAME1     0.0404
     71 H35         3.9556   -0.6209   -0.7348 H       1  NONAME1     0.0404
     72 H36         2.2349   -0.9393   -2.8505 H       1  NONAME1     0.0617
     73 H37         3.5196    1.4294   -2.9888 H       1  NONAME1     0.2099
@<TRIPOS>BOND
     1     1     2    1
     2     3     2    1
     3     3     4    1
     4     5     3    1
     5     5     6    1
     6     6     7   am
     7     7     8    2
     8     9     7    1
     9     9    10    1
    10    10    11    1
    11    11    12    1
    12    12    13    1
    13    13    14    1
    14    14    15    1
    15    15    16    2
    16    17    16    1
    17    17    18    1
    18    18    19    1
    19    19    20    2
    20    19    21   am
    21    22    21    1
    22    22    23    1
    23    23    24    1
    24    24    25    1
    25    25    26    1
    26    25    27    2
    27    22    28    1
    28    28    29    2
    29    28    30   am
    30     9    30    1
    31    17    31    1
    32    31    32    1
    33    32    33    2
    34    32    34    1
    35    35    34    1
    36     5    35    1
    37    35    36    1
    38     1    37    1
    39     1    38    1
    40     1    39    1
    41     2    40    1
    42     2    41    1
    43     3    42    1
    44     4    43    1
    45     4    44    1
    46     4    45    1
    47     5    46    1
    48     6    47    1
    49     9    48    1
    50    10    49    1
    51    10    50    1
    52    13    51    1
    53    13    52    1
    54    14    53    1
    55    14    54    1
    56    15    55    1
    57    16    56    1
    58    17    57    1
    59    18    58    1
    60    18    59    1
    61    21    60    1
    62    22    61    1
    63    23    62    1
    64    23    63    1
    65    24    64    1
    66    24    65    1
    67    26    66    1
    68    26    67    1
    69    26    68    1
    70    30    69    1
    71    34    70    1
    72    34    71    1
    73    35    72    1
    74    36    73    1
