@<TRIPOS>MOLECULE
*****
 32 34 0 0 0
SMALL
USER_CHARGES

@<TRIPOS>ATOM
      1 O1         -3.8676   -0.1935    0.4860 O.3     1  NONAME1    -0.5041
      2 C1         -2.5594    0.1806    0.2258 C.ar    1  NONAME1     0.1476
      3 C2         -2.2744    1.3661   -0.3296 C.ar    1  NONAME1    -0.0162
      4 C3         -0.9221    1.7398   -0.6174 C.ar    1  NONAME1    -0.0420
      5 C4          0.0706    0.8677   -0.4233 C.ar    1  NONAME1     0.0062
      6 N1         -0.1315   -0.3941    0.1420 N.ar    1  NONAME1    -0.3326
      7 C5          1.1018   -1.1148    0.5372 C.3     1  NONAME1     0.0692
      8 C6          1.3418   -2.4846   -0.0166 C.ar    1  NONAME1     0.1028
      9 C7          2.5181   -3.1977    0.0981 C.ar    1  NONAME1     0.0562
     10 N2          2.2157   -4.4741   -0.3142 N.ar    1  NONAME1    -0.2198
     11 C8          3.0401   -5.6264   -0.2380 C.ar    1  NONAME1     0.0670
     12 C9          4.4217   -5.4968   -0.0072 C.ar    1  NONAME1    -0.0362
     13 C10         5.2236   -6.6369    0.0992 C.ar    1  NONAME1    -0.0598
     14 C11         4.6578   -7.9049   -0.0062 C.ar    1  NONAME1    -0.0616
     15 C12         3.2888   -8.0401   -0.2353 C.ar    1  NONAME1    -0.0598
     16 C13         2.4800   -6.9054   -0.3668 C.ar    1  NONAME1    -0.0362
     17 N3          0.9411   -4.5002   -0.7681 N.ar    1  NONAME1    -0.0605
     18 N4          0.4128   -3.2865   -0.6184 N.ar    1  NONAME1    -0.1323
     19 C14        -1.4189   -0.7599    0.6290 C.ar    1  NONAME1     0.1292
     20 S1         -1.7168   -2.0800    1.6519 S.2     1  NONAME1    -0.0288
     21 H1         -4.4643    0.4952    0.1541 H       1  NONAME1     0.2923
     22 H2         -3.0507    2.0777   -0.5891 H       1  NONAME1     0.0655
     23 H3         -0.7283    2.7365   -1.0013 H       1  NONAME1     0.0633
     24 H4          1.0903    1.1588   -0.6608 H       1  NONAME1     0.0809
     25 H5          1.1223   -1.1616    1.6323 H       1  NONAME1     0.0558
     26 H6          1.9728   -0.5116    0.2460 H       1  NONAME1     0.0558
     27 H7          3.4664   -2.9345    0.5352 H       1  NONAME1     0.0850
     28 H8          4.9019   -4.5301    0.0735 H       1  NONAME1     0.0639
     29 H9          6.2923   -6.5325    0.2697 H       1  NONAME1     0.0618
     30 H10         5.2843   -8.7881    0.0922 H       1  NONAME1     0.0618
     31 H11         2.8488   -9.0324   -0.3024 H       1  NONAME1     0.0618
     32 H12         1.4115   -7.0391   -0.5268 H       1  NONAME1     0.0639
@<TRIPOS>BOND
     1     1     2    1
     2     2     3   ar
     3     3     4   ar
     4     4     5   ar
     5     5     6   ar
     6     6     7    1
     7     7     8    1
     8     8     9   ar
     9     9    10   ar
    10    10    11    1
    11    11    12   ar
    12    12    13   ar
    13    13    14   ar
    14    14    15   ar
    15    15    16   ar
    16    11    16   ar
    17    10    17   ar
    18    17    18   ar
    19     8    18   ar
    20     6    19   ar
    21     2    19   ar
    22    19    20    2
    23     1    21    1
    24     3    22    1
    25     4    23    1
    26     5    24    1
    27     7    25    1
    28     7    26    1
    29     9    27    1
    30    12    28    1
    31    13    29    1
    32    14    30    1
    33    15    31    1
    34    16    32    1
