REMARK  7 active torsions:
REMARK  status: ('A' for Active; 'I' for Inactive)
REMARK    1  A    between atoms: N1_1  and  C1_2 
REMARK    2  A    between atoms: C6_7  and  N2_8 
REMARK       I    between atoms: N2_8  and  C7_9 
REMARK    3  A    between atoms: C7_9  and  C8_11 
REMARK    4  A    between atoms: C11_14  and  C12_15 
REMARK    5  A    between atoms: N3_16  and  C12_15 
REMARK    6  A    between atoms: N3_16  and  C13_17 
REMARK    7  A    between atoms: C16_21  and  C17_22 
ROOT
ATOM      1  C8  NON d   1       5.822 -12.328   0.051  0.00  0.00     0.032 A 
ATOM      2  C9  NON d   1       4.438 -12.524  -0.056  0.00  0.00     0.017 A 
ATOM      3  C10 NON d   1       3.561 -11.440  -0.114  0.00  0.00     0.009 A 
ATOM      4  C11 NON d   1       4.031 -10.118  -0.056  0.00  0.00    -0.045 A 
ATOM      5  C23 NON d   1       5.414  -9.919   0.045  0.00  0.00     0.009 A 
ATOM      6  C24 NON d   1       6.303 -11.012   0.101  0.00  0.00     0.017 A 
ENDROOT
BRANCH   4   7
ATOM      7  C12 NON d   1       2.988  -9.016  -0.140  0.00  0.00     0.134 C 
BRANCH   7   8
ATOM      8  N3  NON d   1       3.470  -7.691   0.212  0.00  0.00    -0.257 NA
ATOM      9  H12 NON d   1       4.223  -7.331  -0.359  0.00  0.00     0.131 HD
BRANCH   8  10
ATOM     10  C13 NON d   1       2.463  -6.723   0.186  0.00  0.00     0.202 A 
ATOM     11  N4  NON d   1       1.179  -7.091   0.285  0.00  0.00    -0.231 NA
ATOM     12  C14 NON d   1       0.252  -6.124   0.246  0.00  0.00     0.122 A 
ATOM     13  C15 NON d   1       0.562  -4.796   0.128  0.00  0.00     0.053 A 
ATOM     14  C16 NON d   1       1.906  -4.493   0.042  0.00  0.00     0.090 A 
ATOM     15  N8  NON d   1       2.858  -5.448   0.045  0.00  0.00    -0.216 NA
BRANCH  14  16
ATOM     16  C17 NON d   1       2.356  -3.099  -0.050  0.00  0.00     0.103 A 
ATOM     17  C18 NON d   1       1.590  -1.944  -0.138  0.00  0.00     0.169 A 
ATOM     18  N5  NON d   1       2.346  -0.813  -0.189  0.00  0.00    -0.072 NA
ATOM     19  C19 NON d   1       3.594  -1.217  -0.129  0.00  0.00     0.733 A 
ATOM     20  N6  NON d   1       4.719  -0.444  -0.140  0.00  0.00    -0.074 NA
ATOM     21  N7  NON d   1       3.662  -2.616  -0.041  0.00  0.00    -0.151 N 
ATOM     22  C20 NON d   1       5.848  -1.074  -0.063  0.00  0.00     0.138 A 
ATOM     23  C21 NON d   1       6.030  -2.544   0.033  0.00  0.00     0.038 A 
ATOM     24  C22 NON d   1       4.898  -3.259   0.041  0.00  0.00     0.117 A 
ENDBRANCH  14  16
ENDBRANCH   8  10
ENDBRANCH   7   8
ENDBRANCH   4   7
BRANCH   1  25
ATOM     25  C7  NON d   1       6.675 -13.561   0.130  0.00  0.00     0.256 C 
ATOM     26  N2  NON d   1       8.039 -13.405  -0.016  0.00  0.00    -0.321 N 
ATOM     27  H7  NON d   1       8.436 -12.487  -0.176  0.00  0.00     0.169 HD
ATOM     28  O1  NON d   1       6.107 -14.636   0.316  0.00  0.00    -0.267 OA
BRANCH  26  29
ATOM     29  C6  NON d   1       9.022 -14.426  -0.034  0.00  0.00     0.056 A 
ATOM     30  C5  NON d   1       8.739 -15.793   0.022  0.00  0.00     0.031 A 
ATOM     31  C4  NON d   1       9.774 -16.732  -0.012  0.00  0.00     0.002 A 
ATOM     32  C3  NON d   1      11.099 -16.312  -0.090  0.00  0.00     0.002 A 
ATOM     33  C2  NON d   1      11.396 -14.949  -0.136  0.00  0.00     0.025 A 
ATOM     34  C1  NON d   1      10.364 -14.002  -0.143  0.00  0.00     0.033 A 
BRANCH  34  35
ATOM     35  N1  NON d   1      10.675 -12.619  -0.018  0.00  0.00    -0.301 NA
ATOM     36  H1  NON d   1      11.624 -12.433  -0.338  0.00  0.00     0.124 HD
ATOM     37  H2  NON d   1      10.614 -12.368   0.970  0.00  0.00     0.124 HD
ENDBRANCH  34  35
ENDBRANCH  26  29
ENDBRANCH   1  25
TORSDOF 7
