@<TRIPOS>MOLECULE
*****
 55 59 0 0 0
SMALL
USER_CHARGES

@<TRIPOS>ATOM
      1 N1          2.9664  -17.4752    0.0641 N.pl3   1  NONAME1    -0.3565
      2 C1          1.5553  -17.3557    0.0309 C.ar    1  NONAME1     0.0461
      3 C2          0.7689  -18.5102    0.1718 C.ar    1  NONAME1    -0.0392
      4 C3         -0.6235  -18.4269    0.1501 C.ar    1  NONAME1    -0.0599
      5 C4         -1.2397  -17.1873    0.0246 C.ar    1  NONAME1    -0.0599
      6 C5         -0.4677  -16.0250   -0.0513 C.ar    1  NONAME1    -0.0387
      7 C6          0.9301  -16.0888   -0.0213 C.ar    1  NONAME1     0.0545
      8 N2          1.7650  -14.9393   -0.0163 N.am    1  NONAME1    -0.2804
      9 C7          1.3648  -13.6236   -0.1249 C.2     1  NONAME1     0.2411
     10 O1          0.2119  -13.2308   -0.2702 O.2     1  NONAME1    -0.2705
     11 C8          2.4981  -12.6449   -0.0846 C.2     1  NONAME1     0.0010
     12 C9          2.1905  -11.3376   -0.1539 C.2     1  NONAME1    -0.0497
     13 C10         3.0845  -10.1641   -0.1873 C.ar    1  NONAME1    -0.0248
     14 C11         2.4816   -8.8992   -0.1699 C.ar    1  NONAME1    -0.0527
     15 C12         3.2434   -7.7260   -0.2258 C.ar    1  NONAME1    -0.0366
     16 C13         4.6414   -7.7613   -0.2906 C.ar    1  NONAME1     0.0743
     17 N3          5.3876   -6.6268   -0.3507 N.pl3   1  NONAME1    -0.0978
     18 S1          5.4728   -5.6529    0.9280 S.O2    1  NONAME1     0.0923
     19 O2          6.7798   -5.6117    1.5776 O.2     1  NONAME1    -0.1483
     20 O3          4.3612   -5.7197    1.8803 O.2     1  NONAME1    -0.1483
     21 C14         5.2630   -3.9535    0.2799 C.ar    1  NONAME1     0.1217
     22 C15         3.9177   -3.5413    0.1209 C.ar    1  NONAME1    -0.0342
     23 C16         3.5857   -2.2316   -0.2142 C.ar    1  NONAME1    -0.0564
     24 C17         4.5835   -1.2776   -0.3815 C.ar    1  NONAME1    -0.0186
     25 C18         5.9041   -1.7072   -0.2364 C.ar    1  NONAME1     0.1381
     26 O4          6.9720   -0.8766   -0.3555 O.2     1  NONAME1    -0.4547
     27 C19         8.0817   -1.6346   -0.1829 C.ar    1  NONAME1     0.1363
     28 C20         9.3860   -1.1400   -0.2304 C.ar    1  NONAME1    -0.0187
     29 C21        10.4168   -2.0676   -0.0761 C.ar    1  NONAME1    -0.0582
     30 C22        10.1333   -3.4208    0.1032 C.ar    1  NONAME1    -0.0610
     31 C23         8.8075   -3.8819    0.1566 C.ar    1  NONAME1    -0.0503
     32 C24         7.7407   -2.9677    0.0335 C.ar    1  NONAME1     0.0298
     33 C25         6.3027   -3.0159    0.0577 C.ar    1  NONAME1     0.0545
     34 C26         5.2391   -9.0312   -0.3268 C.ar    1  NONAME1    -0.0366
     35 C27         4.4777  -10.2159   -0.2692 C.ar    1  NONAME1    -0.0527
     36 H1          3.2688  -18.4405   -0.0452 H       1  NONAME1     0.1424
     37 H2          3.3943  -16.8934   -0.6510 H       1  NONAME1     0.1424
     38 H3          1.2318  -19.4860    0.2748 H       1  NONAME1     0.0636
     39 H4         -1.2265  -19.3273    0.2320 H       1  NONAME1     0.0618
     40 H5         -2.3244  -17.1141    0.0067 H       1  NONAME1     0.0618
     41 H6         -0.9972  -15.0801   -0.1086 H       1  NONAME1     0.0637
     42 H7          2.7416  -15.1375    0.1502 H       1  NONAME1     0.1552
     43 H8          3.5128  -13.0085   -0.0269 H       1  NONAME1     0.0670
     44 H9          1.1344  -11.0678   -0.2030 H       1  NONAME1     0.0625
     45 H10         1.4013   -8.7984   -0.1039 H       1  NONAME1     0.0624
     46 H11         2.7274   -6.7683   -0.1962 H       1  NONAME1     0.0637
     47 H12         3.1197   -4.2610    0.2967 H       1  NONAME1     0.0637
     48 H13         2.5412   -1.9504   -0.3124 H       1  NONAME1     0.0619
     49 H14         4.3554   -0.2441   -0.6092 H       1  NONAME1     0.0654
     50 H15         9.5780   -0.0853   -0.3815 H       1  NONAME1     0.0654
     51 H16        11.4501   -1.7318   -0.1022 H       1  NONAME1     0.0619
     52 H17        10.9440   -4.1370    0.2104 H       1  NONAME1     0.0618
     53 H18         8.6149   -4.9420    0.2931 H       1  NONAME1     0.0625
     54 H19         6.3244   -9.1043   -0.3801 H       1  NONAME1     0.0637
     55 H20         5.0054  -11.1626   -0.2884 H       1  NONAME1     0.0624
@<TRIPOS>BOND
     1     1     2    1
     2     2     3   ar
     3     3     4   ar
     4     4     5   ar
     5     5     6   ar
     6     6     7   ar
     7     2     7   ar
     8     7     8    1
     9     8     9   am
    10     9    10    2
    11     9    11    1
    12    11    12    2
    13    12    13    1
    14    13    14   ar
    15    14    15   ar
    16    15    16   ar
    17    16    17    1
    18    17    18    1
    19    18    19    2
    20    18    20    2
    21    18    21    1
    22    21    22   ar
    23    22    23   ar
    24    23    24   ar
    25    24    25   ar
    26    25    26   ar
    27    26    27   ar
    28    27    28   ar
    29    28    29   ar
    30    29    30   ar
    31    30    31   ar
    32    31    32   ar
    33    27    32   ar
    34    32    33   ar
    35    21    33   ar
    36    25    33   ar
    37    16    34   ar
    38    34    35   ar
    39    13    35   ar
    40     1    36    1
    41     1    37    1
    42     3    38    1
    43     4    39    1
    44     5    40    1
    45     6    41    1
    46     8    42    1
    47    11    43    1
    48    12    44    1
    49    14    45    1
    50    15    46    1
    51    22    47    1
    52    23    48    1
    53    24    49    1
    54    28    50    1
    55    29    51    1
    56    30    52    1
    57    31    53    1
    58    34    54    1
    59    35    55    1
