REMARK  6 active torsions:
REMARK  status: ('A' for Active; 'I' for Inactive)
REMARK    1  A    between atoms: O1_2  and  C2_3 
REMARK    2  A    between atoms: C5_6  and  N1_7 
REMARK    3  A    between atoms: C6_8  and  C7_9 
REMARK    4  A    between atoms: C11_13  and  C12_14 
REMARK    5  A    between atoms: C13_15  and  C14_16 
REMARK       I    between atoms: C14_16  and  N2_18 
REMARK    6  A    between atoms: N2_18  and  O3_19 
ROOT
ATOM      1  N1  NON d   1       1.923  -2.663  -0.007  0.00  0.00    -0.293 N 
ATOM      2  C6  NON d   1       1.093  -1.538  -0.126  0.00  0.00     0.146 A 
ATOM      3  N3  NON d   1       1.828  -0.437  -0.225  0.00  0.00    -0.228 NA
ATOM      4  C16 NON d   1       3.128  -0.814  -0.143  0.00  0.00     0.086 A 
ATOM      5  C17 NON d   1       4.275  -0.006  -0.175  0.00  0.00     0.034 A 
ATOM      6  C18 NON d   1       5.527  -0.602  -0.009  0.00  0.00     0.002 A 
ATOM      7  C19 NON d   1       5.629  -1.975   0.201  0.00  0.00     0.002 A 
ATOM      8  C20 NON d   1       4.493  -2.791   0.229  0.00  0.00     0.032 A 
ATOM      9  C21 NON d   1       3.240  -2.186   0.018  0.00  0.00     0.070 A 
ENDROOT
BRANCH   2  10
ATOM     10  C7  NON d   1      -0.378  -1.435  -0.217  0.00  0.00     0.011 A 
ATOM     11  C8  NON d   1      -1.223  -2.398  -0.774  0.00  0.00     0.015 A 
ATOM     12  C9  NON d   1      -2.603  -2.174  -0.849  0.00  0.00     0.002 A 
ATOM     13  C10 NON d   1      -3.148  -0.952  -0.446  0.00  0.00     0.011 A 
ATOM     14  C11 NON d   1      -2.318   0.062   0.031  0.00  0.00    -0.035 A 
ATOM     15  C15 NON d   1      -0.954  -0.212   0.186  0.00  0.00     0.026 A 
BRANCH  14  16
ATOM     16  C12 NON d   1      -2.878   1.386   0.338  0.00  0.00     0.017 C 
ATOM     17  C13 NON d   1      -2.216   2.524   0.069  0.00  0.00     0.077 C 
BRANCH  17  18
ATOM     18  C14 NON d   1      -2.838   3.841   0.331  0.00  0.00     0.264 C 
ATOM     19  O2  NON d   1      -3.957   3.983   0.811  0.00  0.00    -0.266 OA
ATOM     20  N2  NON d   1      -2.049   4.896  -0.044  0.00  0.00    -0.234 N 
ATOM     21  H11 NON d   1      -1.162   4.826  -0.529  0.00  0.00     0.197 HD
BRANCH  20  22
ATOM     22  O3  NON d   1      -2.616   6.184   0.075  0.00  0.00    -0.287 OA
ATOM     23  H12 NON d   1      -3.509   5.984   0.432  0.00  0.00     0.244 HD
ENDBRANCH  20  22
ENDBRANCH  17  18
ENDBRANCH  14  16
ENDBRANCH   2  10
BRANCH   1  24
ATOM     24  C5  NON d   1       1.573  -4.043   0.100  0.00  0.00     0.041 A 
ATOM     25  C4  NON d   1       0.498  -4.463   0.886  0.00  0.00     0.033 A 
ATOM     26  C3  NON d   1       0.190  -5.828   0.967  0.00  0.00     0.039 A 
ATOM     27  C2  NON d   1       0.962  -6.782   0.299  0.00  0.00     0.068 A 
ATOM     28  C23 NON d   1       2.034  -6.362  -0.484  0.00  0.00     0.039 A 
ATOM     29  C22 NON d   1       2.335  -5.000  -0.587  0.00  0.00     0.033 A 
BRANCH  27  30
ATOM     30  O1  NON d   1       0.562  -8.079   0.468  0.00  0.00    -0.356 OA
ATOM     31  C1  NON d   1       1.512  -9.083   0.126  0.00  0.00     0.210 C 
ENDBRANCH  27  30
ENDBRANCH   1  24
TORSDOF 6
