@<TRIPOS>MOLECULE
*****
 54 56 0 0 0
SMALL
USER_CHARGES

@<TRIPOS>ATOM
      1 O1          2.8802    1.3456    7.0392 O.2     1  NONAME1    -0.2687
      2 C1          3.7883    1.8785    6.4079 C.2     1  NONAME1     0.2593
      3 C2          4.5647    1.0779    5.4128 C.2     1  NONAME1     0.0027
      4 C3          5.2570    1.5899    4.3727 C.2     1  NONAME1    -0.0496
      5 C4          5.9773    0.8205    3.3362 C.ar    1  NONAME1    -0.0249
      6 C5          6.3526    1.4707    2.1478 C.ar    1  NONAME1    -0.0542
      7 C6          7.0093    0.7976    1.1021 C.ar    1  NONAME1    -0.0530
      8 C7          7.3360   -0.5547    1.2144 C.ar    1  NONAME1    -0.0029
      9 C8          7.9807   -1.2991    0.0391 C.3     1  NONAME1    -0.0058
     10 N1          7.5991   -2.7947    0.0000 N.4     1  NONAME1     0.2404
     11 C9          6.5780   -3.6397   -0.8104 C.3     1  NONAME1    -0.0078
     12 C10         5.3264   -3.7821    0.0929 C.3     1  NONAME1     0.0841
     13 O2          4.8940   -2.4304    0.3327 O.3     1  NONAME1    -0.3898
     14 C11         8.9328   -3.5647    0.0000 C.3     1  NONAME1    -0.0261
     15 C12         9.0018   -5.0949    0.1070 C.3     1  NONAME1     0.0278
     16 C13         8.3249   -5.7327    1.2695 C.ar    1  NONAME1     0.0220
     17 C14         7.8898   -5.2481    2.4858 C.ar    1  NONAME1    -0.0332
     18 C15         7.2877   -6.3163    3.2046 C.ar    1  NONAME1    -0.0001
     19 C16         6.6326   -6.4158    4.4461 C.ar    1  NONAME1    -0.0526
     20 C17         6.1671   -7.6649    4.8740 C.ar    1  NONAME1    -0.0611
     21 C18         6.3640   -8.8019    4.0927 C.ar    1  NONAME1    -0.0598
     22 C19         7.0177   -8.7266    2.8588 C.ar    1  NONAME1    -0.0378
     23 C20         7.4552   -7.4666    2.4388 C.ar    1  NONAME1     0.0467
     24 N2          8.1101   -7.0949    1.2891 N.ar    1  NONAME1    -0.3577
     25 C21         7.0214   -1.1908    2.4318 C.ar    1  NONAME1    -0.0530
     26 C22         6.3460   -0.5192    3.4692 C.ar    1  NONAME1    -0.0542
     27 N3          4.1859    3.1774    6.5761 N.am    1  NONAME1    -0.1940
     28 O3          3.6205    3.8908    7.6554 O.3     1  NONAME1    -0.2949
     29 H1          4.4595    0.0095    5.5683 H       1  NONAME1     0.0670
     30 H2          5.2724    2.6651    4.2242 H       1  NONAME1     0.0625
     31 H3          6.1096    2.5259    2.0107 H       1  NONAME1     0.0624
     32 H4          7.2593    1.3673    0.2049 H       1  NONAME1     0.0622
     33 H5          7.6573   -0.8807   -0.9211 H       1  NONAME1     0.0867
     34 H6          9.0673   -1.1918    0.1214 H       1  NONAME1     0.0867
     35 H7          6.2654   -2.0247    0.0000 H       1  NONAME1     0.2038
     36 H8          6.9545   -4.6247   -1.0635 H       1  NONAME1     0.0837
     37 H9          6.3659   -3.0768   -1.7238 H       1  NONAME1     0.0837
     38 H10         4.5210   -4.3406   -0.3869 H       1  NONAME1     0.0610
     39 H11         5.5693   -4.2303    1.0619 H       1  NONAME1     0.0610
     40 H12         4.1261   -2.4812    0.9442 H       1  NONAME1     0.2096
     41 H13         9.4448   -3.2594   -0.9214 H       1  NONAME1     0.0818
     42 H14         9.4955   -3.1574    0.8501 H       1  NONAME1     0.0818
     43 H15        10.0681   -5.3558    0.1770 H       1  NONAME1     0.0380
     44 H16         8.6754   -5.5653   -0.8277 H       1  NONAME1     0.0380
     45 H17         7.9767   -4.2340    2.8415 H       1  NONAME1     0.0641
     46 H18         6.4851   -5.5396    5.0699 H       1  NONAME1     0.0624
     47 H19         5.6532   -7.7480    5.8281 H       1  NONAME1     0.0618
     48 H20         6.0062   -9.7646    4.4513 H       1  NONAME1     0.0618
     49 H21         7.1792   -9.6191    2.2633 H       1  NONAME1     0.0638
     50 H22         8.3952   -7.7493    0.5716 H       1  NONAME1     0.1656
     51 H23         7.2605   -2.2396    2.5832 H       1  NONAME1     0.0622
     52 H24         6.1157   -1.0765    4.3743 H       1  NONAME1     0.0624
     53 H25         5.0644    3.5347    6.2263 H       1  NONAME1     0.1825
     54 H26         2.6610    3.7865    7.4960 H       1  NONAME1     0.2414
@<TRIPOS>BOND
     1     1     2    2
     2     2     3    1
     3     3     4    2
     4     4     5    1
     5     5     6   ar
     6     6     7   ar
     7     7     8   ar
     8     8     9    1
     9     9    10    1
    10    10    11    1
    11    11    12    1
    12    12    13    1
    13    10    14    1
    14    14    15    1
    15    15    16    1
    16    16    17   ar
    17    17    18   ar
    18    18    19   ar
    19    19    20   ar
    20    20    21   ar
    21    21    22   ar
    22    22    23   ar
    23    18    23   ar
    24    23    24   ar
    25    16    24   ar
    26     8    25   ar
    27    25    26   ar
    28     5    26   ar
    29     2    27   am
    30    27    28    1
    31     3    29    1
    32     4    30    1
    33     6    31    1
    34     7    32    1
    35     9    33    1
    36     9    34    1
    37    10    35    1
    38    11    36    1
    39    11    37    1
    40    12    38    1
    41    12    39    1
    42    13    40    1
    43    14    41    1
    44    14    42    1
    45    15    43    1
    46    15    44    1
    47    17    45    1
    48    19    46    1
    49    20    47    1
    50    21    48    1
    51    22    49    1
    52    24    50    1
    53    25    51    1
    54    26    52    1
    55    27    53    1
    56    28    54    1
