@<TRIPOS>MOLECULE
*****
 49 52 0 0 0
SMALL
USER_CHARGES

@<TRIPOS>ATOM
      1 C1          8.0919    3.3178   -0.0684 C.3     1  NONAME1     0.0788
      2 O1          6.8812    4.0506    0.0671 O.3     1  NONAME1    -0.4951
      3 C2          5.7114    3.3412    0.0252 C.ar    1  NONAME1     0.1213
      4 C3          5.5949    1.9556   -0.0484 C.ar    1  NONAME1    -0.0179
      5 C4          4.3297    1.3465   -0.1034 C.ar    1  NONAME1    -0.0317
      6 C5          3.1619    2.1361   -0.0733 C.ar    1  NONAME1     0.0805
      7 N1          1.8526    1.6765   -0.1325 N.ar    1  NONAME1    -0.2249
      8 C6          1.0175    2.6832   -0.0410 C.ar    1  NONAME1     0.1595
      9 N2         -0.3326    2.6095   -0.0297 N.pl3   1  NONAME1    -0.3193
     10 C7         -0.9920    1.3184    0.0025 C.3     1  NONAME1     0.0361
     11 C8         -2.5134    1.4407   -0.0015 C.ar    1  NONAME1    -0.0303
     12 C9         -3.2892    0.2815    0.1818 C.ar    1  NONAME1    -0.0564
     13 C10        -4.6927    0.3392    0.2395 C.ar    1  NONAME1    -0.0493
     14 C11        -5.3534    1.5664    0.1076 C.ar    1  NONAME1     0.0370
     15 C12        -6.8385    1.7400    0.2334 C.2     1  NONAME1     0.2483
     16 O2         -7.2473    2.8320    0.6170 O.2     1  NONAME1    -0.2699
     17 N3         -7.6207    0.6429   -0.0700 N.am    1  NONAME1    -0.2800
     18 C13        -9.0406    0.5264   -0.0400 C.ar    1  NONAME1     0.0545
     19 C14        -9.5205   -0.7984   -0.0090 C.ar    1  NONAME1    -0.0387
     20 C15       -10.8879   -1.0810    0.0293 C.ar    1  NONAME1    -0.0599
     21 C16       -11.8065   -0.0423    0.0041 C.ar    1  NONAME1    -0.0599
     22 C17       -11.3519    1.2734   -0.0569 C.ar    1  NONAME1    -0.0392
     23 C18        -9.9783    1.5847   -0.0416 C.ar    1  NONAME1     0.0461
     24 N4         -9.6422    2.9253   -0.3168 N.pl3   1  NONAME1    -0.3565
     25 C19        -4.5880    2.7196   -0.1025 C.ar    1  NONAME1    -0.0493
     26 C20        -3.1918    2.6564   -0.1736 C.ar    1  NONAME1    -0.0564
     27 S1          1.7484    4.2354    0.0998 S.2     1  NONAME1    -0.0523
     28 C21         3.3046    3.5186    0.0289 C.ar    1  NONAME1     0.0442
     29 C22         4.5635    4.1385    0.0710 C.ar    1  NONAME1    -0.0041
     30 H1          8.1126    2.7512   -1.0051 H       1  NONAME1     0.0660
     31 H2          8.2505    2.6638    0.7949 H       1  NONAME1     0.0660
     32 H3          8.9153    4.0382   -0.0987 H       1  NONAME1     0.0660
     33 H4          6.4673    1.3103   -0.0652 H       1  NONAME1     0.0655
     34 H5          4.2418    0.2663   -0.1662 H       1  NONAME1     0.0640
     35 H6         -0.7759    3.3269    0.5304 H       1  NONAME1     0.1483
     36 H7         -0.6970    0.7830    0.9140 H       1  NONAME1     0.0511
     37 H8         -0.6949    0.7208   -0.8681 H       1  NONAME1     0.0511
     38 H9         -2.7990   -0.6844    0.3004 H       1  NONAME1     0.0621
     39 H10        -5.2329   -0.5824    0.4292 H       1  NONAME1     0.0625
     40 H11        -7.1383   -0.2156   -0.2869 H       1  NONAME1     0.1552
     41 H12        -8.8293   -1.6373    0.0043 H       1  NONAME1     0.0637
     42 H13       -11.2321   -2.1107    0.0660 H       1  NONAME1     0.0618
     43 H14       -12.8728   -0.2488    0.0069 H       1  NONAME1     0.0618
     44 H15       -12.0839    2.0745   -0.1337 H       1  NONAME1     0.0636
     45 H16        -8.7009    3.1419    0.0305 H       1  NONAME1     0.1424
     46 H17       -10.3103    3.5911    0.0548 H       1  NONAME1     0.1424
     47 H18        -5.0778    3.6875   -0.2050 H       1  NONAME1     0.0625
     48 H19        -2.6562    3.5837   -0.3587 H       1  NONAME1     0.0621
     49 H20         4.6475    5.2194    0.1379 H       1  NONAME1     0.0666
@<TRIPOS>BOND
     1     1     2    1
     2     2     3    1
     3     3     4   ar
     4     4     5   ar
     5     5     6   ar
     6     6     7   ar
     7     7     8   ar
     8     8     9    1
     9     9    10    1
    10    10    11    1
    11    11    12   ar
    12    12    13   ar
    13    13    14   ar
    14    14    15    1
    15    15    16    2
    16    15    17   am
    17    17    18    1
    18    18    19   ar
    19    19    20   ar
    20    20    21   ar
    21    21    22   ar
    22    22    23   ar
    23    18    23   ar
    24    23    24    1
    25    14    25   ar
    26    25    26   ar
    27    11    26   ar
    28     8    27   ar
    29    27    28   ar
    30     6    28   ar
    31    28    29   ar
    32     3    29   ar
    33     1    30    1
    34     1    31    1
    35     1    32    1
    36     4    33    1
    37     5    34    1
    38     9    35    1
    39    10    36    1
    40    10    37    1
    41    12    38    1
    42    13    39    1
    43    17    40    1
    44    19    41    1
    45    20    42    1
    46    21    43    1
    47    22    44    1
    48    24    45    1
    49    24    46    1
    50    25    47    1
    51    26    48    1
    52    29    49    1
