REMARK  7 active torsions:
REMARK  status: ('A' for Active; 'I' for Inactive)
REMARK    1  A    between atoms: C1_2  and  C2_3 
REMARK       I    between atoms: C1_2  and  N1_20 
REMARK    2  A    between atoms: C3_4  and  C4_5 
REMARK    3  A    between atoms: C5_6  and  C6_7 
REMARK    4  A    between atoms: C6_7  and  C7_8 
REMARK    5  A    between atoms: C7_8  and  C8_9 
REMARK    6  A    between atoms: C9_10  and  C10_11 
REMARK    7  A    between atoms: N1_20  and  O4_21 
ROOT
ATOM      1  C7  NON d   1      10.230   4.244   0.356  0.00  0.00     0.031 C 
ENDROOT
BRANCH   1   2
ATOM      2  C6  NON d   1      11.430   3.371  -0.062  0.00  0.00     0.031 C 
BRANCH   2   3
ATOM      3  C5  NON d   1      11.867   2.413   1.016  0.00  0.00    -0.026 C 
ATOM      4  C4  NON d   1      13.092   1.865   1.067  0.00  0.00    -0.004 C 
BRANCH   4   5
ATOM      5  C3  NON d   1      13.487   0.945   2.108  0.00  0.00     0.005 C 
ATOM      6  C2  NON d   1      14.685   0.341   2.134  0.00  0.00     0.076 C 
BRANCH   6   7
ATOM      7  C1  NON d   1      15.029  -0.593   3.243  0.00  0.00     0.264 C 
ATOM      8  O1  NON d   1      14.249  -0.851   4.152  0.00  0.00    -0.266 OA
ATOM      9  N1  NON d   1      16.304  -1.091   3.110  0.00  0.00    -0.234 N 
ATOM     10  H16 NON d   1      16.925  -0.883   2.338  0.00  0.00     0.197 HD
BRANCH   9  11
ATOM     11  O4  NON d   1      16.784  -1.927   4.136  0.00  0.00    -0.287 OA
ATOM     12  H17 NON d   1      17.237  -2.641   3.655  0.00  0.00     0.244 HD
ENDBRANCH   9  11
ENDBRANCH   6   7
ENDBRANCH   4   5
ENDBRANCH   2   3
ENDBRANCH   1   2
BRANCH   1  13
ATOM     13  C8  NON d   1       8.920   3.495   0.363  0.00  0.00    -0.026 C 
ATOM     14  C9  NON d   1       7.747   4.062   0.036  0.00  0.00     0.007 C 
BRANCH  14  15
ATOM     15  C10 NON d   1       6.434   3.390   0.034  0.00  0.00    -0.034 A 
ATOM     16  C11 NON d   1       6.292   1.988  -0.091  0.00  0.00     0.014 A 
ATOM     17  C12 NON d   1       5.029   1.383  -0.124  0.00  0.00     0.040 A 
ATOM     18  C13 NON d   1       3.924   2.199  -0.042  0.00  0.00     0.105 A 
ATOM     19  C14 NON d   1       4.045   3.562   0.068  0.00  0.00     0.105 A 
ATOM     20  O3  NON d   1       2.628   1.790  -0.066  0.00  0.00    -0.323 OA
ATOM     21  C15 NON d   1       5.277   4.185   0.105  0.00  0.00     0.051 A 
ATOM     22  O2  NON d   1       2.837   4.186   0.127  0.00  0.00    -0.323 OA
ATOM     23  C16 NON d   1       1.943   3.055   0.044  0.00  0.00     0.352 A 
ENDBRANCH  14  15
ENDBRANCH   1  13
TORSDOF 7
