@<TRIPOS>MOLECULE
*****
 36 36 0 0 0
SMALL
USER_CHARGES

@<TRIPOS>ATOM
      1 C1          5.5746   -3.0714   -2.6464 C.3     1  NONAME1    -0.0649
      2 C2          4.6519   -4.2626   -2.3281 C.3     1  NONAME1    -0.0509
      3 C3          5.0980   -5.0710   -1.1100 C.3     1  NONAME1    -0.0152
      4 C4          6.3654   -5.9344   -1.1881 C.2     1  NONAME1     0.0296
      5 S1          7.1298   -6.3140   -2.6312 S.2     1  NONAME1    -0.0494
      6 S2          6.7763   -6.5846    0.4136 S.3     1  NONAME1    -0.1140
      7 C5          8.1574   -7.7194    0.1359 C.3     1  NONAME1     0.0616
      8 C6          9.5041   -7.0184    0.0439 C.2     1  NONAME1     0.1732
      9 O1          9.6413   -5.7960    0.0411 O.2     1  NONAME1    -0.2912
     10 C7         10.7313   -7.8754   -0.0128 C.ar    1  NONAME1     0.0184
     11 C8         11.9860   -7.2581    0.0476 C.ar    1  NONAME1    -0.0495
     12 C9         13.1582   -8.0245    0.0339 C.ar    1  NONAME1    -0.0398
     13 C10        13.0982   -9.4209   -0.0438 C.ar    1  NONAME1     0.0334
     14 N1         14.3202  -10.1247   -0.0239 N.am    1  NONAME1    -0.2857
     15 C11        14.5019  -11.4933   -0.1071 C.2     1  NONAME1     0.2141
     16 C12        15.9481  -11.9054    0.0204 C.3     1  NONAME1     0.0125
     17 O2         13.6314  -12.3403   -0.2795 O.2     1  NONAME1    -0.2758
     18 C13        11.8471  -10.0337   -0.1177 C.ar    1  NONAME1    -0.0398
     19 C14        10.6713   -9.2699   -0.1027 C.ar    1  NONAME1    -0.0495
     20 H1          5.3307   -2.5017   -1.7257 H       1  NONAME1     0.0230
     21 H2          6.4972   -1.8801   -2.9648 H       1  NONAME1     0.0230
     22 H3          4.9490   -2.6823   -3.4763 H       1  NONAME1     0.0230
     23 H4          3.6313   -3.8933   -2.1575 H       1  NONAME1     0.0266
     24 H5          4.5884   -4.9110   -3.2100 H       1  NONAME1     0.0266
     25 H6          4.2777   -5.7615   -0.8650 H       1  NONAME1     0.0323
     26 H7          5.1921   -4.3905   -0.2533 H       1  NONAME1     0.0323
     27 H8          7.9822   -8.3447   -0.7428 H       1  NONAME1     0.0461
     28 H9          8.1833   -8.3716    1.0155 H       1  NONAME1     0.0461
     29 H10        12.0617   -6.1732    0.1133 H       1  NONAME1     0.0625
     30 H11        14.1130   -7.5085    0.0901 H       1  NONAME1     0.0636
     31 H12        15.1539   -9.5565    0.0573 H       1  NONAME1     0.1548
     32 H13        16.0169  -12.7406    0.7236 H       1  NONAME1     0.0323
     33 H14        16.3199  -12.2174   -0.9589 H       1  NONAME1     0.0323
     34 H15        16.5753  -11.0936    0.3984 H       1  NONAME1     0.0323
     35 H16        11.7448  -11.1131   -0.1804 H       1  NONAME1     0.0636
     36 H17         9.7280   -9.8059   -0.1609 H       1  NONAME1     0.0625
@<TRIPOS>BOND
     1     1     2    1
     2     2     3    1
     3     3     4    1
     4     4     5    2
     5     4     6    1
     6     6     7    1
     7     7     8    1
     8     8     9    2
     9     8    10    1
    10    10    11   ar
    11    11    12   ar
    12    12    13   ar
    13    13    14    1
    14    14    15   am
    15    15    16    1
    16    15    17    2
    17    13    18   ar
    18    18    19   ar
    19    10    19   ar
    20     1    20    1
    21     1    21    1
    22     1    22    1
    23     2    23    1
    24     2    24    1
    25     3    25    1
    26     3    26    1
    27     7    27    1
    28     7    28    1
    29    11    29    1
    30    12    30    1
    31    14    31    1
    32    16    32    1
    33    16    33    1
    34    16    34    1
    35    18    35    1
    36    19    36    1
