REMARK  7 active torsions:
REMARK  status: ('A' for Active; 'I' for Inactive)
REMARK    1  A    between atoms: C2_2  and  C3_3 
REMARK    2  A    between atoms: C3_3  and  C4_4 
REMARK    3  A    between atoms: C4_4  and  S2_6 
REMARK    4  A    between atoms: S2_6  and  C5_7 
REMARK    5  A    between atoms: C5_7  and  C6_8 
REMARK    6  A    between atoms: C6_8  and  C7_10 
REMARK    7  A    between atoms: C10_13  and  N1_14 
REMARK       I    between atoms: N1_14  and  C11_15 
ROOT
ATOM      1  C7  NON d   1      10.731  -7.875  -0.013  0.00  0.00     0.011 A 
ATOM      2  C8  NON d   1      11.986  -7.258   0.048  0.00  0.00     0.017 A 
ATOM      3  C9  NON d   1      13.158  -8.024   0.034  0.00  0.00     0.030 A 
ATOM      4  C10 NON d   1      13.098  -9.421  -0.044  0.00  0.00     0.034 A 
ATOM      5  C13 NON d   1      11.847 -10.034  -0.118  0.00  0.00     0.030 A 
ATOM      6  C14 NON d   1      10.671  -9.270  -0.103  0.00  0.00     0.017 A 
ENDROOT
BRANCH   1   7
ATOM      7  C6  NON d   1       9.504  -7.018   0.044  0.00  0.00     0.169 C 
ATOM      8  O1  NON d   1       9.641  -5.796   0.041  0.00  0.00    -0.291 OA
BRANCH   7   9
ATOM      9  C5  NON d   1       8.157  -7.719   0.136  0.00  0.00     0.163 C 
BRANCH   9  10
ATOM     10  S2  NON d   1       6.776  -6.585   0.414  0.00  0.00    -0.115 SA
BRANCH  10  11
ATOM     11  C4  NON d   1       6.365  -5.934  -1.188  0.00  0.00     0.045 C 
ATOM     12  S1  NON d   1       7.130  -6.314  -2.631  0.00  0.00    -0.077 SA
BRANCH  11  13
ATOM     13  C3  NON d   1       5.098  -5.071  -1.110  0.00  0.00     0.057 C 
BRANCH  13  14
ATOM     14  C2  NON d   1       4.652  -4.263  -2.328  0.00  0.00     0.001 C 
ATOM     15  C1  NON d   1       5.575  -3.071  -2.646  0.00  0.00     0.005 C 
ENDBRANCH  13  14
ENDBRANCH  11  13
ENDBRANCH  10  11
ENDBRANCH   9  10
ENDBRANCH   7   9
ENDBRANCH   1   7
BRANCH   4  16
ATOM     16  N1  NON d   1      14.320 -10.125  -0.024  0.00  0.00    -0.328 N 
ATOM     17  C11 NON d   1      14.502 -11.493  -0.107  0.00  0.00     0.218 C 
ATOM     18  C12 NON d   1      15.948 -11.905   0.020  0.00  0.00     0.117 C 
ATOM     19  O2  NON d   1      13.631 -12.340  -0.280  0.00  0.00    -0.274 OA
ATOM     20  H12 NON d   1      15.154  -9.556   0.057  0.00  0.00     0.169 HD
ENDBRANCH   4  16
TORSDOF 7
