@<TRIPOS>MOLECULE
*****
 56 59 0 0 0
SMALL
USER_CHARGES

@<TRIPOS>ATOM
      1 C1          0.3596   -6.4578    1.0292 C.3     1  NONAME1    -0.0652
      2 C2         -0.0082   -5.5747   -0.1523 C.3     1  NONAME1    -0.0543
      3 C3          0.2695   -4.0888    0.0860 C.3     1  NONAME1    -0.0351
      4 C4          1.7580   -3.7262    0.0039 C.3     1  NONAME1     0.0261
      5 N1          2.0623   -2.3081    0.1071 N.ar    1  NONAME1    -0.3149
      6 C5          1.1897   -1.2600    0.1968 C.ar    1  NONAME1     0.0983
      7 N2          1.8101   -0.1005    0.2537 N.ar    1  NONAME1    -0.2306
      8 C6          3.1550   -0.4059    0.2001 C.ar    1  NONAME1     0.1475
      9 C7          4.3216    0.3957    0.2036 C.ar    1  NONAME1     0.1515
     10 N3          4.3844    1.7894    0.3074 N.pl3   1  NONAME1    -0.3231
     11 C8          3.1812    2.5527    0.0106 C.3     1  NONAME1     0.0357
     12 C9          3.3748    4.0657    0.0397 C.ar    1  NONAME1    -0.0303
     13 C10         2.2280    4.8839   -0.0003 C.ar    1  NONAME1    -0.0564
     14 C11         2.3177    6.2868   -0.0543 C.ar    1  NONAME1    -0.0493
     15 C12         3.5682    6.9122   -0.0696 C.ar    1  NONAME1     0.0370
     16 C13         3.7765    8.3971   -0.1997 C.2     1  NONAME1     0.2483
     17 O1          4.8762    8.7792   -0.5960 O.2     1  NONAME1    -0.2699
     18 N4          2.7073    9.2236    0.1006 N.am    1  NONAME1    -0.2800
     19 C14         2.6398   10.6499    0.0572 C.ar    1  NONAME1     0.0545
     20 C15         1.3332   11.1797    0.0349 C.ar    1  NONAME1    -0.0387
     21 C16         1.1003   12.5575   -0.0166 C.ar    1  NONAME1    -0.0599
     22 C17         2.1711   13.4381   -0.0163 C.ar    1  NONAME1    -0.0599
     23 C18         3.4692   12.9361    0.0358 C.ar    1  NONAME1    -0.0392
     24 C19         3.7297   11.5510    0.0364 C.ar    1  NONAME1     0.0461
     25 N5          5.0614   11.1735    0.3019 N.pl3   1  NONAME1    -0.3565
     26 C20         4.7135    6.1014   -0.0167 C.ar    1  NONAME1    -0.0493
     27 C21         4.6206    4.7022    0.0388 C.ar    1  NONAME1    -0.0564
     28 N6          5.5143   -0.2402    0.0873 N.ar    1  NONAME1    -0.2003
     29 C22         5.5246   -1.5868    0.0139 C.ar    1  NONAME1     0.2264
     30 Cl1         7.0755   -2.3043   -0.0971 Cl      1  NONAME1    -0.0409
     31 N7          4.4904   -2.4483    0.0090 N.ar    1  NONAME1    -0.1977
     32 C23         3.3297   -1.7800    0.0991 C.ar    1  NONAME1     0.1668
     33 H1          1.4086   -6.3418    1.3141 H       1  NONAME1     0.0230
     34 H2         -0.2635   -6.2225    1.8982 H       1  NONAME1     0.0230
     35 H3          0.1936   -7.5100    0.7749 H       1  NONAME1     0.0230
     36 H4         -1.0795   -5.7013   -0.3516 H       1  NONAME1     0.0263
     37 H5          0.5217   -5.9163   -1.0486 H       1  NONAME1     0.0263
     38 H6         -0.1392   -3.7839    1.0574 H       1  NONAME1     0.0282
     39 H7         -0.2778   -3.5248   -0.6794 H       1  NONAME1     0.0282
     40 H8          2.1687   -4.0585   -0.9573 H       1  NONAME1     0.0493
     41 H9          2.3155   -4.2230    0.8059 H       1  NONAME1     0.0493
     42 H10         0.1144   -1.3807    0.2135 H       1  NONAME1     0.1029
     43 H11         5.2340    2.0853   -0.1595 H       1  NONAME1     0.1479
     44 H12         2.8060    2.2903   -0.9867 H       1  NONAME1     0.0511
     45 H13         2.4154    2.3169    0.7590 H       1  NONAME1     0.0511
     46 H14         1.2402    4.4230   -0.0067 H       1  NONAME1     0.0621
     47 H15         1.3915    6.8470   -0.1198 H       1  NONAME1     0.0625
     48 H16         1.8299    8.7746    0.3115 H       1  NONAME1     0.1552
     49 H17         0.4682   10.5218    0.0404 H       1  NONAME1     0.0637
     50 H18         0.0836   12.9399   -0.0451 H       1  NONAME1     0.0618
     51 H19         2.0041   14.5118   -0.0315 H       1  NONAME1     0.0618
     52 H20         4.2975   13.6391    0.0928 H       1  NONAME1     0.0636
     53 H21         5.2398   10.2192   -0.0312 H       1  NONAME1     0.1424
     54 H22         5.7443   11.8113   -0.0913 H       1  NONAME1     0.1424
     55 H23         5.7025    6.5579   -0.0306 H       1  NONAME1     0.0625
     56 H24         5.5468    4.1363    0.0745 H       1  NONAME1     0.0621
@<TRIPOS>BOND
     1     1     2    1
     2     2     3    1
     3     3     4    1
     4     4     5    1
     5     5     6   ar
     6     6     7   ar
     7     7     8   ar
     8     8     9   ar
     9     9    10    1
    10    10    11    1
    11    11    12    1
    12    12    13   ar
    13    13    14   ar
    14    14    15   ar
    15    15    16    1
    16    16    17    2
    17    16    18   am
    18    18    19    1
    19    19    20   ar
    20    20    21   ar
    21    21    22   ar
    22    22    23   ar
    23    23    24   ar
    24    19    24   ar
    25    24    25    1
    26    15    26   ar
    27    26    27   ar
    28    12    27   ar
    29     9    28   ar
    30    28    29   ar
    31    29    30    1
    32    29    31   ar
    33    31    32   ar
    34     8    32   ar
    35     5    32   ar
    36     1    33    1
    37     1    34    1
    38     1    35    1
    39     2    36    1
    40     2    37    1
    41     3    38    1
    42     3    39    1
    43     4    40    1
    44     4    41    1
    45     6    42    1
    46    10    43    1
    47    11    44    1
    48    11    45    1
    49    13    46    1
    50    14    47    1
    51    18    48    1
    52    20    49    1
    53    21    50    1
    54    22    51    1
    55    23    52    1
    56    25    53    1
    57    25    54    1
    58    26    55    1
    59    27    56    1
