@<TRIPOS>MOLECULE
*****
 78 82 0 0 0
SMALL
USER_CHARGES

@<TRIPOS>ATOM
      1 C1         -6.5403  -10.1434   -0.9485 C.3     1  NONAME1    -0.0381
      2 C2         -5.6404  -10.0539    0.2573 C.3     1  NONAME1     0.0968
      3 N1         -4.2974  -10.6210    0.1369 N.am    1  NONAME1    -0.3025
      4 C3         -3.7014  -11.5098   -0.7582 C.2     1  NONAME1     0.2377
      5 O1         -4.2430  -11.9826   -1.7435 O.2     1  NONAME1    -0.2734
      6 C4         -2.2631  -11.8707   -0.2275 C.3     1  NONAME1     0.1186
      7 C5         -1.2615  -12.5969   -1.1484 C.3     1  NONAME1     0.0028
      8 C6         -1.2226  -13.9928   -0.6060 C.ar    1  NONAME1    -0.0416
      9 C7         -0.4633  -15.0608   -1.0595 C.ar    1  NONAME1    -0.0582
     10 C8         -0.6541  -16.3138   -0.4716 C.ar    1  NONAME1    -0.0615
     11 C9         -1.6149  -16.4877    0.5341 C.ar    1  NONAME1    -0.0615
     12 C10        -2.3188  -15.3908    1.0342 C.ar    1  NONAME1    -0.0582
     13 C11        -2.0679  -14.1405    0.4894 C.ar    1  NONAME1    -0.0416
     14 C12        -2.5504  -12.8109    0.9835 C.3     1  NONAME1     0.0028
     15 N2         -1.7915  -10.4868    0.0453 N.am    1  NONAME1    -0.2994
     16 C13        -0.9177   -9.9958    0.9820 C.2     1  NONAME1     0.2342
     17 O2         -0.2223  -10.7011    1.6996 O.2     1  NONAME1    -0.2738
     18 C14        -0.9003   -8.4293    0.9939 C.3     1  NONAME1     0.0994
     19 C15         0.3618   -7.8634    0.3150 C.3     1  NONAME1    -0.0260
     20 C16         1.5833   -7.9998    1.2407 C.3     1  NONAME1    -0.0509
     21 C17         2.8306   -7.2218    0.7993 C.3     1  NONAME1    -0.0522
     22 C18         2.7100   -5.7068    1.0117 C.3     1  NONAME1    -0.0432
     23 C19         4.0506   -4.9650    1.0749 C.3     1  NONAME1     0.0043
     24 S1          4.9818   -4.9913   -0.4923 S.3     1  NONAME1    -0.0866
     25 S2          6.3059   -6.5428   -0.2058 S.3     1  NONAME1    -0.0372
     26 C20         7.3299   -6.5192   -1.6738 C.ar    1  NONAME1     0.1072
     27 C21         7.7754   -7.7416   -2.1872 C.ar    1  NONAME1    -0.0290
     28 C22         8.5990   -7.7286   -3.3082 C.ar    1  NONAME1    -0.0578
     29 C23         8.9446   -6.5202   -3.8915 C.ar    1  NONAME1    -0.0435
     30 C24         8.4610   -5.3586   -3.3116 C.ar    1  NONAME1     0.0289
     31 N3          7.6750   -5.3316   -2.2145 N.ar    1  NONAME1    -0.2480
     32 N4         -2.1817   -7.9702    0.3917 N.am    1  NONAME1    -0.3025
     33 C25        -2.6284   -6.6698    0.4956 C.2     1  NONAME1     0.2342
     34 O3         -1.8696   -5.7226    0.6864 O.2     1  NONAME1    -0.2738
     35 C26        -4.1756   -6.4956    0.5456 C.3     1  NONAME1     0.1023
     36 C27        -4.6092   -5.2649   -0.2488 C.3     1  NONAME1    -0.0243
     37 C28        -6.1046   -5.4942   -0.3670 C.3     1  NONAME1    -0.0350
     38 C29        -6.1838   -6.9888   -0.6702 C.3     1  NONAME1     0.0156
     39 N5         -5.0528   -7.5871    0.0405 N.am    1  NONAME1    -0.2884
     40 C30        -5.3261   -8.6615    0.8883 C.2     1  NONAME1     0.2362
     41 O4         -4.9670   -8.6202    2.0721 O.2     1  NONAME1    -0.2736
     42 H1         -7.5102   -9.6825   -0.7323 H       1  NONAME1     0.0252
     43 H2         -6.1103   -9.6666   -1.8314 H       1  NONAME1     0.0252
     44 H3         -6.7382  -11.1940   -1.1919 H       1  NONAME1     0.0252
     45 H4         -6.1173  -10.6328    1.0599 H       1  NONAME1     0.0592
     46 H5         -3.7492  -10.4834    0.9824 H       1  NONAME1     0.1495
     47 H6         -1.5820  -12.5930   -2.1941 H       1  NONAME1     0.0339
     48 H7         -0.2566  -12.1641   -1.0740 H       1  NONAME1     0.0339
     49 H8          0.2745  -14.9310   -1.8447 H       1  NONAME1     0.0620
     50 H9         -0.0621  -17.1638   -0.8024 H       1  NONAME1     0.0618
     51 H10        -1.7930  -17.4788    0.9442 H       1  NONAME1     0.0618
     52 H11        -3.0410  -15.5213    1.8339 H       1  NONAME1     0.0620
     53 H12        -1.9971  -12.5258    1.8809 H       1  NONAME1     0.0339
     54 H13        -3.6146  -12.8916    1.2357 H       1  NONAME1     0.0339
     55 H14        -1.9814   -9.8314   -0.7106 H       1  NONAME1     0.1498
     56 H15        -0.9487   -8.1130    2.0423 H       1  NONAME1     0.0594
     57 H16         0.5568   -8.3873   -0.6295 H       1  NONAME1     0.0288
     58 H17         0.2228   -6.8092    0.0599 H       1  NONAME1     0.0288
     59 H18         1.3172   -7.6863    2.2573 H       1  NONAME1     0.0266
     60 H19         1.8561   -9.0599    1.3025 H       1  NONAME1     0.0266
     61 H20         3.0574   -7.4434   -0.2494 H       1  NONAME1     0.0266
     62 H21         3.6715   -7.5929    1.3979 H       1  NONAME1     0.0266
     63 H22         2.1939   -5.5178    1.9615 H       1  NONAME1     0.0273
     64 H23         2.0806   -5.2687    0.2278 H       1  NONAME1     0.0273
     65 H24         3.8527   -3.9115    1.3038 H       1  NONAME1     0.0385
     66 H25         4.6694   -5.3449    1.8964 H       1  NONAME1     0.0385
     67 H26         7.4933   -8.6742   -1.7164 H       1  NONAME1     0.0644
     68 H27         8.9531   -8.6673   -3.7349 H       1  NONAME1     0.0619
     69 H28         9.5717   -6.4765   -4.7749 H       1  NONAME1     0.0633
     70 H29         8.7030   -4.3833   -3.7285 H       1  NONAME1     0.0830
     71 H30        -2.9429   -8.6306    0.4746 H       1  NONAME1     0.1495
     72 H31        -4.4221   -6.3325    1.6038 H       1  NONAME1     0.0597
     73 H32        -4.3614   -4.3288    0.2605 H       1  NONAME1     0.0288
     74 H33        -4.1461   -5.2467   -1.2432 H       1  NONAME1     0.0288
     75 H34        -6.5839   -5.2788    0.5977 H       1  NONAME1     0.0281
     76 H35        -6.5814   -4.8730   -1.1289 H       1  NONAME1     0.0281
     77 H36        -6.0515   -7.1730   -1.7405 H       1  NONAME1     0.0465
     78 H37        -7.1410   -7.4017   -0.3377 H       1  NONAME1     0.0465
@<TRIPOS>BOND
     1     2     1    1
     2     2     3    1
     3     3     4   am
     4     4     5    2
     5     4     6    1
     6     6     7    1
     7     7     8    1
     8     8     9   ar
     9     9    10   ar
    10    10    11   ar
    11    11    12   ar
    12    12    13   ar
    13     8    13   ar
    14    13    14    1
    15     6    14    1
    16     6    15    1
    17    15    16   am
    18    16    17    2
    19    18    16    1
    20    18    19    1
    21    19    20    1
    22    20    21    1
    23    21    22    1
    24    22    23    1
    25    23    24    1
    26    24    25    1
    27    25    26    1
    28    26    27   ar
    29    27    28   ar
    30    28    29   ar
    31    29    30   ar
    32    30    31   ar
    33    26    31   ar
    34    18    32    1
    35    32    33   am
    36    33    34    2
    37    35    33    1
    38    35    36    1
    39    36    37    1
    40    37    38    1
    41    38    39    1
    42    35    39    1
    43    39    40   am
    44     2    40    1
    45    40    41    2
    46     1    42    1
    47     1    43    1
    48     1    44    1
    49     2    45    1
    50     3    46    1
    51     7    47    1
    52     7    48    1
    53     9    49    1
    54    10    50    1
    55    11    51    1
    56    12    52    1
    57    14    53    1
    58    14    54    1
    59    15    55    1
    60    18    56    1
    61    19    57    1
    62    19    58    1
    63    20    59    1
    64    20    60    1
    65    21    61    1
    66    21    62    1
    67    22    63    1
    68    22    64    1
    69    23    65    1
    70    23    66    1
    71    27    67    1
    72    28    68    1
    73    29    69    1
    74    30    70    1
    75    32    71    1
    76    35    72    1
    77    36    73    1
    78    36    74    1
    79    37    75    1
    80    37    76    1
    81    38    77    1
    82    38    78    1
