REMARK  5 active torsions:
REMARK  status: ('A' for Active; 'I' for Inactive)
REMARK    1  A    between atoms: C2_2  and  N1_3 
REMARK    2  A    between atoms: C2_2  and  C10_17 
REMARK       I    between atoms: N1_3  and  C3_4 
REMARK    3  A    between atoms: C3_4  and  C4_6 
REMARK    4  A    between atoms: C7_9  and  C8_10 
REMARK    5  A    between atoms: C8_10  and  C9_12 
ROOT
ATOM      1  N1  NON d   1       6.973  -2.307  -0.262  0.00  0.00    -0.348 N 
ATOM      2  C3  NON d   1       6.440  -3.101  -1.278  0.00  0.00     0.259 C 
ATOM      3  O1  NON d   1       6.091  -2.653  -2.365  0.00  0.00    -0.267 OA
ATOM      4  H5  NON d   1       7.197  -2.792   0.593  0.00  0.00     0.163 HD
ENDROOT
BRANCH   2   5
ATOM      5  C4  NON d   1       6.221  -4.484  -0.896  0.00  0.00     0.073 A 
ATOM      6  C5  NON d   1       7.061  -5.396  -0.298  0.00  0.00     0.026 A 
ATOM      7  C6  NON d   1       6.411  -6.653  -0.063  0.00  0.00     0.024 A 
ATOM      8  C7  NON d   1       5.082  -6.646  -0.450  0.00  0.00     0.061 A 
ATOM      9  S1  NON d   1       4.665  -5.146  -1.167  0.00  0.00    -0.081 SA
BRANCH   8  10
ATOM     10  C8  NON d   1       4.053  -7.685  -0.346  0.00  0.00     0.272 C 
ATOM     11  O2  NON d   1       2.858  -7.468  -0.579  0.00  0.00    -0.282 OA
BRANCH  10  12
ATOM     12  C9  NON d   1       4.536  -9.074   0.064  0.00  0.00     0.456 C 
ATOM     13  F1  NON d   1       5.389  -9.613  -0.853  0.00  0.00    -0.163 F 
ATOM     14  F2  NON d   1       5.215  -9.063   1.248  0.00  0.00    -0.163 F 
ATOM     15  F3  NON d   1       3.527  -9.975   0.221  0.00  0.00    -0.163 F 
ENDBRANCH  10  12
ENDBRANCH   8  10
ENDBRANCH   2   5
BRANCH   1  16
ATOM     16  C2  NON d   1       6.469  -0.885   0.000  0.00  0.00     0.114 C 
ATOM     17  C1  NON d   1       5.891  -0.118  -1.284  0.00  0.00     0.037 C 
BRANCH  16  18
ATOM     18  C10 NON d   1       7.803  -0.115   0.000  0.00  0.00    -0.036 A 
ATOM     19  C11 NON d   1       7.809   1.155   0.616  0.00  0.00     0.009 A 
ATOM     20  C12 NON d   1       8.973   1.927   0.683  0.00  0.00     0.001 A 
ATOM     21  C13 NON d   1      10.169   1.430   0.178  0.00  0.00     0.000 A 
ATOM     22  C14 NON d   1      10.198   0.172  -0.415  0.00  0.00     0.001 A 
ATOM     23  C15 NON d   1       9.026  -0.584  -0.519  0.00  0.00     0.009 A 
ENDBRANCH  16  18
ENDBRANCH   1  16
TORSDOF 5
