@<TRIPOS>MOLECULE
*****
 75 78 0 0 0
SMALL
USER_CHARGES

@<TRIPOS>ATOM
      1 N1          6.0882  -17.1148   -0.0029 N.pl3   1  NONAME1    -0.3565
      2 C1          4.9207  -17.9189   -0.0228 C.ar    1  NONAME1     0.0461
      3 C2          5.0544  -19.3133    0.0681 C.ar    1  NONAME1    -0.0392
      4 C3          3.9289  -20.1349    0.0495 C.ar    1  NONAME1    -0.0599
      5 C4          2.6612  -19.5624   -0.0185 C.ar    1  NONAME1    -0.0599
      6 C5          2.5118  -18.1696   -0.0524 C.ar    1  NONAME1    -0.0387
      7 C6          3.6298  -17.3320   -0.0288 C.ar    1  NONAME1     0.0545
      8 N2          3.5530  -15.9119    0.0177 N.am    1  NONAME1    -0.2804
      9 C7          2.4187  -15.1256   -0.0427 C.2     1  NONAME1     0.2411
     10 O1          1.2644  -15.5178   -0.1688 O.2     1  NONAME1    -0.2705
     11 C8          2.7124  -13.6497    0.0382 C.2     1  NONAME1     0.0010
     12 C9          1.6936  -12.7679   -0.0174 C.2     1  NONAME1    -0.0497
     13 C10         1.7397  -11.2849    0.0198 C.ar    1  NONAME1    -0.0249
     14 C11         0.5322  -10.5729    0.0291 C.ar    1  NONAME1    -0.0541
     15 C12         0.4957   -9.1635    0.0690 C.ar    1  NONAME1    -0.0522
     16 C13         1.6714   -8.3817    0.0801 C.ar    1  NONAME1     0.0092
     17 C14         1.6765   -6.8405    0.2562 C.3     1  NONAME1     0.0810
     18 N3          0.2877   -6.1809    0.1350 N.4     1  NONAME1     0.2391
     19 C15        -0.3813   -6.1032   -1.2131 C.3     1  NONAME1    -0.0324
     20 C16        -1.8711   -5.7400   -1.0204 C.3     1  NONAME1    -0.0096
     21 C17        -2.2612   -4.2404   -0.9353 C.3     1  NONAME1    -0.0321
     22 C18        -1.2978   -3.3770   -0.1106 C.3     1  NONAME1    -0.0264
     23 C19        -1.6501   -1.8973   -0.1965 C.3     1  NONAME1     0.0479
     24 O2         -1.6468   -1.5050   -1.5637 O.3     1  NONAME1    -0.3797
     25 C20        -2.7072   -2.1286   -2.2862 C.3     1  NONAME1     0.0479
     26 C21        -2.4864   -3.6384   -2.3361 C.3     1  NONAME1    -0.0264
     27 C22         2.8520   -6.0295   -0.4466 C.2     1  NONAME1     0.2701
     28 O3          3.5792   -6.5507   -1.2890 O.2     1  NONAME1    -0.2689
     29 N4          3.0311   -4.7033   -0.0122 N.am    1  NONAME1    -0.2806
     30 C23         4.2492   -3.9424   -0.0963 C.ar    1  NONAME1     0.0336
     31 C24         4.2016   -2.5433    0.0253 C.ar    1  NONAME1    -0.0399
     32 C25         5.3819   -1.7438    0.0467 C.ar    1  NONAME1    -0.0484
     33 C26         6.6684   -2.3100    0.0000 C.ar    1  NONAME1     0.0549
     34 C27         8.0021   -1.5400    0.0000 C.3     1  NONAME1     0.4174
     35 F1          9.3358   -0.7700    0.0000 F       1  NONAME1    -0.1659
     36 F2          8.5532   -2.3542    1.0430 F       1  NONAME1    -0.1659
     37 F3          7.4595   -0.4336    0.7326 F       1  NONAME1    -0.1659
     38 C28         6.6879   -3.7215   -0.1491 C.ar    1  NONAME1    -0.0484
     39 C29         5.5133   -4.5189   -0.1990 C.ar    1  NONAME1    -0.0399
     40 C30         2.8763   -9.1120    0.0843 C.ar    1  NONAME1    -0.0522
     41 C31         2.9104  -10.5266    0.0417 C.ar    1  NONAME1    -0.0541
     42 H1          6.9325  -17.6704   -0.1227 H       1  NONAME1     0.1424
     43 H2          6.0430  -16.3973   -0.7216 H       1  NONAME1     0.1424
     44 H3          6.0355  -19.7743    0.1284 H       1  NONAME1     0.0636
     45 H4          4.0370  -21.2164    0.0996 H       1  NONAME1     0.0618
     46 H5          1.7773  -20.1977   -0.0317 H       1  NONAME1     0.0618
     47 H6          1.5025  -17.7719   -0.0722 H       1  NONAME1     0.0637
     48 H7          4.4506  -15.4720    0.1696 H       1  NONAME1     0.1552
     49 H8          3.7461  -13.3485    0.1251 H       1  NONAME1     0.0670
     50 H9          0.6851  -13.1793   -0.1024 H       1  NONAME1     0.0625
     51 H10        -0.4133  -11.1181    0.0171 H       1  NONAME1     0.0624
     52 H11        -0.4997   -8.7245    0.0967 H       1  NONAME1     0.0623
     53 H12         1.8843   -6.7161    1.3285 H       1  NONAME1     0.1003
     54 H13         0.3371   -5.2498    0.5512 H       1  NONAME1     0.2025
     55 H14        -0.3255   -6.7089    0.7696 H       1  NONAME1     0.2025
     56 H15        -0.3078   -7.0942   -1.6689 H       1  NONAME1     0.0814
     57 H16         0.1612   -5.3804   -1.8271 H       1  NONAME1     0.0814
     58 H17        -2.2519   -6.2402   -0.1196 H       1  NONAME1     0.0319
     59 H18        -2.4370   -6.1841   -1.8511 H       1  NONAME1     0.0319
     60 H19        -3.2387   -4.1997   -0.4308 H       1  NONAME1     0.0304
     61 H20        -1.2959   -3.7001    0.9357 H       1  NONAME1     0.0290
     62 H21        -0.2829   -3.4877   -0.5071 H       1  NONAME1     0.0290
     63 H22        -0.8885   -1.3065    0.3224 H       1  NONAME1     0.0560
     64 H23        -2.6192   -1.6749    0.2642 H       1  NONAME1     0.0560
     65 H24        -3.6684   -1.8756   -1.8219 H       1  NONAME1     0.0560
     66 H25        -2.7147   -1.7171   -3.3006 H       1  NONAME1     0.0560
     67 H26        -1.6110   -3.8468   -2.9614 H       1  NONAME1     0.0290
     68 H27        -3.3521   -4.1123   -2.8153 H       1  NONAME1     0.0290
     69 H28         2.2357   -4.1587    0.2869 H       1  NONAME1     0.1550
     70 H29         3.2469   -2.0245    0.0882 H       1  NONAME1     0.0636
     71 H30         5.2700   -0.6608    0.1179 H       1  NONAME1     0.0624
     72 H31         7.6495   -4.2374   -0.2002 H       1  NONAME1     0.0624
     73 H32         5.6374   -5.5967   -0.2748 H       1  NONAME1     0.0636
     74 H33         3.8382   -8.6024    0.1214 H       1  NONAME1     0.0623
     75 H34         3.8834  -11.0143    0.0321 H       1  NONAME1     0.0624
@<TRIPOS>BOND
     1     1     2    1
     2     2     3   ar
     3     3     4   ar
     4     4     5   ar
     5     5     6   ar
     6     6     7   ar
     7     2     7   ar
     8     7     8    1
     9     8     9   am
    10     9    10    2
    11     9    11    1
    12    11    12    2
    13    12    13    1
    14    13    14   ar
    15    14    15   ar
    16    15    16   ar
    17    16    17    1
    18    17    18    1
    19    18    19    1
    20    19    20    1
    21    20    21    1
    22    21    22    1
    23    22    23    1
    24    23    24    1
    25    24    25    1
    26    25    26    1
    27    21    26    1
    28    17    27    1
    29    27    28    2
    30    27    29   am
    31    29    30    1
    32    30    31   ar
    33    31    32   ar
    34    32    33   ar
    35    33    34    1
    36    34    35    1
    37    34    36    1
    38    34    37    1
    39    33    38   ar
    40    38    39   ar
    41    30    39   ar
    42    16    40   ar
    43    40    41   ar
    44    13    41   ar
    45     1    42    1
    46     1    43    1
    47     3    44    1
    48     4    45    1
    49     5    46    1
    50     6    47    1
    51     8    48    1
    52    11    49    1
    53    12    50    1
    54    14    51    1
    55    15    52    1
    56    17    53    1
    57    18    54    1
    58    18    55    1
    59    19    56    1
    60    19    57    1
    61    20    58    1
    62    20    59    1
    63    21    60    1
    64    22    61    1
    65    22    62    1
    66    23    63    1
    67    23    64    1
    68    25    65    1
    69    25    66    1
    70    26    67    1
    71    26    68    1
    72    29    69    1
    73    31    70    1
    74    32    71    1
    75    38    72    1
    76    39    73    1
    77    40    74    1
    78    41    75    1
