@<TRIPOS>MOLECULE
*****
 64 68 0 0 0
SMALL
USER_CHARGES

@<TRIPOS>ATOM
      1 O1         11.6407   -3.9599    0.1452 O.2     1  NONAME1    -0.2687
      2 C1         11.2519   -5.1245    0.0419 C.2     1  NONAME1     0.2593
      3 C2          9.7826   -5.4016    0.0156 C.2     1  NONAME1     0.0027
      4 C3          9.1883   -6.6062    0.0768 C.2     1  NONAME1    -0.0495
      5 C4          7.7276   -6.7888    0.1082 C.ar    1  NONAME1    -0.0221
      6 C5          7.1425   -7.8883   -0.5406 C.ar    1  NONAME1    -0.0540
      7 C6          5.7573   -8.1149   -0.4833 C.ar    1  NONAME1    -0.0502
      8 C7          4.9397   -7.2580    0.2636 C.ar    1  NONAME1     0.0322
      9 C8          3.4843   -7.5072    0.4999 C.3     1  NONAME1    -0.0031
     10 N1          2.4290   -6.7918   -0.3380 N.4     1  NONAME1     0.2390
     11 C9          1.0879   -7.1692    0.2538 C.3     1  NONAME1    -0.0315
     12 C10         0.0005   -6.2682   -0.2451 C.3     1  NONAME1    -0.0118
     13 C11         0.2875   -4.7982    0.0163 C.3     1  NONAME1    -0.0365
     14 C12         1.7281   -4.3593    0.2439 C.3     1  NONAME1     0.0270
     15 C13         1.9250   -2.8186    0.0123 C.ar    1  NONAME1    -0.0063
     16 C14         1.0082   -1.7153   -0.0734 C.ar    1  NONAME1     0.0511
     17 C15        -0.4758   -1.3771    0.0192 C.ar    1  NONAME1    -0.0014
     18 C16        -1.5556   -2.2520   -0.1268 C.ar    1  NONAME1    -0.0526
     19 C17        -2.9025   -1.8392   -0.0978 C.ar    1  NONAME1    -0.0611
     20 C18        -3.2288   -0.5045    0.0473 C.ar    1  NONAME1    -0.0617
     21 C19        -2.2040    0.4089    0.2036 C.ar    1  NONAME1    -0.0611
     22 C20        -0.8662   -0.0250    0.2180 C.ar    1  NONAME1    -0.0526
     23 N2          1.8218   -0.6225   -0.3638 N.ar    1  NONAME1    -0.3539
     24 C21         3.1486   -0.8618   -0.2169 C.ar    1  NONAME1     0.0472
     25 C22         4.2172    0.0461   -0.2606 C.ar    1  NONAME1    -0.0378
     26 C23         5.5073   -0.4580   -0.1350 C.ar    1  NONAME1    -0.0598
     27 C24         5.7051   -1.8185    0.0312 C.ar    1  NONAME1    -0.0611
     28 C25         4.6082   -2.6930    0.0992 C.ar    1  NONAME1    -0.0523
     29 C26         3.2781   -2.2244   -0.0267 C.ar    1  NONAME1     0.0039
     30 C27         2.5982   -5.2846   -0.6488 C.3     1  NONAME1    -0.0245
     31 C28         5.5476   -6.2085    0.9511 C.ar    1  NONAME1     0.1321
     32 F1          4.7868   -5.4344    1.7386 F       1  NONAME1    -0.2050
     33 C29         6.9087   -5.9489    0.8650 C.ar    1  NONAME1    -0.0188
     34 N3         12.0703   -6.2166   -0.0663 N.am    1  NONAME1    -0.1940
     35 O2         13.4290   -5.9513   -0.3221 O.3     1  NONAME1    -0.2949
     36 H1          9.1939   -4.4896   -0.0357 H       1  NONAME1     0.0670
     37 H2          9.7601   -7.5272    0.1338 H       1  NONAME1     0.0625
     38 H3          7.7702   -8.5957   -1.0851 H       1  NONAME1     0.0624
     39 H4          5.3549   -8.9975   -0.9764 H       1  NONAME1     0.0623
     40 H5          3.2570   -7.3021    1.5527 H       1  NONAME1     0.0868
     41 H6          3.2868   -8.5776    0.3452 H       1  NONAME1     0.0868
     42 H7          2.4823   -7.2355   -1.2639 H       1  NONAME1     0.2037
     43 H8          0.8967   -8.2114   -0.0244 H       1  NONAME1     0.0814
     44 H9          1.1585   -7.0971    1.3450 H       1  NONAME1     0.0814
     45 H10        -0.9507   -6.5367    0.2319 H       1  NONAME1     0.0317
     46 H11        -0.1485   -6.4278   -1.3198 H       1  NONAME1     0.0317
     47 H12        -0.0471   -4.3044   -0.8991 H       1  NONAME1     0.0275
     48 H13        -0.3012   -4.4784    0.8834 H       1  NONAME1     0.0275
     49 H14         2.0030   -4.5477    1.2910 H       1  NONAME1     0.0402
     50 H15        -1.4606   -3.3016   -0.2972 H       1  NONAME1     0.0624
     51 H16        -3.6935   -2.5781   -0.2089 H       1  NONAME1     0.0618
     52 H17        -4.2667   -0.1845    0.0417 H       1  NONAME1     0.0618
     53 H18        -2.4346    1.4653    0.3177 H       1  NONAME1     0.0618
     54 H19        -0.1404    0.7643    0.3949 H       1  NONAME1     0.0624
     55 H20         1.4804    0.2999   -0.5803 H       1  NONAME1     0.1659
     56 H21         4.0525    1.1127   -0.3839 H       1  NONAME1     0.0638
     57 H22         6.3584    0.2189   -0.1654 H       1  NONAME1     0.0618
     58 H23         6.7173   -2.2052    0.1232 H       1  NONAME1     0.0618
     59 H24         4.8299   -3.7303    0.2707 H       1  NONAME1     0.0624
     60 H25         3.6611   -5.0783   -0.6425 H       1  NONAME1     0.0820
     61 H26         2.2808   -5.1749   -1.6952 H       1  NONAME1     0.0820
     62 H27         7.3142   -5.1139    1.4297 H       1  NONAME1     0.0652
     63 H28        11.7394   -7.1137   -0.3910 H       1  NONAME1     0.1825
     64 H29        13.7466   -5.6378    0.5462 H       1  NONAME1     0.2414
@<TRIPOS>BOND
     1     1     2    2
     2     2     3    1
     3     3     4    2
     4     4     5    1
     5     5     6   ar
     6     6     7   ar
     7     7     8   ar
     8     8     9    1
     9     9    10    1
    10    10    11    1
    11    11    12    1
    12    12    13    1
    13    13    14    1
    14    14    15    1
    15    15    16   ar
    16    16    17    1
    17    17    18   ar
    18    18    19   ar
    19    19    20   ar
    20    20    21   ar
    21    21    22   ar
    22    17    22   ar
    23    16    23   ar
    24    23    24   ar
    25    24    25   ar
    26    25    26   ar
    27    26    27   ar
    28    27    28   ar
    29    28    29   ar
    30    15    29   ar
    31    24    29   ar
    32    14    30    1
    33    10    30    1
    34     8    31   ar
    35    31    32    1
    36    31    33   ar
    37     5    33   ar
    38     2    34   am
    39    34    35    1
    40     3    36    1
    41     4    37    1
    42     6    38    1
    43     7    39    1
    44     9    40    1
    45     9    41    1
    46    10    42    1
    47    11    43    1
    48    11    44    1
    49    12    45    1
    50    12    46    1
    51    13    47    1
    52    13    48    1
    53    14    49    1
    54    18    50    1
    55    19    51    1
    56    20    52    1
    57    21    53    1
    58    22    54    1
    59    23    55    1
    60    25    56    1
    61    26    57    1
    62    27    58    1
    63    28    59    1
    64    30    60    1
    65    30    61    1
    66    33    62    1
    67    34    63    1
    68    35    64    1
