@<TRIPOS>MOLECULE
*****
 13 13 0 0 0
SMALL
USER_CHARGES

@<TRIPOS>ATOM
      1 O1          1.4849    3.5718    0.0000 O.3     1  NONAME1    -0.5042
      2 C1          1.4908    2.1907   -0.0000 C.ar    1  NONAME1     0.1474
      3 C2          2.6294    1.4758   -0.0000 C.ar    1  NONAME1    -0.0162
      4 C3          2.6136    0.0312   -0.0000 C.ar    1  NONAME1    -0.0422
      5 C4          1.4479   -0.6240   -0.0000 C.ar    1  NONAME1     0.0028
      6 N1          0.2650    0.0686   -0.0000 N.ar    1  NONAME1    -0.3525
      7 C5          0.1740    1.4482   -0.0000 C.ar    1  NONAME1     0.1262
      8 S1         -1.3536    2.1413   -0.0000 S.2     1  NONAME1    -0.0290
      9 H1          2.4025    3.8871    0.0000 H       1  NONAME1     0.2923
     10 H2          3.6017    1.9555   -0.0000 H       1  NONAME1     0.0655
     11 H3          3.5585   -0.5016   -0.0000 H       1  NONAME1     0.0633
     12 H4          1.3829   -1.7072   -0.0000 H       1  NONAME1     0.0807
     13 H5         -0.6129   -0.4400   -0.0000 H       1  NONAME1     0.1659
@<TRIPOS>BOND
     1     1     2    1
     2     2     3   ar
     3     3     4   ar
     4     4     5   ar
     5     5     6   ar
     6     6     7   ar
     7     2     7   ar
     8     7     8    2
     9     1     9    1
    10     3    10    1
    11     4    11    1
    12     5    12    1
    13     6    13    1
