@<TRIPOS>MOLECULE
*****
 31 31 0 0 0
SMALL
USER_CHARGES

@<TRIPOS>ATOM
      1 C1          3.3182   -3.4926   -2.3281 C.3     1  NONAME1    -0.0476
      2 C2          4.6519   -4.2626   -2.3281 C.3     1  NONAME1     0.0297
      3 N1          4.8325   -5.3189   -1.3263 N.am    1  NONAME1    -0.2373
      4 C3          6.0354   -5.9291   -1.3542 C.2     1  NONAME1     0.1260
      5 S1          7.0492   -6.1960   -2.6812 S.2     1  NONAME1    -0.0265
      6 S2          6.4154   -6.4860    0.2902 S.3     1  NONAME1    -0.0933
      7 C4          7.8847   -7.5439    0.1280 C.3     1  NONAME1     0.0631
      8 C5          9.2141   -6.8114    0.2954 C.2     1  NONAME1     0.1733
      9 O1          9.3294   -5.6311    0.6259 O.2     1  NONAME1    -0.2912
     10 C6         10.4874   -7.6007    0.1413 C.ar    1  NONAME1     0.0185
     11 C7         11.7134   -6.9104    0.1732 C.ar    1  NONAME1    -0.0478
     12 C8         12.9375   -7.5905    0.0889 C.ar    1  NONAME1    -0.0193
     13 C9         12.9571   -8.9763   -0.0316 C.ar    1  NONAME1     0.1201
     14 O2         14.0702   -9.7669   -0.1204 O.3     1  NONAME1    -0.4951
     15 C10        15.3329   -9.1105   -0.1321 C.3     1  NONAME1     0.0788
     16 C11        11.7425   -9.6705   -0.0664 C.ar    1  NONAME1    -0.0193
     17 C12        10.5148   -8.9924    0.0158 C.ar    1  NONAME1    -0.0478
     18 H1          3.4622   -3.0342   -1.3272 H       1  NONAME1     0.0245
     19 H2          1.9845   -2.7226   -2.3281 H       1  NONAME1     0.0245
     20 H3          3.6213   -2.7603   -3.1056 H       1  NONAME1     0.0245
     21 H4          4.7268   -4.6709   -3.3462 H       1  NONAME1     0.0479
     22 H5          5.4569   -3.5148   -2.2457 H       1  NONAME1     0.0479
     23 H6          7.8711   -8.1189   -0.8013 H       1  NONAME1     0.0461
     24 H7          7.8178   -8.2636    0.9520 H       1  NONAME1     0.0461
     25 H8         11.7191   -5.8251    0.2705 H       1  NONAME1     0.0626
     26 H9         13.8491   -7.0036    0.1249 H       1  NONAME1     0.0654
     27 H10        16.1035   -9.8716   -0.2900 H       1  NONAME1     0.0660
     28 H11        15.5326   -8.6280    0.8303 H       1  NONAME1     0.0660
     29 H12        15.4046   -8.3937   -0.9566 H       1  NONAME1     0.0660
     30 H13        11.7491  -10.7552   -0.1535 H       1  NONAME1     0.0654
     31 H14         9.6036   -9.5816   -0.0061 H       1  NONAME1     0.0626
@<TRIPOS>BOND
     1     1     2    1
     2     2     3    1
     3     3     4    1
     4     4     5    2
     5     4     6    1
     6     6     7    1
     7     7     8    1
     8     8     9    2
     9     8    10    1
    10    10    11   ar
    11    11    12   ar
    12    12    13   ar
    13    13    14    1
    14    14    15    1
    15    13    16   ar
    16    16    17   ar
    17    10    17   ar
    18     1    18    1
    19     1    19    1
    20     1    20    1
    21     2    21    1
    22     2    22    1
    23     7    23    1
    24     7    24    1
    25    11    25    1
    26    12    26    1
    27    15    27    1
    28    15    28    1
    29    15    29    1
    30    16    30    1
    31    17    31    1
