@<TRIPOS>MOLECULE
*****
 51 53 0 0 0
SMALL
USER_CHARGES

@<TRIPOS>ATOM
      1 C1         -9.8972  -12.4845    0.0626 C.3     1  NONAME1    -0.0570
      2 C2         -8.5785  -13.2370    0.0982 C.3     1  NONAME1     0.0211
      3 C3         -7.3832  -12.3236   -0.1043 C.2     1  NONAME1     0.2130
      4 O1         -7.4716  -11.1563   -0.4668 O.2     1  NONAME1    -0.2758
      5 N1         -6.1778  -12.9574    0.1273 N.am    1  NONAME1    -0.3112
      6 C4         -4.9357  -12.2178    0.0344 C.3     1  NONAME1     0.0368
      7 C5         -3.6851  -13.0709   -0.0220 C.ar    1  NONAME1    -0.0303
      8 C6         -2.4286  -12.4354    0.0090 C.ar    1  NONAME1    -0.0564
      9 C7         -1.2297  -13.1638   -0.0904 C.ar    1  NONAME1    -0.0493
     10 C8         -1.2671  -14.5540   -0.2176 C.ar    1  NONAME1     0.0370
     11 C9         -0.0643  -15.4307   -0.3875 C.2     1  NONAME1     0.2483
     12 O2         -0.2558  -16.5322   -0.8979 O.2     1  NONAME1    -0.2699
     13 N2          1.1693  -14.9458    0.0177 N.am    1  NONAME1    -0.2799
     14 C10         2.4109  -15.6605    0.0382 C.ar    1  NONAME1     0.0551
     15 C11         3.5870  -14.8645    0.0388 C.ar    1  NONAME1    -0.0310
     16 C12         4.8979  -15.4040    0.0509 C.ar    1  NONAME1    -0.0160
     17 C13         6.1418  -14.5583    0.0225 C.ar    1  NONAME1    -0.0178
     18 C14         6.1040  -13.1500   -0.0066 C.ar    1  NONAME1    -0.0540
     19 C15         7.2702  -12.3689   -0.0300 C.ar    1  NONAME1    -0.0612
     20 C16         8.5214  -12.9718   -0.0237 C.ar    1  NONAME1    -0.0617
     21 C17         8.6050  -14.3548    0.0018 C.ar    1  NONAME1    -0.0612
     22 C18         7.4361  -15.1283    0.0228 C.ar    1  NONAME1    -0.0540
     23 C19         4.9700  -16.8045    0.1026 C.ar    1  NONAME1    -0.0522
     24 C20         3.8280  -17.6076    0.1418 C.ar    1  NONAME1    -0.0387
     25 C21         2.5431  -17.0629    0.0746 C.ar    1  NONAME1     0.0461
     26 N3          1.4778  -17.9484    0.3410 N.pl3   1  NONAME1    -0.3565
     27 C22        -2.5194  -15.1900   -0.2426 C.ar    1  NONAME1    -0.0493
     28 C23        -3.7102  -14.4622   -0.1558 C.ar    1  NONAME1    -0.0564
     29 H1         -9.9329  -11.7210    0.8468 H       1  NONAME1     0.0234
     30 H2        -10.0420  -11.9834   -0.9001 H       1  NONAME1     0.0234
     31 H3        -10.7337  -13.1732    0.2175 H       1  NONAME1     0.0234
     32 H4         -8.5673  -13.9922   -0.6961 H       1  NONAME1     0.0356
     33 H5         -8.4793  -13.7498    1.0611 H       1  NONAME1     0.0356
     34 H6         -6.1962  -13.7821    0.7106 H       1  NONAME1     0.1490
     35 H7         -4.8913  -11.5679    0.9161 H       1  NONAME1     0.0512
     36 H8         -4.9751  -11.5836   -0.8591 H       1  NONAME1     0.0512
     37 H9         -2.3775  -11.3494    0.0868 H       1  NONAME1     0.0621
     38 H10        -0.2964  -12.6114   -0.1032 H       1  NONAME1     0.0625
     39 H11         1.2365  -13.9672    0.2476 H       1  NONAME1     0.1552
     40 H12         3.4565  -13.7880    0.0076 H       1  NONAME1     0.0643
     41 H13         5.1624  -12.6097   -0.0124 H       1  NONAME1     0.0624
     42 H14         7.1953  -11.2850   -0.0522 H       1  NONAME1     0.0618
     43 H15         9.4253  -12.3693   -0.0405 H       1  NONAME1     0.0618
     44 H16         9.5767  -14.8432    0.0052 H       1  NONAME1     0.0618
     45 H17         7.5844  -16.2032    0.0387 H       1  NONAME1     0.0624
     46 H18         5.9175  -17.3313    0.1395 H       1  NONAME1     0.0624
     47 H19         3.9544  -18.6833    0.2391 H       1  NONAME1     0.0637
     48 H20         0.6162  -17.5965   -0.0898 H       1  NONAME1     0.1424
     49 H21         1.6520  -18.8884    0.0081 H       1  NONAME1     0.1424
     50 H22        -2.5783  -16.2728   -0.3504 H       1  NONAME1     0.0625
     51 H23        -4.6456  -15.0113   -0.2195 H       1  NONAME1     0.0621
@<TRIPOS>BOND
     1     1     2    1
     2     2     3    1
     3     3     4    2
     4     3     5   am
     5     5     6    1
     6     6     7    1
     7     7     8   ar
     8     8     9   ar
     9     9    10   ar
    10    10    11    1
    11    11    12    2
    12    11    13   am
    13    13    14    1
    14    14    15   ar
    15    15    16   ar
    16    16    17    1
    17    17    18   ar
    18    18    19   ar
    19    19    20   ar
    20    20    21   ar
    21    21    22   ar
    22    17    22   ar
    23    16    23   ar
    24    23    24   ar
    25    24    25   ar
    26    14    25   ar
    27    25    26    1
    28    10    27   ar
    29    27    28   ar
    30     7    28   ar
    31     1    29    1
    32     1    30    1
    33     1    31    1
    34     2    32    1
    35     2    33    1
    36     5    34    1
    37     6    35    1
    38     6    36    1
    39     8    37    1
    40     9    38    1
    41    13    39    1
    42    15    40    1
    43    18    41    1
    44    19    42    1
    45    20    43    1
    46    21    44    1
    47    22    45    1
    48    23    46    1
    49    24    47    1
    50    26    48    1
    51    26    49    1
    52    27    50    1
    53    28    51    1
