@<TRIPOS>MOLECULE
*****
 34 34 0 0 0
SMALL
USER_CHARGES

@<TRIPOS>ATOM
      1 C1          3.3182   -3.4926   -2.3281 C.3     1  NONAME1    -0.0476
      2 C2          4.6519   -4.2626   -2.3281 C.3     1  NONAME1     0.0297
      3 N1          4.8772   -5.3071   -1.3199 N.am    1  NONAME1    -0.2373
      4 C3          6.0901   -5.9008   -1.3827 C.2     1  NONAME1     0.1260
      5 S1          7.0801   -6.1372   -2.7346 S.2     1  NONAME1    -0.0265
      6 S2          6.5347   -6.4559    0.2472 S.3     1  NONAME1    -0.0933
      7 C4          7.9351   -7.5966    0.0160 C.3     1  NONAME1     0.0631
      8 C5          9.3117   -6.9434    0.1395 C.2     1  NONAME1     0.1733
      9 O1          9.5049   -5.7573    0.4073 O.2     1  NONAME1    -0.2912
     10 C6         10.5366   -7.8164    0.0129 C.ar    1  NONAME1     0.0184
     11 C7         11.7992   -7.2061    0.0607 C.ar    1  NONAME1    -0.0495
     12 C8         12.9755   -7.9685    0.0276 C.ar    1  NONAME1    -0.0398
     13 C9         12.9204   -9.3626   -0.0523 C.ar    1  NONAME1     0.0334
     14 N2         14.1487  -10.0591   -0.0303 N.am    1  NONAME1    -0.2857
     15 C10        14.3469  -11.4249   -0.0985 C.2     1  NONAME1     0.2141
     16 C11        15.7992  -11.8228    0.0421 C.3     1  NONAME1     0.0125
     17 O2         13.4860  -12.2824   -0.2656 O.2     1  NONAME1    -0.2758
     18 C12        11.6665   -9.9745   -0.1225 C.ar    1  NONAME1    -0.0398
     19 C13        10.4835   -9.2101   -0.0922 C.ar    1  NONAME1    -0.0495
     20 H1          3.4585   -3.0420   -1.3233 H       1  NONAME1     0.0245
     21 H2          1.9845   -2.7226   -2.3281 H       1  NONAME1     0.0245
     22 H3          3.6232   -2.7553   -3.1001 H       1  NONAME1     0.0245
     23 H4          4.7102   -4.6846   -3.3419 H       1  NONAME1     0.0479
     24 H5          5.4533   -3.5080   -2.2732 H       1  NONAME1     0.0479
     25 H6          7.8567   -8.1565   -0.9190 H       1  NONAME1     0.0461
     26 H7          7.8555   -8.3203    0.8346 H       1  NONAME1     0.0461
     27 H8         11.8750   -6.1221    0.1361 H       1  NONAME1     0.0625
     28 H9         13.9274   -7.4466    0.0777 H       1  NONAME1     0.0636
     29 H10        14.9784   -9.4820    0.0527 H       1  NONAME1     0.1548
     30 H11        15.8746  -12.6495    0.7552 H       1  NONAME1     0.0323
     31 H12        16.1821  -12.1437   -0.9305 H       1  NONAME1     0.0323
     32 H13        16.4185  -11.0018    0.4137 H       1  NONAME1     0.0323
     33 H14        11.5678  -11.0544   -0.1879 H       1  NONAME1     0.0636
     34 H15         9.5361   -9.7404   -0.1352 H       1  NONAME1     0.0625
@<TRIPOS>BOND
     1     1     2    1
     2     2     3    1
     3     3     4    1
     4     4     5    2
     5     4     6    1
     6     6     7    1
     7     7     8    1
     8     8     9    2
     9     8    10    1
    10    10    11   ar
    11    11    12   ar
    12    12    13   ar
    13    13    14    1
    14    14    15   am
    15    15    16    1
    16    15    17    2
    17    13    18   ar
    18    18    19   ar
    19    10    19   ar
    20     1    20    1
    21     1    21    1
    22     1    22    1
    23     2    23    1
    24     2    24    1
    25     7    25    1
    26     7    26    1
    27    11    27    1
    28    12    28    1
    29    14    29    1
    30    16    30    1
    31    16    31    1
    32    16    32    1
    33    18    33    1
    34    19    34    1
