@<TRIPOS>MOLECULE
*****
 61 64 0 0 0
SMALL
USER_CHARGES

@<TRIPOS>ATOM
      1 N1         -2.5177  -12.1950   -0.3203 N.1     1  NONAME1    -0.1909
      2 C1         -1.4583  -11.7274   -0.3150 C.1     1  NONAME1     0.0992
      3 C2         -0.1503  -11.1435   -0.2649 C.ar    1  NONAME1     0.0535
      4 C3         -0.0268   -9.7527   -0.1330 C.ar    1  NONAME1    -0.0442
      5 C4          1.2334   -9.1858    0.0179 C.ar    1  NONAME1    -0.0588
      6 C5          2.3548  -10.0188    0.0844 C.ar    1  NONAME1    -0.0404
      7 C6          2.2352  -11.4168   -0.0619 C.ar    1  NONAME1     0.0346
      8 N2          3.3654  -12.2195    0.2203 N.am    1  NONAME1    -0.2846
      9 C7          3.8845  -13.3168   -0.5545 C.2     1  NONAME1     0.2336
     10 O1          3.3167  -13.7429   -1.5544 O.2     1  NONAME1    -0.2743
     11 C8          5.3347  -13.8600    0.0000 C.3     1  NONAME1     0.1371
     12 C9          6.8371  -13.3036   -0.5758 C.2     1  NONAME1     0.2336
     13 O2          7.5499  -13.9173   -1.3664 O.2     1  NONAME1    -0.2743
     14 N3          7.2510  -12.0229   -0.0624 N.am    1  NONAME1    -0.2846
     15 C10         8.4690  -11.3205   -0.1665 C.ar    1  NONAME1     0.0346
     16 C11         8.3899   -9.9140   -0.0450 C.ar    1  NONAME1    -0.0404
     17 C12         9.5345   -9.1197   -0.0129 C.ar    1  NONAME1    -0.0588
     18 C13        10.7778   -9.7320   -0.0662 C.ar    1  NONAME1    -0.0442
     19 C14        10.8642  -11.1292   -0.1718 C.ar    1  NONAME1     0.0535
     20 C15        12.1559  -11.7429   -0.1637 C.1     1  NONAME1     0.0992
     21 N4         13.2067  -12.2294   -0.1380 N.1     1  NONAME1    -0.1909
     22 C16         9.7107  -11.9283   -0.2409 C.ar    1  NONAME1    -0.0231
     23 C17         5.3347  -15.4000    0.0000 C.ar    1  NONAME1    -0.0267
     24 C18         6.4918  -16.2005    0.0058 C.ar    1  NONAME1    -0.0567
     25 C19         6.4370  -17.6129   -0.0334 C.ar    1  NONAME1    -0.0493
     26 C20         5.2123  -18.2793   -0.0230 C.ar    1  NONAME1     0.0370
     27 C21         5.0365  -19.7694   -0.1450 C.2     1  NONAME1     0.2483
     28 O3          3.9254  -20.1756   -0.4766 O.2     1  NONAME1    -0.2699
     29 N5          6.1410  -20.5648    0.0960 N.am    1  NONAME1    -0.2800
     30 C22         6.2529  -21.9871    0.0541 C.ar    1  NONAME1     0.0545
     31 C23         7.5770  -22.4693   -0.0008 C.ar    1  NONAME1    -0.0387
     32 C24         7.8588  -23.8371   -0.0509 C.ar    1  NONAME1    -0.0599
     33 C25         6.8203  -24.7552   -0.0210 C.ar    1  NONAME1    -0.0599
     34 C26         5.5057  -24.2998    0.0591 C.ar    1  NONAME1    -0.0392
     35 C27         5.1953  -22.9249    0.0624 C.ar    1  NONAME1     0.0461
     36 N6          3.8584  -22.5909    0.3562 N.pl3   1  NONAME1    -0.3565
     37 C28         4.0550  -17.5047    0.0730 C.ar    1  NONAME1    -0.0493
     38 C29         4.1176  -16.1035    0.1037 C.ar    1  NONAME1    -0.0567
     39 C30         0.9814  -11.9739   -0.2680 C.ar    1  NONAME1    -0.0231
     40 H1         -0.9088   -9.1112   -0.1274 H       1  NONAME1     0.0630
     41 H2          1.3374   -8.1061    0.1108 H       1  NONAME1     0.0619
     42 H3          3.3252   -9.5477    0.2304 H       1  NONAME1     0.0636
     43 H4          3.9881  -11.7476    0.8655 H       1  NONAME1     0.1548
     44 H5          5.3347  -12.3200    0.0000 H       1  NONAME1     0.0539
     45 H6          6.5541  -11.3703    0.2670 H       1  NONAME1     0.1548
     46 H7          7.4275   -9.4069    0.0105 H       1  NONAME1     0.0636
     47 H8          9.4527   -8.0371    0.0652 H       1  NONAME1     0.0619
     48 H9         11.6769   -9.1188   -0.0142 H       1  NONAME1     0.0630
     49 H10         9.7927  -13.0102   -0.2851 H       1  NONAME1     0.0649
     50 H11         7.4883  -15.7623    0.0097 H       1  NONAME1     0.0621
     51 H12         7.3805  -18.1431   -0.1099 H       1  NONAME1     0.0625
     52 H13         7.0160  -20.0934    0.2560 H       1  NONAME1     0.1552
     53 H14         8.4171  -21.7794   -0.0193 H       1  NONAME1     0.0637
     54 H15         8.8882  -24.1816   -0.1006 H       1  NONAME1     0.0618
     55 H16         7.0265  -25.8219   -0.0344 H       1  NONAME1     0.0618
     56 H17         4.7051  -25.0322    0.1382 H       1  NONAME1     0.0636
     57 H18         3.6434  -21.6384    0.0394 H       1  NONAME1     0.1424
     58 H19         3.1870  -23.2418   -0.0340 H       1  NONAME1     0.1424
     59 H20         3.0765  -17.9832    0.1042 H       1  NONAME1     0.0625
     60 H21         3.1610  -15.5889    0.1802 H       1  NONAME1     0.0621
     61 H22         0.8690  -13.0519   -0.3287 H       1  NONAME1     0.0649
@<TRIPOS>BOND
     1     1     2    3
     2     2     3    1
     3     3     4   ar
     4     4     5   ar
     5     5     6   ar
     6     6     7   ar
     7     7     8    1
     8     8     9   am
     9     9    10    2
    10     9    11    1
    11    11    12    1
    12    12    13    2
    13    12    14   am
    14    14    15    1
    15    15    16   ar
    16    16    17   ar
    17    17    18   ar
    18    18    19   ar
    19    19    20    1
    20    20    21    3
    21    19    22   ar
    22    15    22   ar
    23    11    23    1
    24    23    24   ar
    25    24    25   ar
    26    25    26   ar
    27    26    27    1
    28    27    28    2
    29    27    29   am
    30    29    30    1
    31    30    31   ar
    32    31    32   ar
    33    32    33   ar
    34    33    34   ar
    35    34    35   ar
    36    30    35   ar
    37    35    36    1
    38    26    37   ar
    39    37    38   ar
    40    23    38   ar
    41     7    39   ar
    42     3    39   ar
    43     4    40    1
    44     5    41    1
    45     6    42    1
    46     8    43    1
    47    11    44    1
    48    14    45    1
    49    16    46    1
    50    17    47    1
    51    18    48    1
    52    22    49    1
    53    24    50    1
    54    25    51    1
    55    29    52    1
    56    31    53    1
    57    32    54    1
    58    33    55    1
    59    34    56    1
    60    36    57    1
    61    36    58    1
    62    37    59    1
    63    38    60    1
    64    39    61    1
