@<TRIPOS>MOLECULE
*****
 56 57 0 0 0
SMALL
USER_CHARGES

@<TRIPOS>ATOM
      1 O1         14.3305  -11.5173    1.4326 O.2     1  NONAME1    -0.2265
      2 C1         14.4016  -11.7674    0.2309 C.2     1  NONAME1     0.4012
      3 N1         13.2942  -11.9000   -0.5778 N.am    1  NONAME1    -0.2698
      4 C2         12.0031  -11.5500    0.0000 C.3     1  NONAME1     0.1025
      5 C3         10.5042  -12.0677   -0.0324 C.3     1  NONAME1    -0.0259
      6 C4         10.1368  -12.8434    1.3106 C.3     1  NONAME1    -0.0509
      7 C5         10.8797  -14.1895    1.5521 C.3     1  NONAME1    -0.0523
      8 C6         10.4795  -15.0063    2.7902 C.3     1  NONAME1    -0.0442
      9 C7          9.5086  -16.1560    2.5229 C.3     1  NONAME1    -0.0093
     10 S1          7.8048  -15.5951    2.2768 S.3     1  NONAME1    -0.1783
     11 C8         12.0031  -10.0100    0.0000 C.2     1  NONAME1     0.2337
     12 O2         12.8717   -9.4203   -0.6664 O.2     1  NONAME1    -0.2738
     13 N2         10.9904   -9.2565    0.5468 N.am    1  NONAME1    -0.3109
     14 C9         10.7910   -7.9103    0.0185 C.3     1  NONAME1     0.0232
     15 C10         9.5200   -7.2301    0.5062 C.3     1  NONAME1    -0.0345
     16 C11         9.7412   -5.7641    0.1402 C.3     1  NONAME1    -0.0513
     17 C12        11.2463   -5.5313    0.2455 C.3     1  NONAME1    -0.0513
     18 C13        11.8833   -6.9104    0.4032 C.3     1  NONAME1    -0.0345
     19 O3         15.5559  -11.9210   -0.4584 O.3     1  NONAME1    -0.4456
     20 C14        16.7309  -11.3849    0.1707 C.3     1  NONAME1     0.1191
     21 C15        17.9861  -12.2286    0.0221 C.ar    1  NONAME1    -0.0103
     22 C16        19.2392  -11.5852   -0.0211 C.ar    1  NONAME1    -0.0554
     23 C17        20.4321  -12.3174   -0.0577 C.ar    1  NONAME1    -0.0614
     24 C18        20.3919  -13.7032   -0.0310 C.ar    1  NONAME1    -0.0617
     25 C19        19.1589  -14.3616    0.0185 C.ar    1  NONAME1    -0.0614
     26 C20        17.9637  -13.6283    0.0526 C.ar    1  NONAME1    -0.0554
     27 H1         13.4676  -11.8516   -1.5721 H       1  NONAME1     0.1528
     28 H2         12.0031  -13.0900    0.0000 H       1  NONAME1     0.0595
     29 H3          9.7798  -11.2565   -0.1388 H       1  NONAME1     0.0288
     30 H4         10.3215  -12.7083   -0.9065 H       1  NONAME1     0.0288
     31 H5          9.0589  -13.0281    1.3044 H       1  NONAME1     0.0266
     32 H6         10.3430  -12.1814    2.1616 H       1  NONAME1     0.0266
     33 H7         10.8098  -14.8184    0.6560 H       1  NONAME1     0.0266
     34 H8         11.9446  -13.9660    1.7068 H       1  NONAME1     0.0266
     35 H9         11.4007  -15.4842    3.1585 H       1  NONAME1     0.0273
     36 H10        10.1363  -14.3607    3.6054 H       1  NONAME1     0.0273
     37 H11         9.8228  -16.7420    1.6520 H       1  NONAME1     0.0374
     38 H12         9.5120  -16.8366    3.3819 H       1  NONAME1     0.0374
     39 H13         7.2395  -16.8099    2.3432 H       1  NONAME1     0.1016
     40 H14        10.2443   -9.6939    1.0688 H       1  NONAME1     0.1490
     41 H15        10.7485   -7.9896   -1.0772 H       1  NONAME1     0.0498
     42 H16         8.6229   -7.6326    0.0222 H       1  NONAME1     0.0283
     43 H17         9.4017   -7.3392    1.5870 H       1  NONAME1     0.0283
     44 H18         9.1767   -5.0886    0.7902 H       1  NONAME1     0.0266
     45 H19         9.4151   -5.5764   -0.8905 H       1  NONAME1     0.0266
     46 H20        11.6169   -5.0262   -0.6537 H       1  NONAME1     0.0266
     47 H21        11.4965   -4.8951    1.1009 H       1  NONAME1     0.0266
     48 H22        12.7736   -6.9947   -0.2325 H       1  NONAME1     0.0283
     49 H23        12.2061   -7.0618    1.4373 H       1  NONAME1     0.0283
     50 H24        16.5921  -11.1865    1.2381 H       1  NONAME1     0.0749
     51 H25        16.9059  -10.4258   -0.3282 H       1  NONAME1     0.0749
     52 H26        19.2960  -10.4975   -0.0126 H       1  NONAME1     0.0621
     53 H27        21.3871  -11.8005   -0.0791 H       1  NONAME1     0.0618
     54 H28        21.3103  -14.2786   -0.0473 H       1  NONAME1     0.0618
     55 H29        19.1299  -15.4462    0.0518 H       1  NONAME1     0.0618
     56 H30        17.0158  -14.1601    0.1201 H       1  NONAME1     0.0621
@<TRIPOS>BOND
     1     1     2    2
     2     2     3   am
     3     4     3    1
     4     4     5    1
     5     5     6    1
     6     6     7    1
     7     7     8    1
     8     8     9    1
     9     9    10    1
    10     4    11    1
    11    11    12    2
    12    11    13   am
    13    13    14    1
    14    14    15    1
    15    15    16    1
    16    16    17    1
    17    17    18    1
    18    14    18    1
    19     2    19    1
    20    19    20    1
    21    20    21    1
    22    21    22   ar
    23    22    23   ar
    24    23    24   ar
    25    24    25   ar
    26    25    26   ar
    27    21    26   ar
    28     3    27    1
    29     4    28    1
    30     5    29    1
    31     5    30    1
    32     6    31    1
    33     6    32    1
    34     7    33    1
    35     7    34    1
    36     8    35    1
    37     8    36    1
    38     9    37    1
    39     9    38    1
    40    10    39    1
    41    13    40    1
    42    14    41    1
    43    15    42    1
    44    15    43    1
    45    16    44    1
    46    16    45    1
    47    17    46    1
    48    17    47    1
    49    18    48    1
    50    18    49    1
    51    20    50    1
    52    20    51    1
    53    22    52    1
    54    23    53    1
    55    24    54    1
    56    25    55    1
    57    26    56    1
