@<TRIPOS>MOLECULE
*****
 46 48 0 0 0
SMALL
USER_CHARGES

@<TRIPOS>ATOM
      1 O1         -0.0223  -12.0841    0.7491 O.2     1  NONAME1    -0.2755
      2 C1          0.1303  -11.0178    0.1462 C.2     1  NONAME1     0.2173
      3 C2         -1.0285  -10.0769   -0.1579 C.3     1  NONAME1     0.0246
      4 C3         -2.4160  -10.7040    0.0200 C.3     1  NONAME1    -0.0408
      5 C4         -2.7757  -11.6437   -1.1389 C.3     1  NONAME1    -0.0272
      6 C5         -4.1135  -12.3516   -1.0692 C.ar    1  NONAME1    -0.0473
      7 C6         -5.0539  -12.1513   -0.0505 C.ar    1  NONAME1    -0.0586
      8 C7         -6.2673  -12.8479   -0.0502 C.ar    1  NONAME1    -0.0615
      9 C8         -6.5599  -13.7505   -1.0700 C.ar    1  NONAME1    -0.0617
     10 C9         -5.6416  -13.9557   -2.0949 C.ar    1  NONAME1    -0.0615
     11 C10        -4.4295  -13.2618   -2.0933 C.ar    1  NONAME1    -0.0586
     12 N1          1.3504  -10.4777   -0.2321 N.am    1  NONAME1    -0.2826
     13 C11         2.6094  -11.1271   -0.1760 C.ar    1  NONAME1     0.0759
     14 C12         3.7608  -10.3092   -0.1051 C.ar    1  NONAME1    -0.0292
     15 C13         5.0734  -10.8377   -0.0088 C.ar    1  NONAME1    -0.0159
     16 C14         6.3063   -9.9742    0.0223 C.ar    1  NONAME1    -0.0178
     17 C15         6.2490   -8.5672    0.0705 C.ar    1  NONAME1    -0.0540
     18 C16         7.4028   -7.7709    0.0596 C.ar    1  NONAME1    -0.0612
     19 C17         8.6673   -8.3563    0.0179 C.ar    1  NONAME1    -0.0617
     20 C18         8.7641   -9.7418   -0.0252 C.ar    1  NONAME1    -0.0612
     21 C19         7.6063  -10.5300   -0.0285 C.ar    1  NONAME1    -0.0540
     22 C20         5.1644  -12.2426    0.0335 C.ar    1  NONAME1    -0.0505
     23 C21         4.0477  -13.0671   -0.0989 C.ar    1  NONAME1    -0.0178
     24 C22         2.7867  -12.5074   -0.2347 C.ar    1  NONAME1     0.1380
     25 O2          1.7891  -13.3853   -0.5400 O.3     1  NONAME1    -0.5049
     26 H1         -0.9405   -9.2249    0.5273 H       1  NONAME1     0.0358
     27 H2         -0.9156   -9.6932   -1.1788 H       1  NONAME1     0.0358
     28 H3         -2.4681  -11.2374    0.9760 H       1  NONAME1     0.0273
     29 H4         -3.1539   -9.8919    0.0642 H       1  NONAME1     0.0273
     30 H5         -1.9975  -12.4117   -1.2255 H       1  NONAME1     0.0313
     31 H6         -2.7632  -11.0607   -2.0699 H       1  NONAME1     0.0313
     32 H7         -4.8631  -11.4579    0.7635 H       1  NONAME1     0.0620
     33 H8         -6.9832  -12.6871    0.7518 H       1  NONAME1     0.0618
     34 H9         -7.5008  -14.2931   -1.0647 H       1  NONAME1     0.0618
     35 H10        -5.8637  -14.6592   -2.8933 H       1  NONAME1     0.0618
     36 H11        -3.7203  -13.4406   -2.8989 H       1  NONAME1     0.0620
     37 H12         1.3649   -9.4801   -0.3882 H       1  NONAME1     0.1549
     38 H13         3.6124   -9.2337   -0.1199 H       1  NONAME1     0.0643
     39 H14         5.3026   -8.0394    0.1162 H       1  NONAME1     0.0624
     40 H15         7.3170   -6.6880    0.0917 H       1  NONAME1     0.0618
     41 H16         9.5558   -7.7468    0.0093 H       1  NONAME1     0.0618
     42 H17         9.7411  -10.2156   -0.0700 H       1  NONAME1     0.0618
     43 H18         7.7651  -11.6012   -0.0827 H       1  NONAME1     0.0624
     44 H19         6.1162  -12.7501    0.1382 H       1  NONAME1     0.0625
     45 H20         4.1677  -14.1453   -0.1343 H       1  NONAME1     0.0655
     46 H21         1.3641  -13.6132    0.3102 H       1  NONAME1     0.2922
@<TRIPOS>BOND
     1     1     2    2
     2     2     3    1
     3     3     4    1
     4     4     5    1
     5     5     6    1
     6     6     7   ar
     7     7     8   ar
     8     8     9   ar
     9     9    10   ar
    10    10    11   ar
    11     6    11   ar
    12     2    12   am
    13    12    13    1
    14    13    14   ar
    15    14    15   ar
    16    15    16    1
    17    16    17   ar
    18    17    18   ar
    19    18    19   ar
    20    19    20   ar
    21    20    21   ar
    22    16    21   ar
    23    15    22   ar
    24    22    23   ar
    25    23    24   ar
    26    13    24   ar
    27    24    25    1
    28     3    26    1
    29     3    27    1
    30     4    28    1
    31     4    29    1
    32     5    30    1
    33     5    31    1
    34     7    32    1
    35     8    33    1
    36     9    34    1
    37    10    35    1
    38    11    36    1
    39    12    37    1
    40    14    38    1
    41    17    39    1
    42    18    40    1
    43    19    41    1
    44    20    42    1
    45    21    43    1
    46    22    44    1
    47    23    45    1
    48    25    46    1
