REMARK  5 active torsions:
REMARK  status: ('A' for Active; 'I' for Inactive)
REMARK       I    between atoms: C2_2  and  N1_4 
REMARK    1  A    between atoms: N1_4  and  C3_5 
REMARK    2  A    between atoms: C6_8  and  C7_9 
REMARK       I    between atoms: C7_9  and  N2_11 
REMARK    3  A    between atoms: N2_11  and  C8_12 
REMARK    4  A    between atoms: C10_14  and  C11_15 
REMARK    5  A    between atoms: C17_22  and  N3_23 
ROOT
ATOM      1  C7  NON d   1       0.574  10.657   0.372  0.00  0.00     0.256 C 
ATOM      2  O2  NON d   1      -0.276  11.319   0.968  0.00  0.00    -0.267 OA
ATOM      3  N2  NON d   1       0.386   9.355  -0.062  0.00  0.00    -0.321 N 
ATOM      4  H7  NON d   1       1.201   8.824  -0.330  0.00  0.00     0.169 HD
ENDROOT
BRANCH   3   5
ATOM      5  C8  NON d   1      -0.862   8.639  -0.062  0.00  0.00     0.057 A 
ATOM      6  C9  NON d   1      -0.781   7.226  -0.061  0.00  0.00     0.043 A 
ATOM      7  C10 NON d   1      -1.929   6.401  -0.059  0.00  0.00    -0.023 A 
ATOM      8  C15 NON d   1      -3.176   7.030  -0.105  0.00  0.00     0.014 A 
ATOM      9  C16 NON d   1      -3.277   8.419  -0.148  0.00  0.00     0.026 A 
ATOM     10  C17 NON d   1      -2.144   9.241  -0.089  0.00  0.00     0.033 A 
BRANCH   7  11
ATOM     11  C11 NON d   1      -1.822   4.928  -0.018  0.00  0.00    -0.019 A 
ATOM     12  C12 NON d   1      -0.625   4.129  -0.004  0.00  0.00     0.020 A 
ATOM     13  C13 NON d   1      -0.871   2.773   0.037  0.00  0.00     0.050 A 
ATOM     14  S1  NON d   1      -2.538   2.426   0.061  0.00  0.00    -0.113 SA
ATOM     15  C14 NON d   1      -2.930   4.091   0.021  0.00  0.00     0.061 A 
ENDBRANCH   7  11
BRANCH  10  16
ATOM     16  N3  NON d   1      -2.361  10.612  -0.351  0.00  0.00    -0.301 NA
ATOM     17  H14 NON d   1      -1.628  11.171   0.099  0.00  0.00     0.124 HD
ATOM     18  H15 NON d   1      -3.264  10.938  -0.024  0.00  0.00     0.124 HD
ENDBRANCH  10  16
ENDBRANCH   3   5
BRANCH   1  19
ATOM     19  C6  NON d   1       1.885  11.335   0.121  0.00  0.00     0.032 A 
ATOM     20  C5  NON d   1       3.141  10.724   0.077  0.00  0.00     0.019 A 
ATOM     21  C4  NON d   1       4.318  11.513  -0.045  0.00  0.00     0.030 A 
ATOM     22  C3  NON d   1       4.260  12.917  -0.120  0.00  0.00     0.034 A 
ATOM     23  C19 NON d   1       2.990  13.498  -0.137  0.00  0.00     0.030 A 
ATOM     24  C18 NON d   1       1.829  12.727  -0.008  0.00  0.00     0.019 A 
BRANCH  22  25
ATOM     25  N1  NON d   1       5.472  13.684  -0.153  0.00  0.00    -0.328 N 
ATOM     26  C2  NON d   1       5.534  15.055   0.000  0.00  0.00     0.218 C 
ATOM     27  C1  NON d   1       6.868  15.825   0.000  0.00  0.00     0.117 C 
ATOM     28  O1  NON d   1       4.547  15.766   0.225  0.00  0.00    -0.274 OA
ATOM     29  H4  NON d   1       6.340  13.166  -0.174  0.00  0.00     0.169 HD
ENDBRANCH  22  25
ENDBRANCH   1  19
TORSDOF 5
