@<TRIPOS>MOLECULE

34 34 1
SMALL
USER_CHARGES
@<TRIPOS>ATOM
1	C1    -5.3347     3.0800     0.0000	C.3	1	noname	-0.0136
2	S1    -5.3347     4.6200     0.0000	S.3	1	noname	-0.1217
3	C2    -4.0010     5.3900     0.0000	C.2	1	noname	-0.0285
4	C3    -4.0010     6.9300     0.0000	C.2	1	noname	-0.0383
5	C4    -2.6674     7.7000     0.0000	C.2	1	noname	-0.0488
6	C5    -1.3337     6.9300     0.0000	C.2	1	noname	-0.0513
7	C6     0.0000     7.7000     0.0000	C.3	1	noname	0.0222
8	C7     1.3337     6.9300     0.0000	C.2	1	noname	0.1499
9	N1     1.3337     5.3900     0.0000	N.2	1	noname	-0.1757
10	O1     0.0000     4.6200     0.0000	O.3	1	noname	-0.2062
11	C8     2.6674     7.7000     0.0000	C.2	1	noname	0.1784
12	O2     2.6674     9.2400     0.0000	O.2	1	noname	-0.2552
13	N2     4.0010     6.9300     0.0000	N.3	1	noname	-0.2422
14	C9     5.3347     7.7000     0.0000	C.3	1	noname	0.0119
15	C10     6.6684     6.9300     0.0000	C.3	1	noname	0.0033
16	S2     8.0021     7.7000     0.0000	S.3	1	noname	-0.1779
17	C11    -1.3337     5.3900     0.0000	C.2	1	noname	-0.0488
18	C12    -2.6674     4.6200     0.0000	C.2	1	noname	-0.0383
19	H1    -6.8747     3.0800     0.0000	H	1	noname	0.0347
20	H2    -5.3347     1.5400     0.0000	H	1	noname	0.0347
21	H3    -3.7947     3.0800     0.0000	H	1	noname	0.0347
22	H4    -5.3347     7.7000     0.0000	H	1	noname	0.0634
23	H5    -2.6674     9.2400     0.0000	H	1	noname	0.0626
24	H6    -0.7230     9.0597     0.0000	H	1	noname	0.0384
25	H7     0.7230     9.0597     0.0000	H	1	noname	0.0384
26	H8    -0.0000     3.0800     0.0000	H	1	noname	0.2481
27	H9     4.0010     5.3900     0.0000	H	1	noname	0.1314
28	H10     4.6117     9.0597     0.0000	H	1	noname	0.0441
29	H11     6.0577     9.0597     0.0000	H	1	noname	0.0441
30	H12     5.9454     5.5703     0.0000	H	1	noname	0.0390
31	H13     7.3914     5.5703     0.0000	H	1	noname	0.0390
32	H14     9.3358     6.9300     0.0000	H	1	noname	0.1022
33	H15    -0.7073     3.9831     0.0000	H	1	noname	0.0626
34	H16    -2.6674     3.0800     0.0000	H	1	noname	0.0634
@<TRIPOS>BOND
1	1	2	1
2	2	3	1
3	3	4	2
4	4	5	1
5	5	6	2
6	6	7	1
7	7	8	1
8	8	9	2
9	9	10	1
10	8	11	1
11	11	12	2
12	11	13	1
13	13	14	1
14	14	15	1
15	15	16	1
16	6	17	1
17	17	18	2
18	3	18	1
19	1	19	1
20	1	20	1
21	1	21	1
22	4	22	1
23	5	23	1
24	7	24	1
25	7	25	1
26	10	26	1
27	13	27	1
28	14	28	1
29	14	29	1
30	15	30	1
31	15	31	1
32	16	32	1
33	17	33	1
34	18	34	1
@<TRIPOS>SUBSTRUCTURE
1	noname	1
