@<TRIPOS>MOLECULE
*****
 42 43 0 0 0
SMALL
USER_CHARGES

@<TRIPOS>ATOM
      1 O1         11.2843   -5.8768   -3.3181 O.2     1  NONAME1    -0.2737
      2 C1         10.3110   -6.1188   -2.6135 C.2     1  NONAME1     0.2354
      3 C2          9.7869   -5.1800   -1.5384 C.3     1  NONAME1     0.0259
      4 C3         10.6864   -3.9761   -1.2736 C.3     1  NONAME1    -0.0447
      5 C4         10.2904   -3.1572   -0.0325 C.3     1  NONAME1    -0.0525
      6 C5          9.0116   -2.3176   -0.1788 C.3     1  NONAME1    -0.0500
      7 C6          7.7363   -3.0658    0.2241 C.3     1  NONAME1    -0.0186
      8 C7          6.4626   -2.2795   -0.0961 C.3     1  NONAME1     0.0896
      9 O2          6.2872   -1.2219    0.8475 O.3     1  NONAME1    -0.4919
     10 C8          5.0641   -0.6045    0.8394 C.ar    1  NONAME1     0.1211
     11 C9          4.8114    0.2283    1.9299 C.ar    1  NONAME1    -0.0193
     12 C10         3.5939    0.9063    2.0415 C.ar    1  NONAME1    -0.0506
     13 C11         2.6033    0.7666    1.0575 C.ar    1  NONAME1    -0.0177
     14 C12         1.3717    1.4367    1.1512 C.ar    1  NONAME1    -0.0540
     15 C13         0.3982    1.2854    0.1615 C.ar    1  NONAME1    -0.0612
     16 C14         0.6427    0.4622   -0.9331 C.ar    1  NONAME1    -0.0612
     17 C15         1.8615   -0.2096   -1.0409 C.ar    1  NONAME1    -0.0539
     18 C16         2.8531   -0.0676   -0.0537 C.ar    1  NONAME1    -0.0144
     19 C17         4.0865   -0.7406   -0.1505 C.ar    1  NONAME1    -0.0122
     20 N1          9.5032   -7.2374   -2.7412 N.am    1  NONAME1    -0.1975
     21 O3         10.0115   -8.2600   -3.5726 O.3     1  NONAME1    -0.2952
     22 H1          8.8028   -4.8418   -1.8758 H       1  NONAME1     0.0359
     23 H2          9.6671   -5.7581   -0.6145 H       1  NONAME1     0.0359
     24 H3         11.7166   -4.3272   -1.1298 H       1  NONAME1     0.0270
     25 H4         10.7087   -3.3263   -2.1572 H       1  NONAME1     0.0270
     26 H5         11.1168   -2.4610    0.1625 H       1  NONAME1     0.0265
     27 H6         10.2257   -3.8084    0.8473 H       1  NONAME1     0.0265
     28 H7          9.1043   -1.4385    0.4722 H       1  NONAME1     0.0266
     29 H8          8.9315   -1.9391   -1.2043 H       1  NONAME1     0.0266
     30 H9          7.7751   -3.2860    1.2976 H       1  NONAME1     0.0298
     31 H10         7.6770   -4.0206   -0.3007 H       1  NONAME1     0.0298
     32 H11         6.5212   -1.8684   -1.1110 H       1  NONAME1     0.0696
     33 H12         5.6197   -2.9791   -0.0325 H       1  NONAME1     0.0696
     34 H13         5.5645    0.3498    2.7041 H       1  NONAME1     0.0654
     35 H14         3.4253    1.5451    2.9054 H       1  NONAME1     0.0625
     36 H15         1.1612    2.0840    1.9998 H       1  NONAME1     0.0624
     37 H16        -0.5499    1.8101    0.2465 H       1  NONAME1     0.0618
     38 H17        -0.1134    0.3428   -1.7050 H       1  NONAME1     0.0618
     39 H18         2.0312   -0.8480   -1.9047 H       1  NONAME1     0.0624
     40 H19         4.2615   -1.3651   -1.0208 H       1  NONAME1     0.0660
     41 H20         8.9789   -7.5663   -1.9368 H       1  NONAME1     0.1822
     42 H21         9.6808   -7.9943   -4.4513 H       1  NONAME1     0.2414
@<TRIPOS>BOND
     1     1     2    2
     2     2     3    1
     3     3     4    1
     4     4     5    1
     5     5     6    1
     6     6     7    1
     7     7     8    1
     8     8     9    1
     9     9    10    1
    10    10    11   ar
    11    11    12   ar
    12    12    13   ar
    13    13    14   ar
    14    14    15   ar
    15    15    16   ar
    16    16    17   ar
    17    17    18   ar
    18    13    18   ar
    19    18    19   ar
    20    10    19   ar
    21     2    20   am
    22    20    21    1
    23     3    22    1
    24     3    23    1
    25     4    24    1
    26     4    25    1
    27     5    26    1
    28     5    27    1
    29     6    28    1
    30     6    29    1
    31     7    30    1
    32     7    31    1
    33     8    32    1
    34     8    33    1
    35    11    34    1
    36    12    35    1
    37    14    36    1
    38    15    37    1
    39    16    38    1
    40    17    39    1
    41    19    40    1
    42    20    41    1
    43    21    42    1
