REMARK  7 active torsions:
REMARK  status: ('A' for Active; 'I' for Inactive)
REMARK       I    between atoms: C1_2  and  N1_3 
REMARK    1  A    between atoms: C1_2  and  C4_7 
REMARK    2  A    between atoms: N1_3  and  C2_4 
REMARK    3  A    between atoms: C2_4  and  C3_5 
REMARK    4  A    between atoms: C3_5  and  S1_6 
REMARK    5  A    between atoms: C4_7  and  C5_8 
REMARK    6  A    between atoms: C5_8  and  C6_9 
REMARK    7  A    between atoms: N2_18  and  O3_19 
ROOT
ATOM      1  C4  NON d   1      -3.892  -5.699   0.098  0.00  0.00     0.133 C 
ATOM      2  N2  NON d   1      -3.445  -6.913  -0.101  0.00  0.00    -0.135 NA
ENDROOT
BRANCH   1   3
ATOM      3  C1  NON d   1      -2.751  -4.697   0.443  0.00  0.00     0.268 C 
ATOM      4  O1  NON d   1      -2.964  -3.518   0.682  0.00  0.00    -0.266 OA
ATOM      5  N1  NON d   1      -1.498  -5.265   0.310  0.00  0.00    -0.355 N 
ATOM      6  H1  NON d   1      -1.536  -6.210  -0.069  0.00  0.00     0.162 HD
BRANCH   5   7
ATOM      7  C2  NON d   1      -0.298  -4.469   0.117  0.00  0.00     0.133 C 
BRANCH   7   8
ATOM      8  C3  NON d   1       0.945  -5.355   0.091  0.00  0.00     0.090 C 
BRANCH   8   9
ATOM      9  S1  NON d   1       2.456  -4.400  -0.215  0.00  0.00    -0.181 SA
ATOM     10  H6  NON d   1       3.301  -5.442  -0.181  0.00  0.00     0.101 HD
ENDBRANCH   8   9
ENDBRANCH   7   8
ENDBRANCH   5   7
ENDBRANCH   1   3
BRANCH   1  11
ATOM     11  C5  NON d   1      -5.231  -5.051  -0.186  0.00  0.00     0.106 C 
BRANCH  11  12
ATOM     12  C6  NON d   1      -6.608  -5.650   0.029  0.00  0.00    -0.049 A 
ATOM     13  C7  NON d   1      -6.943  -6.982   0.232  0.00  0.00     0.030 A 
ATOM     14  C8  NON d   1      -8.295  -7.418   0.242  0.00  0.00     0.062 A 
ATOM     15 Br1  NON d   1      -8.529  -9.325   0.383  0.00  0.00    -0.047 Br
ATOM     16  C9  NON d   1      -9.415  -6.551   0.124  0.00  0.00     0.206 A 
ATOM     17  O2  NON d   1     -10.634  -6.952   0.136  0.00  0.00    -0.286 OA
ATOM     18  C10 NON d   1      -9.034  -5.193  -0.009  0.00  0.00     0.062 A 
ATOM     19 Br2  NON d   1     -10.344  -3.790  -0.135  0.00  0.00    -0.047 Br
ATOM     20  C11 NON d   1      -7.691  -4.762  -0.066  0.00  0.00     0.030 A 
ENDBRANCH  11  12
ENDBRANCH   1  11
BRANCH   2  21
ATOM     21  O3  NON d   1      -4.337  -7.735  -0.766  0.00  0.00    -0.266 OA
ATOM     22  H11 NON d   1      -4.007  -8.631  -0.562  0.00  0.00     0.247 HD
ENDBRANCH   2  21
TORSDOF 7
