@<TRIPOS>MOLECULE
*****
 61 64 0 0 0
SMALL
USER_CHARGES

@<TRIPOS>ATOM
      1 N1        -13.4089  -20.0794   -0.1442 N.2     1  NONAME1     0.0682
      2 N2        -12.4046  -19.5390   -0.0742 N.2     1  NONAME1    -0.1616
      3 N3        -11.3019  -18.9622    0.0057 N.2     1  NONAME1    -0.0720
      4 C1        -11.3248  -17.5517   -0.0096 C.ar    1  NONAME1     0.1005
      5 C2        -12.4942  -16.7734   -0.0171 C.ar    1  NONAME1    -0.0335
      6 C3        -12.4243  -15.3799   -0.0255 C.ar    1  NONAME1    -0.0593
      7 C4        -11.1841  -14.7474   -0.0257 C.ar    1  NONAME1    -0.0552
      8 C5         -9.9919  -15.4898   -0.0170 C.ar    1  NONAME1    -0.0082
      9 C6         -8.6891  -14.7117   -0.0194 C.3     1  NONAME1     0.1192
     10 O1         -7.4832  -15.4924   -0.0261 O.3     1  NONAME1    -0.4456
     11 C7         -6.3800  -14.6913   -0.1168 C.2     1  NONAME1     0.4008
     12 O2         -6.4123  -13.4693   -0.1877 O.2     1  NONAME1    -0.2265
     13 N4         -5.2197  -15.4219   -0.0896 N.am    1  NONAME1    -0.2770
     14 C8         -3.9508  -14.7234   -0.0079 C.3     1  NONAME1     0.0400
     15 C9         -2.6777  -15.5474   -0.0221 C.ar    1  NONAME1    -0.0302
     16 C10        -1.4394  -14.8670    0.0135 C.ar    1  NONAME1    -0.0564
     17 C11        -0.2090  -15.5505    0.0836 C.ar    1  NONAME1    -0.0493
     18 C12        -0.1927  -16.9438    0.1217 C.ar    1  NONAME1     0.0370
     19 C13         1.0366  -17.7804    0.3111 C.2     1  NONAME1     0.2483
     20 O3          0.8618  -18.8875    0.8204 O.2     1  NONAME1    -0.2699
     21 N5          2.2730  -17.2662   -0.0607 N.am    1  NONAME1    -0.2799
     22 C14         3.5338  -17.9598   -0.0505 C.ar    1  NONAME1     0.0551
     23 C15         4.7059  -17.1520   -0.0394 C.ar    1  NONAME1    -0.0310
     24 C16         6.0251  -17.6820   -0.0175 C.ar    1  NONAME1    -0.0160
     25 C17         7.2723  -16.8371    0.0031 C.ar    1  NONAME1    -0.0178
     26 C18         7.2386  -15.4292    0.0275 C.ar    1  NONAME1    -0.0540
     27 C19         8.4093  -14.6525    0.0336 C.ar    1  NONAME1    -0.0612
     28 C20         9.6593  -15.2570    0.0180 C.ar    1  NONAME1    -0.0617
     29 C21         9.7395  -16.6395   -0.0008 C.ar    1  NONAME1    -0.0612
     30 C22         8.5667  -17.4079   -0.0079 C.ar    1  NONAME1    -0.0540
     31 C23         6.1102  -19.0826   -0.0337 C.ar    1  NONAME1    -0.0522
     32 C24         4.9785  -19.8953   -0.0891 C.ar    1  NONAME1    -0.0387
     33 C25         3.6870  -19.3623   -0.0688 C.ar    1  NONAME1     0.0461
     34 N6          2.6458  -20.2674   -0.3625 N.pl3   1  NONAME1    -0.3565
     35 C26        -1.4226  -17.6250    0.0551 C.ar    1  NONAME1    -0.0493
     36 C27        -2.6454  -16.9417   -0.0195 C.ar    1  NONAME1    -0.0564
     37 C28       -10.0801  -16.8894   -0.0083 C.ar    1  NONAME1    -0.0271
     38 H1        -13.4818  -17.2286   -0.0147 H       1  NONAME1     0.0640
     39 H2        -13.3390  -14.7904   -0.0334 H       1  NONAME1     0.0618
     40 H3        -11.1528  -13.6584   -0.0330 H       1  NONAME1     0.0621
     41 H4         -8.6840  -14.0844    0.8819 H       1  NONAME1     0.0749
     42 H5         -8.7011  -14.0737   -0.9131 H       1  NONAME1     0.0749
     43 H6         -5.3194  -16.3879    0.1808 H       1  NONAME1     0.1523
     44 H7         -3.9713  -14.1432    0.9236 H       1  NONAME1     0.0513
     45 H8         -3.9180  -14.0117   -0.8423 H       1  NONAME1     0.0513
     46 H9         -1.4283  -13.7765    0.0129 H       1  NONAME1     0.0621
     47 H10         0.7026  -14.9665    0.1540 H       1  NONAME1     0.0625
     48 H11         2.3218  -16.2862   -0.2940 H       1  NONAME1     0.1552
     49 H12         4.5692  -16.0752   -0.0321 H       1  NONAME1     0.0643
     50 H13         6.2987  -14.8874    0.0419 H       1  NONAME1     0.0624
     51 H14         8.3394  -13.5672    0.0493 H       1  NONAME1     0.0618
     52 H15        10.5652  -14.6575    0.0205 H       1  NONAME1     0.0618
     53 H16        10.7102  -17.1313   -0.0126 H       1  NONAME1     0.0618
     54 H17         8.7161  -18.4833   -0.0254 H       1  NONAME1     0.0624
     55 H18         7.0612  -19.6038   -0.0322 H       1  NONAME1     0.0624
     56 H19         5.1187  -20.9713   -0.1645 H       1  NONAME1     0.0637
     57 H20         1.7660  -19.9293    0.0393 H       1  NONAME1     0.1424
     58 H21         2.8261  -21.2023   -0.0157 H       1  NONAME1     0.1424
     59 H22        -1.4397  -18.7146    0.0820 H       1  NONAME1     0.0625
     60 H23        -3.5549  -17.5334   -0.0556 H       1  NONAME1     0.0621
     61 H24        -9.1718  -17.4882   -0.0010 H       1  NONAME1     0.0643
@<TRIPOS>BOND
     1     1     2    2
     2     2     3    2
     3     3     4    1
     4     4     5   ar
     5     5     6   ar
     6     6     7   ar
     7     7     8   ar
     8     8     9    1
     9     9    10    1
    10    10    11    1
    11    11    12    2
    12    11    13   am
    13    13    14    1
    14    14    15    1
    15    15    16   ar
    16    16    17   ar
    17    17    18   ar
    18    18    19    1
    19    19    20    2
    20    19    21   am
    21    21    22    1
    22    22    23   ar
    23    23    24   ar
    24    24    25    1
    25    25    26   ar
    26    26    27   ar
    27    27    28   ar
    28    28    29   ar
    29    29    30   ar
    30    25    30   ar
    31    24    31   ar
    32    31    32   ar
    33    32    33   ar
    34    22    33   ar
    35    33    34    1
    36    18    35   ar
    37    35    36   ar
    38    15    36   ar
    39     8    37   ar
    40     4    37   ar
    41     5    38    1
    42     6    39    1
    43     7    40    1
    44     9    41    1
    45     9    42    1
    46    13    43    1
    47    14    44    1
    48    14    45    1
    49    16    46    1
    50    17    47    1
    51    21    48    1
    52    23    49    1
    53    26    50    1
    54    27    51    1
    55    28    52    1
    56    29    53    1
    57    30    54    1
    58    31    55    1
    59    32    56    1
    60    34    57    1
    61    34    58    1
    62    35    59    1
    63    36    60    1
    64    37    61    1
