@<TRIPOS>MOLECULE
*****
 34 36 0 0 0
SMALL
USER_CHARGES

@<TRIPOS>ATOM
      1 O1         -2.4668   -4.9545   -0.5075 O.2     1  NONAME1    -0.2693
      2 C1         -3.6039   -5.2758   -0.1810 C.2     1  NONAME1     0.2550
      3 N1         -4.6665   -4.4123    0.0453 N.am    1  NONAME1    -0.2781
      4 C2         -4.7099   -2.9955    0.0520 C.ar    1  NONAME1     0.0762
      5 C3         -6.0015   -2.4167    0.0037 C.ar    1  NONAME1    -0.0292
      6 C4         -6.2359   -1.0199   -0.0206 C.ar    1  NONAME1    -0.0159
      7 C5         -7.6162   -0.4246   -0.0340 C.ar    1  NONAME1    -0.0178
      8 C6         -8.7845   -1.2154   -0.0315 C.ar    1  NONAME1    -0.0540
      9 C7        -10.0718   -0.6564   -0.0239 C.ar    1  NONAME1    -0.0612
     10 C8        -10.2380    0.7217   -0.0194 C.ar    1  NONAME1    -0.0617
     11 C9         -9.1163    1.5380   -0.0242 C.ar    1  NONAME1    -0.0612
     12 C10        -7.8344    0.9731   -0.0310 C.ar    1  NONAME1    -0.0540
     13 C11        -5.0809   -0.2161   -0.0152 C.ar    1  NONAME1    -0.0505
     14 C12        -3.7946   -0.7595    0.0597 C.ar    1  NONAME1    -0.0178
     15 C13        -3.6137   -2.1380    0.1196 C.ar    1  NONAME1     0.1380
     16 O2         -2.3529   -2.5927    0.3526 O.3     1  NONAME1    -0.5049
     17 C14        -3.9522   -6.6980   -0.0604 C.ar    1  NONAME1     0.0742
     18 C15        -3.0663   -7.7630   -0.0536 C.ar    1  NONAME1    -0.0425
     19 C16        -3.7176   -9.0268    0.0262 C.ar    1  NONAME1    -0.0540
     20 C17        -5.0871   -8.8925    0.0764 C.ar    1  NONAME1    -0.0236
     21 S1         -5.5729   -7.2535    0.0498 S.2     1  NONAME1    -0.0921
     22 H1         -5.5589   -4.8792    0.1397 H       1  NONAME1     0.1553
     23 H2         -6.8462   -3.0980   -0.0217 H       1  NONAME1     0.0643
     24 H3         -8.7357   -2.2997   -0.0310 H       1  NONAME1     0.0624
     25 H4        -10.9428   -1.3065   -0.0201 H       1  NONAME1     0.0618
     26 H5        -11.2339    1.1566   -0.0115 H       1  NONAME1     0.0618
     27 H6         -9.2313    2.6192   -0.0187 H       1  NONAME1     0.0618
     28 H7         -7.0063    1.6755   -0.0296 H       1  NONAME1     0.0624
     29 H8         -5.1405    0.8671   -0.0401 H       1  NONAME1     0.0625
     30 H9         -2.9439   -0.0862    0.1148 H       1  NONAME1     0.0655
     31 H10        -1.7144   -1.9920   -0.0615 H       1  NONAME1     0.2922
     32 H11        -1.9912   -7.6288   -0.1111 H       1  NONAME1     0.0630
     33 H12        -3.2085   -9.9825    0.0378 H       1  NONAME1     0.0623
     34 H13        -5.8260   -9.6808    0.1282 H       1  NONAME1     0.0693
@<TRIPOS>BOND
     1     1     2    2
     2     2     3   am
     3     3     4    1
     4     4     5   ar
     5     5     6   ar
     6     6     7    1
     7     7     8   ar
     8     8     9   ar
     9     9    10   ar
    10    10    11   ar
    11    11    12   ar
    12     7    12   ar
    13     6    13   ar
    14    13    14   ar
    15    14    15   ar
    16     4    15   ar
    17    15    16    1
    18     2    17    1
    19    17    18   ar
    20    18    19   ar
    21    19    20   ar
    22    20    21   ar
    23    17    21   ar
    24     3    22    1
    25     5    23    1
    26     8    24    1
    27     9    25    1
    28    10    26    1
    29    11    27    1
    30    12    28    1
    31    13    29    1
    32    14    30    1
    33    16    31    1
    34    18    32    1
    35    19    33    1
    36    20    34    1
