@<TRIPOS>MOLECULE
*****
 54 57 0 0 0
SMALL
USER_CHARGES

@<TRIPOS>ATOM
      1 C1          0.0000    0.0000    0.0000 C.3     1  NONAME1    -0.0106
      2 S1          1.3337   -0.7700    0.0000 S.3     1  NONAME1    -0.0894
      3 C2          1.2397   -2.5341    0.0190 C.ar    1  NONAME1     0.1902
      4 N1          2.4621   -3.1361    0.0280 N.ar    1  NONAME1    -0.2071
      5 C3          2.5210   -4.4711    0.0598 C.ar    1  NONAME1     0.1239
      6 N2          3.7406   -5.1961    0.0721 N.pl3   1  NONAME1    -0.3248
      7 C4          4.9702   -4.4095   -0.0007 C.3     1  NONAME1     0.0357
      8 C5          6.2461   -5.2615    0.0191 C.ar    1  NONAME1    -0.0303
      9 C6          7.4749   -4.5877    0.1121 C.ar    1  NONAME1    -0.0564
     10 C7          8.6944   -5.2818    0.0892 C.ar    1  NONAME1    -0.0493
     11 C8          8.7455   -6.6797   -0.0267 C.ar    1  NONAME1     0.0370
     12 C9         10.1170   -7.3052   -0.1026 C.2     1  NONAME1     0.2483
     13 O1         11.0669   -6.5442   -0.2785 O.2     1  NONAME1    -0.2699
     14 N3         10.2308   -8.6822    0.0231 N.am    1  NONAME1    -0.2800
     15 C10        11.4386   -9.4439    0.0244 C.ar    1  NONAME1     0.0545
     16 C11        12.7195   -8.8834   -0.0325 C.ar    1  NONAME1    -0.0387
     17 C12        13.8628   -9.6912    0.0238 C.ar    1  NONAME1    -0.0599
     18 C13        13.7424  -11.0725    0.1415 C.ar    1  NONAME1    -0.0599
     19 C14        12.4752  -11.6502    0.1871 C.ar    1  NONAME1    -0.0392
     20 C15        11.3227  -10.8501    0.1173 C.ar    1  NONAME1     0.0461
     21 N4         10.0459  -11.4684    0.0868 N.pl3   1  NONAME1    -0.3565
     22 C16         7.5287   -7.3663   -0.1147 C.ar    1  NONAME1    -0.0493
     23 C17         6.2964   -6.6624   -0.0991 C.ar    1  NONAME1    -0.0564
     24 C18         1.3565   -5.2087    0.0578 C.ar    1  NONAME1     0.0043
     25 C19         0.1387   -4.5378    0.0351 C.ar    1  NONAME1     0.0786
     26 C20        -1.1582   -5.2551    0.0203 C.ar    1  NONAME1     0.0186
     27 C21        -1.2771   -6.6568    0.0251 C.ar    1  NONAME1    -0.0497
     28 C22        -2.5267   -7.2772    0.0141 C.ar    1  NONAME1    -0.0430
     29 C23        -3.6525   -6.4792   -0.0026 C.ar    1  NONAME1     0.0276
     30 N5         -3.6054   -5.1339   -0.0100 N.ar    1  NONAME1    -0.2626
     31 C24        -2.3726   -4.5644    0.0012 C.ar    1  NONAME1     0.0367
     32 N6          0.0729   -3.1818    0.0267 N.ar    1  NONAME1    -0.2217
     33 H1          0.4486    0.9994   -0.1441 H       1  NONAME1     0.0345
     34 H2         -1.3337    0.7700    0.0000 H       1  NONAME1     0.0345
     35 H3         -0.3502   -0.3672   -0.9824 H       1  NONAME1     0.0345
     36 H4          3.7480   -5.7977    0.8911 H       1  NONAME1     0.1478
     37 H5          5.0156   -3.7242    0.8551 H       1  NONAME1     0.0511
     38 H6          4.9814   -3.8243   -0.9285 H       1  NONAME1     0.0511
     39 H7          7.5016   -3.5011    0.1851 H       1  NONAME1     0.0621
     40 H8          9.6191   -4.7064    0.1467 H       1  NONAME1     0.0625
     41 H9          9.4102   -9.2436    0.2101 H       1  NONAME1     0.1552
     42 H10        12.8729   -7.8124   -0.1055 H       1  NONAME1     0.0637
     43 H11        14.8477   -9.2305   -0.0166 H       1  NONAME1     0.0618
     44 H12        14.6332  -11.6934    0.1915 H       1  NONAME1     0.0618
     45 H13        12.3992  -12.7308    0.2667 H       1  NONAME1     0.0636
     46 H14         9.5855  -11.2438   -0.7933 H       1  NONAME1     0.1424
     47 H15        10.1184  -12.4794    0.1810 H       1  NONAME1     0.1424
     48 H16         7.4987   -8.4455   -0.2293 H       1  NONAME1     0.0625
     49 H17         5.3760   -7.2334   -0.2048 H       1  NONAME1     0.0621
     50 H18         1.4264   -6.2875    0.0507 H       1  NONAME1     0.0673
     51 H19        -0.4073   -7.3056    0.0358 H       1  NONAME1     0.0625
     52 H20        -2.6126   -8.3588    0.0178 H       1  NONAME1     0.0633
     53 H21        -4.6482   -6.9120   -0.0115 H       1  NONAME1     0.0829
     54 H22        -2.3974   -3.4748   -0.0081 H       1  NONAME1     0.0836
@<TRIPOS>BOND
     1     1     2    1
     2     2     3    1
     3     3     4   ar
     4     4     5   ar
     5     5     6    1
     6     6     7    1
     7     7     8    1
     8     8     9   ar
     9     9    10   ar
    10    10    11   ar
    11    11    12    1
    12    12    13    2
    13    12    14   am
    14    14    15    1
    15    15    16   ar
    16    16    17   ar
    17    17    18   ar
    18    18    19   ar
    19    19    20   ar
    20    15    20   ar
    21    20    21    1
    22    11    22   ar
    23    22    23   ar
    24     8    23   ar
    25     5    24   ar
    26    24    25   ar
    27    25    26    1
    28    26    27   ar
    29    27    28   ar
    30    28    29   ar
    31    29    30   ar
    32    30    31   ar
    33    26    31   ar
    34    25    32   ar
    35     3    32   ar
    36     1    33    1
    37     1    34    1
    38     1    35    1
    39     6    36    1
    40     7    37    1
    41     7    38    1
    42     9    39    1
    43    10    40    1
    44    14    41    1
    45    16    42    1
    46    17    43    1
    47    18    44    1
    48    19    45    1
    49    21    46    1
    50    21    47    1
    51    22    48    1
    52    23    49    1
    53    24    50    1
    54    27    51    1
    55    28    52    1
    56    29    53    1
    57    31    54    1
