@<TRIPOS>MOLECULE
*****
 41 42 0 0 0
SMALL
USER_CHARGES

@<TRIPOS>ATOM
      1 C1         14.3513  -11.8275    2.5195 C.3     1  NONAME1    -0.0558
      2 C2         13.4773  -10.5858    2.4925 C.3     1  NONAME1    -0.0036
      3 S1         13.7141   -9.6075    0.9900 S.3     1  NONAME1    -0.1113
      4 C3         15.2023   -8.6745    1.2171 C.2     1  NONAME1     0.0854
      5 S2         15.9979   -8.4439    2.6725 S.2     1  NONAME1    -0.0372
      6 S3         15.6030   -7.8774   -0.3155 S.3     1  NONAME1    -0.1030
      7 C4         17.1639   -7.0192   -0.0227 C.3     1  NONAME1     0.0628
      8 C5         18.3856   -7.9354   -0.0129 C.2     1  NONAME1     0.1798
      9 O1         18.2790   -9.1615   -0.0581 O.2     1  NONAME1    -0.2906
     10 C6         19.6784   -7.2471    0.0488 C.ar    1  NONAME1     0.0561
     11 C7         19.9557   -5.8933    0.1085 C.ar    1  NONAME1    -0.0434
     12 C8         21.3545   -5.6258    0.1521 C.ar    1  NONAME1    -0.0418
     13 C9         22.1203   -6.7751    0.1289 C.ar    1  NONAME1     0.0745
     14 C10        23.5759   -6.8401    0.1718 C.2     1  NONAME1     0.2510
     15 O2         24.2771   -5.8343    0.2539 O.2     1  NONAME1    -0.2696
     16 N1         24.1297   -8.1022    0.0889 N.am    1  NONAME1    -0.3068
     17 C11        25.5591   -8.2549   -0.0256 C.3     1  NONAME1     0.0372
     18 C12        26.0958   -9.6672    0.0034 C.ar    1  NONAME1    -0.0303
     19 C13        27.4945   -9.8273   -0.0007 C.ar    1  NONAME1    -0.0571
     20 C14        28.0822  -11.0951   -0.0011 C.ar    1  NONAME1    -0.0615
     21 C15        27.2776  -12.2295    0.0003 C.ar    1  NONAME1    -0.0617
     22 C16        25.8914  -12.0938    0.0047 C.ar    1  NONAME1    -0.0615
     23 C17        25.3036  -10.8233    0.0077 C.ar    1  NONAME1    -0.0571
     24 S4         21.1277   -8.1675    0.0446 S.2     1  NONAME1    -0.0808
     25 H1         14.0110  -12.4989    3.3158 H       1  NONAME1     0.0238
     26 H2         15.3977  -11.5839    2.7215 H       1  NONAME1     0.0238
     27 H3         14.2987  -12.3836    1.5775 H       1  NONAME1     0.0238
     28 H4         13.5985   -9.9865    3.3993 H       1  NONAME1     0.0377
     29 H5         12.4297  -10.9080    2.4828 H       1  NONAME1     0.0377
     30 H6         17.1250   -6.4243    0.8940 H       1  NONAME1     0.0461
     31 H7         17.2785   -6.3240   -0.8617 H       1  NONAME1     0.0461
     32 H8         19.2058   -5.1110    0.1214 H       1  NONAME1     0.0630
     33 H9         21.7906   -4.6334    0.2020 H       1  NONAME1     0.0631
     34 H10        23.5095   -8.8600   -0.1559 H       1  NONAME1     0.1494
     35 H11        25.8568   -7.7859   -0.9712 H       1  NONAME1     0.0512
     36 H12        26.0180   -7.6850    0.7919 H       1  NONAME1     0.0512
     37 H13        28.1435   -8.9519   -0.0052 H       1  NONAME1     0.0621
     38 H14        29.1646  -11.1941   -0.0027 H       1  NONAME1     0.0618
     39 H15        27.7286  -13.2178   -0.0015 H       1  NONAME1     0.0618
     40 H16        25.2616  -12.9804    0.0044 H       1  NONAME1     0.0618
     41 H17        24.2199  -10.7733    0.0117 H       1  NONAME1     0.0621
@<TRIPOS>BOND
     1     1     2    1
     2     2     3    1
     3     3     4    1
     4     4     5    2
     5     4     6    1
     6     6     7    1
     7     7     8    1
     8     8     9    2
     9     8    10    1
    10    10    11   ar
    11    11    12   ar
    12    12    13   ar
    13    13    14    1
    14    14    15    2
    15    14    16   am
    16    16    17    1
    17    17    18    1
    18    18    19   ar
    19    19    20   ar
    20    20    21   ar
    21    21    22   ar
    22    22    23   ar
    23    18    23   ar
    24    13    24   ar
    25    10    24   ar
    26     1    25    1
    27     1    26    1
    28     1    27    1
    29     2    28    1
    30     2    29    1
    31     7    30    1
    32     7    31    1
    33    11    32    1
    34    12    33    1
    35    16    34    1
    36    17    35    1
    37    17    36    1
    38    19    37    1
    39    20    38    1
    40    21    39    1
    41    22    40    1
    42    23    41    1
