@<TRIPOS>MOLECULE
*****
 35 36 0 0 0
SMALL
USER_CHARGES

@<TRIPOS>ATOM
      1 C1          4.2002   17.3650    0.0000 C.3     1  NONAME1     0.0788
      2 O1          4.2002   15.8250    0.0000 O.3     1  NONAME1    -0.4951
      3 C2          2.9693   15.2379   -0.0277 C.ar    1  NONAME1     0.1201
      4 C3          2.9804   13.8385   -0.0319 C.ar    1  NONAME1    -0.0196
      5 C4          1.7892   13.0991   -0.0441 C.ar    1  NONAME1    -0.0536
      6 C5          0.5565   13.7548   -0.0477 C.ar    1  NONAME1    -0.0301
      7 C6         -0.7888   13.0672   -0.0329 C.3     1  NONAME1     0.0372
      8 N1         -0.8027   11.6210   -0.1312 N.am    1  NONAME1    -0.3068
      9 C7         -2.0266   11.0064   -0.3757 C.2     1  NONAME1     0.2510
     10 O2         -3.0154   11.6817   -0.6595 O.2     1  NONAME1    -0.2696
     11 C8         -2.0624    9.5532   -0.2415 C.ar    1  NONAME1     0.0745
     12 C9         -1.0482    8.6179   -0.1533 C.ar    1  NONAME1    -0.0418
     13 C10        -1.5431    7.2760   -0.0525 C.ar    1  NONAME1    -0.0431
     14 C11        -2.9245    7.2148   -0.0563 C.ar    1  NONAME1     0.0643
     15 C12        -3.8306    6.0637    0.0288 C.2     1  NONAME1     0.2720
     16 O3         -5.0602    6.1754    0.0015 O.2     1  NONAME1    -0.2820
     17 C13        -3.1682    4.6922    0.1458 C.3     1  NONAME1     0.4559
     18 F1         -2.4376    4.3749   -0.9619 F       1  NONAME1    -0.1630
     19 F2         -4.0552    3.6730    0.3197 F       1  NONAME1    -0.1630
     20 F3         -2.3015    4.6196    1.1977 F       1  NONAME1    -0.1630
     21 S1         -3.5973    8.7837   -0.1941 S.2     1  NONAME1    -0.0805
     22 C14         0.5605   15.1654   -0.0498 C.ar    1  NONAME1    -0.0536
     23 C15         1.7525   15.9030   -0.0436 C.ar    1  NONAME1    -0.0196
     24 H1          5.2222   17.4267   -0.4135 H       1  NONAME1     0.0660
     25 H2          4.2002   18.9050    0.0000 H       1  NONAME1     0.0660
     26 H3          4.2734   17.4342    1.1012 H       1  NONAME1     0.0660
     27 H4          3.9345   13.3150   -0.0250 H       1  NONAME1     0.0654
     28 H5          1.8578   12.0163   -0.0555 H       1  NONAME1     0.0622
     29 H6         -1.3858   13.4702   -0.8603 H       1  NONAME1     0.0512
     30 H7         -1.2977   13.3194    0.9058 H       1  NONAME1     0.0512
     31 H8         -0.1121   11.0989    0.3841 H       1  NONAME1     0.1494
     32 H9          0.0066    8.8633   -0.1817 H       1  NONAME1     0.0631
     33 H10        -0.8920    6.4097    0.0154 H       1  NONAME1     0.0630
     34 H11        -0.3852   15.7064   -0.0586 H       1  NONAME1     0.0622
     35 H12         1.6913   16.9855   -0.0469 H       1  NONAME1     0.0654
@<TRIPOS>BOND
     1     1     2    1
     2     2     3    1
     3     3     4   ar
     4     4     5   ar
     5     5     6   ar
     6     6     7    1
     7     7     8    1
     8     8     9   am
     9     9    10    2
    10     9    11    1
    11    11    12   ar
    12    12    13   ar
    13    13    14   ar
    14    14    15    1
    15    15    16    2
    16    15    17    1
    17    17    18    1
    18    17    19    1
    19    17    20    1
    20    14    21   ar
    21    11    21   ar
    22     6    22   ar
    23    22    23   ar
    24     3    23   ar
    25     1    24    1
    26     1    25    1
    27     1    26    1
    28     4    27    1
    29     5    28    1
    30     7    29    1
    31     7    30    1
    32     8    31    1
    33    12    32    1
    34    13    33    1
    35    22    34    1
    36    23    35    1
