@<TRIPOS>MOLECULE
*****
 64 67 0 0 0
SMALL
USER_CHARGES

@<TRIPOS>ATOM
      1 N1         -6.1236  -10.2494   -0.0502 N.pl3   1  NONAME1    -0.3565
      2 C1         -6.2590  -11.6647   -0.0066 C.ar    1  NONAME1     0.0461
      3 C2         -7.5332  -12.2474    0.0103 C.ar    1  NONAME1    -0.0392
      4 C3         -7.6645  -13.6359   -0.0452 C.ar    1  NONAME1    -0.0599
      5 C4         -6.5290  -14.4425   -0.1416 C.ar    1  NONAME1    -0.0599
      6 C5         -5.2577  -13.8674   -0.1719 C.ar    1  NONAME1    -0.0387
      7 C6         -5.1093  -12.4825   -0.1095 C.ar    1  NONAME1     0.0545
      8 N2         -3.8615  -11.8123   -0.0997 N.am    1  NONAME1    -0.2800
      9 C7         -2.6071  -12.3668   -0.2467 C.2     1  NONAME1     0.2483
     10 O1         -2.3693  -13.5381   -0.5187 O.2     1  NONAME1    -0.2699
     11 C8         -1.4303  -11.4470   -0.0708 C.ar    1  NONAME1     0.0370
     12 C9         -0.1573  -11.9412   -0.3994 C.ar    1  NONAME1    -0.0492
     13 C10         0.9946  -11.1671   -0.2125 C.ar    1  NONAME1    -0.0528
     14 C11         0.9048   -9.8790    0.3304 C.ar    1  NONAME1    -0.0029
     15 C12         2.1435   -9.0869    0.6536 C.3     1  NONAME1    -0.0055
     16 N3          2.5485   -7.9657   -0.2867 N.4     1  NONAME1     0.2434
     17 C13         3.8675   -7.3647    0.1835 C.3     1  NONAME1    -0.0075
     18 C14         4.8552   -7.1748   -0.9686 C.3     1  NONAME1     0.0841
     19 O2          6.0880   -6.7357   -0.4214 O.3     1  NONAME1    -0.3898
     20 C15         1.5169   -6.8725   -0.5031 C.3     1  NONAME1    -0.0055
     21 C16         0.4621   -7.1160   -1.5509 C.ar    1  NONAME1    -0.0029
     22 C17        -0.7804   -6.4776   -1.4333 C.ar    1  NONAME1    -0.0530
     23 C18        -1.7822   -6.6475   -2.4049 C.ar    1  NONAME1    -0.0536
     24 C19        -1.5893   -7.4431   -3.5490 C.ar    1  NONAME1    -0.0179
     25 C20        -2.6533   -7.6432   -4.5856 C.ar    1  NONAME1    -0.0179
     26 C21        -3.8427   -6.8882   -4.6056 C.ar    1  NONAME1    -0.0540
     27 C22        -4.8355   -7.0797   -5.5809 C.ar    1  NONAME1    -0.0612
     28 C23        -4.6627   -8.0304   -6.5774 C.ar    1  NONAME1    -0.0617
     29 C24        -3.5033   -8.7902   -6.5960 C.ar    1  NONAME1    -0.0612
     30 C25        -2.5231   -8.6034   -5.6120 C.ar    1  NONAME1    -0.0540
     31 C26        -0.3201   -8.0369   -3.6637 C.ar    1  NONAME1    -0.0536
     32 C27         0.6860   -7.8757   -2.6993 C.ar    1  NONAME1    -0.0530
     33 C28        -0.3666   -9.3922    0.6706 C.ar    1  NONAME1    -0.0528
     34 C29        -1.5218  -10.1581    0.4609 C.ar    1  NONAME1    -0.0492
     35 H1         -7.0166   -9.7935    0.1286 H       1  NONAME1     0.1424
     36 H2         -5.7919   -9.9786   -0.9751 H       1  NONAME1     0.1424
     37 H3         -8.4242  -11.6340    0.0734 H       1  NONAME1     0.0636
     38 H4         -8.6515  -14.0900   -0.0201 H       1  NONAME1     0.0618
     39 H5         -6.6342  -15.5241   -0.1871 H       1  NONAME1     0.0618
     40 H6         -4.4017  -14.5310   -0.2366 H       1  NONAME1     0.0637
     41 H7         -3.9777  -10.8194    0.0499 H       1  NONAME1     0.1552
     42 H8         -0.0564  -12.9593   -0.7790 H       1  NONAME1     0.0625
     43 H9          1.9549  -11.6208   -0.4522 H       1  NONAME1     0.0622
     44 H10         2.0696   -8.6600    1.6608 H       1  NONAME1     0.0867
     45 H11         2.9976   -9.7780    0.6569 H       1  NONAME1     0.0867
     46 H12         2.7129   -8.4222   -1.1866 H       1  NONAME1     0.2041
     47 H13         3.6613   -6.4136    0.6905 H       1  NONAME1     0.0837
     48 H14         4.3103   -8.0250    0.9383 H       1  NONAME1     0.0837
     49 H15         5.0324   -8.1260   -1.4817 H       1  NONAME1     0.0610
     50 H16         4.4930   -6.4461   -1.7002 H       1  NONAME1     0.0610
     51 H17         6.3497   -5.8939   -0.8394 H       1  NONAME1     0.2096
     52 H18         2.0615   -5.9720   -0.8143 H       1  NONAME1     0.0867
     53 H19         1.0717   -6.6677    0.4779 H       1  NONAME1     0.0867
     54 H20        -0.9996   -5.8277   -0.5861 H       1  NONAME1     0.0622
     55 H21        -2.7237   -6.1307   -2.2343 H       1  NONAME1     0.0624
     56 H22        -4.0390   -6.1159   -3.8668 H       1  NONAME1     0.0624
     57 H23        -5.7383   -6.4786   -5.5563 H       1  NONAME1     0.0618
     58 H24        -5.4230   -8.1727   -7.3384 H       1  NONAME1     0.0618
     59 H25        -3.3526   -9.5352   -7.3739 H       1  NONAME1     0.0618
     60 H26        -1.6539   -9.2489   -5.6815 H       1  NONAME1     0.0624
     61 H27        -0.0649   -8.6430   -4.5293 H       1  NONAME1     0.0624
     62 H28         1.6331   -8.3649   -2.9026 H       1  NONAME1     0.0622
     63 H29        -0.4857   -8.4142    1.1330 H       1  NONAME1     0.0622
     64 H30        -2.4721   -9.7290    0.7642 H       1  NONAME1     0.0625
@<TRIPOS>BOND
     1     1     2    1
     2     2     3   ar
     3     3     4   ar
     4     4     5   ar
     5     5     6   ar
     6     6     7   ar
     7     2     7   ar
     8     7     8    1
     9     8     9   am
    10     9    10    2
    11     9    11    1
    12    11    12   ar
    13    12    13   ar
    14    13    14   ar
    15    14    15    1
    16    15    16    1
    17    16    17    1
    18    17    18    1
    19    18    19    1
    20    16    20    1
    21    20    21    1
    22    21    22   ar
    23    22    23   ar
    24    23    24   ar
    25    24    25    1
    26    25    26   ar
    27    26    27   ar
    28    27    28   ar
    29    28    29   ar
    30    29    30   ar
    31    25    30   ar
    32    24    31   ar
    33    31    32   ar
    34    21    32   ar
    35    14    33   ar
    36    33    34   ar
    37    11    34   ar
    38     1    35    1
    39     1    36    1
    40     3    37    1
    41     4    38    1
    42     5    39    1
    43     6    40    1
    44     8    41    1
    45    12    42    1
    46    13    43    1
    47    15    44    1
    48    15    45    1
    49    16    46    1
    50    17    47    1
    51    17    48    1
    52    18    49    1
    53    18    50    1
    54    19    51    1
    55    20    52    1
    56    20    53    1
    57    22    54    1
    58    23    55    1
    59    26    56    1
    60    27    57    1
    61    28    58    1
    62    29    59    1
    63    30    60    1
    64    31    61    1
    65    32    62    1
    66    33    63    1
    67    34    64    1
