REMARK  3 active torsions:
REMARK  status: ('A' for Active; 'I' for Inactive)
REMARK    1  A    between atoms: C1_2  and  C2_3 
REMARK    2  A    between atoms: C1_2  and  C14_18 
REMARK    3  A    between atoms: C5_6  and  C6_7 
ROOT
ATOM      1  C2  NON d   1      -1.551  -4.790  -0.010  0.00  0.00     0.060 A 
ATOM      2  C3  NON d   1      -2.087  -3.519  -0.029  0.00  0.00     0.024 A 
ATOM      3  C4  NON d   1      -1.087  -2.504  -0.050  0.00  0.00     0.021 A 
ATOM      4  C5  NON d   1       0.205  -3.008  -0.052  0.00  0.00     0.016 A 
ATOM      5  S1  NON d   1       0.150  -4.728  -0.043  0.00  0.00    -0.086 SA
ENDROOT
BRANCH   4   6
ATOM      6  C6  NON d   1       1.495  -2.277  -0.057  0.00  0.00    -0.017 A 
ATOM      7  C7  NON d   1       1.512  -0.876  -0.078  0.00  0.00     0.015 A 
ATOM      8  C8  NON d   1       2.720  -0.171  -0.071  0.00  0.00     0.035 A 
ATOM      9  C9  NON d   1       3.937  -0.829  -0.044  0.00  0.00     0.085 A 
ATOM     10  N1  NON d   1       5.077  -0.115  -0.033  0.00  0.00    -0.257 NA
ATOM     11  C12 NON d   1       3.949  -2.242  -0.025  0.00  0.00     0.086 A 
ATOM     12  C10 NON d   1       6.227  -0.822  -0.004  0.00  0.00     0.136 A 
ATOM     13  C11 NON d   1       6.243  -2.200   0.013  0.00  0.00     0.136 A 
ATOM     14  N2  NON d   1       5.108  -2.931   0.002  0.00  0.00    -0.257 NA
ATOM     15  C13 NON d   1       2.740  -2.931  -0.034  0.00  0.00     0.046 A 
ENDBRANCH   4   6
BRANCH   1  16
ATOM     16  C1  NON d   1      -2.303  -6.043   0.028  0.00  0.00     0.272 C 
ATOM     17  O1  NON d   1      -3.540  -6.031  -0.013  0.00  0.00    -0.282 OA
BRANCH  16  18
ATOM     18  C14 NON d   1      -1.531  -7.363   0.120  0.00  0.00     0.456 C 
ATOM     19  F1  NON d   1      -0.747  -7.593  -0.971  0.00  0.00    -0.163 F 
ATOM     20  F2  NON d   1      -2.353  -8.448   0.220  0.00  0.00    -0.163 F 
ATOM     21  F3  NON d   1      -0.711  -7.423   1.208  0.00  0.00    -0.163 F 
ENDBRANCH  16  18
ENDBRANCH   1  16
TORSDOF 3
