REMARK  4 active torsions:
REMARK  status: ('A' for Active; 'I' for Inactive)
REMARK    1  A    between atoms: C1_2  and  C2_3 
REMARK       I    between atoms: C1_2  and  N2_21 
REMARK    2  A    between atoms: C3_4  and  C4_5 
REMARK       I    between atoms: N1_12  and  C11_13 
REMARK    3  A    between atoms: C11_13  and  C12_15 
REMARK    4  A    between atoms: N2_21  and  O3_22 
ROOT
ATOM      1  C4  NON d   1       6.226   3.298   0.039  0.00  0.00    -0.035 A 
ATOM      2  C5  NON d   1       6.193   1.898   0.231  0.00  0.00     0.012 A 
ATOM      3  C6  NON d   1       4.988   1.192   0.278  0.00  0.00     0.010 A 
ATOM      4  C7  NON d   1       3.811   1.901   0.142  0.00  0.00    -0.032 A 
ATOM      5  C8  NON d   1       3.816   3.283  -0.058  0.00  0.00    -0.032 A 
ATOM      6  C9  NON d   1       5.009   3.991  -0.105  0.00  0.00     0.021 A 
ATOM      7  C10 NON d   1       2.408   3.779  -0.194  0.00  0.00     0.165 A 
ATOM      8  N1  NON d   1       1.593   2.572  -0.015  0.00  0.00    -0.343 N 
ATOM      9  C11 NON d   1       0.220   2.652  -0.028  0.00  0.00     0.224 C 
ATOM     10  O2  NON d   1      -0.337   3.730  -0.252  0.00  0.00    -0.273 OA
ATOM     11  C17 NON d   1       2.413   1.379   0.154  0.00  0.00     0.165 A 
ENDROOT
BRANCH   1  12
ATOM     12  C3  NON d   1       7.490   4.063   0.030  0.00  0.00     0.017 C 
ATOM     13  C2  NON d   1       8.719   3.530  -0.074  0.00  0.00     0.077 C 
BRANCH  13  14
ATOM     14  C1  NON d   1       9.928   4.389  -0.028  0.00  0.00     0.264 C 
ATOM     15  O1  NON d   1       9.899   5.598   0.171  0.00  0.00    -0.266 OA
ATOM     16  N2  NON d   1      11.092   3.690  -0.213  0.00  0.00    -0.234 N 
ATOM     17  H19 NON d   1      11.173   2.690  -0.344  0.00  0.00     0.197 HD
BRANCH  16  18
ATOM     18  O3  NON d   1      12.296   4.421  -0.115  0.00  0.00    -0.287 OA
ATOM     19  H20 NON d   1      11.976   5.325   0.097  0.00  0.00     0.244 HD
ENDBRANCH  16  18
ENDBRANCH  13  14
ENDBRANCH   1  12
BRANCH   9  20
ATOM     20  C12 NON d   1      -0.596   1.412   0.365  0.00  0.00     0.078 C 
ATOM     21  C13 NON d   1      -0.364   0.136  -0.436  0.00  0.00     0.014 C 
ATOM     22  C14 NON d   1      -1.595  -0.716  -0.159  0.00  0.00     0.001 C 
ATOM     23  C15 NON d   1      -2.735   0.263   0.081  0.00  0.00     0.001 C 
ATOM     24  C16 NON d   1      -2.098   1.646   0.145  0.00  0.00     0.014 C 
ENDBRANCH   9  20
TORSDOF 4
