REMARK  12 active torsions:
REMARK  status: ('A' for Active; 'I' for Inactive)
REMARK    1  A    between atoms: N1_2  and  C2_3 
REMARK    2  A    between atoms: N1_2  and  C9_11 
REMARK    3  A    between atoms: C2_3  and  C3_4 
REMARK    4  A    between atoms: C12_14  and  O1_15 
REMARK    5  A    between atoms: O1_15  and  C13_16 
REMARK    6  A    between atoms: C13_16  and  C14_17 
REMARK    7  A    between atoms: C14_17  and  C15_18 
REMARK    8  A    between atoms: C15_18  and  C16_19 
REMARK    9  A    between atoms: C16_19  and  C17_20 
REMARK   10  A    between atoms: C17_20  and  C18_21 
REMARK   11  A    between atoms: C18_21  and  C19_22 
REMARK       I    between atoms: C19_22  and  N2_24 
REMARK   12  A    between atoms: N2_24  and  O3_25 
ROOT
ATOM      1  C9  NON d   1      -2.766   6.263   0.102  0.00  0.00     0.030 A 
ATOM      2  C10 NON d   1      -1.557   6.957   0.282  0.00  0.00     0.032 A 
ATOM      3  C11 NON d   1      -0.303   6.326   0.256  0.00  0.00     0.039 A 
ATOM      4  C12 NON d   1      -0.208   4.950   0.085  0.00  0.00     0.068 A 
ATOM      5  C20 NON d   1      -1.388   4.224  -0.044  0.00  0.00     0.039 A 
ATOM      6  C21 NON d   1      -2.642   4.871  -0.038  0.00  0.00     0.032 A 
ENDROOT
BRANCH   4   7
ATOM      7  O1  NON d   1       0.962   4.234   0.028  0.00  0.00    -0.351 OA
BRANCH   7   8
ATOM      8  C13 NON d   1       2.165   5.007   0.133  0.00  0.00     0.175 C 
BRANCH   8   9
ATOM      9  C14 NON d   1       3.385   4.093   0.136  0.00  0.00     0.027 C 
BRANCH   9  10
ATOM     10  C15 NON d   1       4.730   4.834   0.042  0.00  0.00     0.002 C 
BRANCH  10  11
ATOM     11  C16 NON d   1       5.203   5.546   1.322  0.00  0.00     0.001 C 
BRANCH  11  12
ATOM     12  C17 NON d   1       4.647   6.964   1.498  0.00  0.00     0.009 C 
BRANCH  12  13
ATOM     13  C18 NON d   1       5.082   7.622   2.809  0.00  0.00     0.105 C 
BRANCH  13  14
ATOM     14  C19 NON d   1       6.411   8.351   2.757  0.00  0.00     0.240 C 
ATOM     15  O2  NON d   1       7.169   8.326   1.797  0.00  0.00    -0.271 OA
ATOM     16  N2  NON d   1       6.626   9.072   3.920  0.00  0.00    -0.237 N 
ATOM     17  H24 NON d   1       6.189   8.780   4.788  0.00  0.00     0.197 HD
BRANCH  16  18
ATOM     18  O3  NON d   1       7.919   9.629   4.069  0.00  0.00    -0.287 OA
ATOM     19  H25 NON d   1       7.816  10.503   3.647  0.00  0.00     0.244 HD
ENDBRANCH  16  18
ENDBRANCH  13  14
ENDBRANCH  12  13
ENDBRANCH  11  12
ENDBRANCH  10  11
ENDBRANCH   9  10
ENDBRANCH   8   9
ENDBRANCH   7   8
ENDBRANCH   4   7
BRANCH   1  20
ATOM     20  N1  NON d   1      -4.001   6.930   0.000  0.00  0.00    -0.381 N 
ATOM     21  C1  NON d   1      -4.001   8.470   0.000  0.00  0.00     0.150 C 
BRANCH  20  22
ATOM     22  C2  NON d   1      -5.245   6.194   0.332  0.00  0.00     0.161 C 
BRANCH  22  23
ATOM     23  C3  NON d   1      -6.615   6.880   0.253  0.00  0.00    -0.040 A 
ATOM     24  C4  NON d   1      -7.716   6.099  -0.165  0.00  0.00     0.010 A 
ATOM     25  C5  NON d   1      -9.012   6.625  -0.228  0.00  0.00     0.024 A 
ATOM     26  C6  NON d   1      -9.235   7.954   0.111  0.00  0.00     0.034 A 
ATOM     27 Cl1  NON d   1     -10.816   8.619   0.001  0.00  0.00    -0.084 Cl
ATOM     28  C7  NON d   1      -8.180   8.738   0.563  0.00  0.00     0.024 A 
ATOM     29  C8  NON d   1      -6.896   8.187   0.681  0.00  0.00     0.010 A 
ENDBRANCH  22  23
ENDBRANCH  20  22
ENDBRANCH   1  20
TORSDOF 12
