@<TRIPOS>MOLECULE
*****
 48 49 0 0 0
SMALL
USER_CHARGES

@<TRIPOS>ATOM
      1 C1         16.2439  -10.7886    2.6465 C.3     1  NONAME1    -0.0558
      2 C2         15.3213   -9.5974    2.3281 C.3     1  NONAME1    -0.0036
      3 S1         15.7765   -8.8691    0.7330 S.3     1  NONAME1    -0.1113
      4 C3         17.1552   -7.7991    1.0503 C.2     1  NONAME1     0.0854
      5 S2         17.9285   -7.6095    2.5246 S.2     1  NONAME1    -0.0372
      6 S3         17.5073   -6.8776   -0.4231 S.3     1  NONAME1    -0.1030
      7 C4         19.0497   -5.9994   -0.0964 C.3     1  NONAME1     0.0623
      8 C5         20.2848   -6.8895   -0.1198 C.2     1  NONAME1     0.1733
      9 O1         20.2430   -8.1175   -0.1818 O.2     1  NONAME1    -0.2912
     10 C6         21.6283   -6.2250   -0.0587 C.ar    1  NONAME1     0.0190
     11 C7         21.7635   -4.8349    0.0515 C.ar    1  NONAME1    -0.0512
     12 C8         23.0294   -4.2525    0.0909 C.ar    1  NONAME1    -0.0604
     13 C9         24.1668   -5.0551    0.0306 C.ar    1  NONAME1    -0.0496
     14 C10        24.0589   -6.4506   -0.0714 C.ar    1  NONAME1     0.0374
     15 C11        25.3344   -7.2281   -0.1394 C.2     1  NONAME1     0.2442
     16 O2         26.4006   -6.6273   -0.2389 O.2     1  NONAME1    -0.2702
     17 N1         25.2722   -8.6064   -0.0630 N.am    1  NONAME1    -0.3081
     18 C12        26.5082   -9.3709    0.0050 C.3     1  NONAME1     0.0461
     19 C13        26.2948  -10.8829   -0.0162 C.3     1  NONAME1     0.1050
     20 O3         27.5716  -11.5147    0.0787 O.3     1  NONAME1    -0.4904
     21 C14        27.5966  -12.8815    0.0707 C.ar    1  NONAME1     0.1206
     22 C15        28.8769  -13.4416    0.1004 C.ar    1  NONAME1    -0.0199
     23 C16        29.0482  -14.8272    0.0959 C.ar    1  NONAME1    -0.0583
     24 C17        27.9360  -15.6637    0.0649 C.ar    1  NONAME1    -0.0615
     25 C18        26.6559  -15.1123    0.0391 C.ar    1  NONAME1    -0.0583
     26 C19        26.4850  -13.7237    0.0422 C.ar    1  NONAME1    -0.0199
     27 C20        22.7837   -7.0304   -0.1230 C.ar    1  NONAME1    -0.0391
     28 H1         15.7459  -11.0410    3.6057 H       1  NONAME1     0.0238
     29 H2         17.1665  -11.9799    2.9649 H       1  NONAME1     0.0238
     30 H3         15.8332  -11.4600    1.8620 H       1  NONAME1     0.0238
     31 H4         14.2835   -9.9433    2.2484 H       1  NONAME1     0.0377
     32 H5         15.3391   -8.8498    3.1265 H       1  NONAME1     0.0377
     33 H6         18.9940   -5.4451    0.8442 H       1  NONAME1     0.0461
     34 H7         19.1454   -5.2749   -0.9128 H       1  NONAME1     0.0461
     35 H8         20.9051   -4.1711    0.1036 H       1  NONAME1     0.0625
     36 H9         23.1347   -3.1725    0.1661 H       1  NONAME1     0.0618
     37 H10        25.1489   -4.5830    0.0614 H       1  NONAME1     0.0625
     38 H11        24.4124   -9.0601    0.2088 H       1  NONAME1     0.1491
     39 H12        27.0374   -9.0791    0.9204 H       1  NONAME1     0.0495
     40 H13        27.1532   -9.0705   -0.8301 H       1  NONAME1     0.0495
     41 H14        25.6664  -11.1679    0.8365 H       1  NONAME1     0.0712
     42 H15        25.7965  -11.1684   -0.9507 H       1  NONAME1     0.0712
     43 H16        29.7488  -12.7922    0.1251 H       1  NONAME1     0.0654
     44 H17        30.0497  -15.2494    0.1166 H       1  NONAME1     0.0619
     45 H18        28.0657  -16.7430    0.0617 H       1  NONAME1     0.0618
     46 H19        25.7858  -15.7634    0.0170 H       1  NONAME1     0.0619
     47 H20        25.4722  -13.3360    0.0240 H       1  NONAME1     0.0654
     48 H21        22.6615   -8.1037   -0.2297 H       1  NONAME1     0.0632
@<TRIPOS>BOND
     1     1     2    1
     2     2     3    1
     3     3     4    1
     4     4     5    2
     5     4     6    1
     6     6     7    1
     7     7     8    1
     8     8     9    2
     9     8    10    1
    10    10    11   ar
    11    11    12   ar
    12    12    13   ar
    13    13    14   ar
    14    14    15    1
    15    15    16    2
    16    15    17   am
    17    17    18    1
    18    18    19    1
    19    19    20    1
    20    20    21    1
    21    21    22   ar
    22    22    23   ar
    23    23    24   ar
    24    24    25   ar
    25    25    26   ar
    26    21    26   ar
    27    14    27   ar
    28    10    27   ar
    29     1    28    1
    30     1    29    1
    31     1    30    1
    32     2    31    1
    33     2    32    1
    34     7    33    1
    35     7    34    1
    36    11    35    1
    37    12    36    1
    38    13    37    1
    39    17    38    1
    40    18    39    1
    41    18    40    1
    42    19    41    1
    43    19    42    1
    44    22    43    1
    45    23    44    1
    46    24    45    1
    47    25    46    1
    48    26    47    1
    49    27    48    1
