@<TRIPOS>MOLECULE
*****
 57 59 0 0 0
SMALL
USER_CHARGES

@<TRIPOS>ATOM
      1 C1         19.4842   -8.6859   -3.8099 C.3     1  NONAME1    -0.0061
      2 C2         18.8319   -9.4585   -2.6483 C.2     1  NONAME1     0.1303
      3 O1         18.7228   -9.0197   -1.5122 O.2     1  NONAME1    -0.2977
      4 C3         18.3942  -10.7969   -3.1483 C.3     1  NONAME1     0.0055
      5 C4         17.9516  -11.6367   -2.0127 C.3     1  NONAME1    -0.0464
      6 C5         16.5524  -11.2875   -1.5313 C.3     1  NONAME1    -0.0526
      7 C6         16.1941  -12.2046   -0.3782 C.3     1  NONAME1    -0.0509
      8 C7         16.3524  -13.6524   -0.8383 C.3     1  NONAME1    -0.0260
      9 C8         17.3378  -14.6300    0.0000 C.3     1  NONAME1     0.0980
     10 N1         17.7802  -15.8123   -0.9264 N.pl3   1  NONAME1    -0.3263
     11 C9         18.4440  -16.8821   -0.3910 C.ar    1  NONAME1     0.0857
     12 C10        19.2142  -16.9876    0.7580 C.ar    1  NONAME1     0.0558
     13 N2         19.8824  -18.1845    0.9407 N.ar    1  NONAME1    -0.2538
     14 C11        19.5970  -18.9897   -0.0561 C.ar    1  NONAME1     0.0664
     15 S1         18.5214  -18.3768   -1.2399 S.2     1  NONAME1    -0.0610
     16 C12        18.6715  -13.8600    0.0000 C.2     1  NONAME1     0.2375
     17 O2         18.7726  -13.0633    0.9515 O.2     1  NONAME1    -0.2734
     18 N3         19.7676  -14.1348   -0.8014 N.am    1  NONAME1    -0.2840
     19 C13        21.0521  -13.5460   -0.5528 C.ar    1  NONAME1     0.0340
     20 C14        21.1711  -12.2282   -0.0966 C.ar    1  NONAME1    -0.0404
     21 C15        22.4022  -11.6771    0.2287 C.ar    1  NONAME1    -0.0594
     22 C16        23.5492  -12.4540    0.1256 C.ar    1  NONAME1    -0.0539
     23 C17        23.5076  -13.7802   -0.3422 C.ar    1  NONAME1    -0.0161
     24 C18        24.7662  -14.5865   -0.3511 C.ar    1  NONAME1    -0.0178
     25 C19        26.0311  -13.9717   -0.4893 C.ar    1  NONAME1    -0.0540
     26 C20        27.2277  -14.6889   -0.3751 C.ar    1  NONAME1    -0.0612
     27 C21        27.1949  -16.0575   -0.1490 C.ar    1  NONAME1    -0.0617
     28 C22        25.9661  -16.7016   -0.0394 C.ar    1  NONAME1    -0.0612
     29 C23        24.7673  -15.9747   -0.1335 C.ar    1  NONAME1    -0.0540
     30 C24        22.2331  -14.2997   -0.7157 C.ar    1  NONAME1    -0.0328
     31 H1         20.4940   -9.1109   -3.6228 H       1  NONAME1     0.0306
     32 H2         20.1364   -7.9133   -4.9715 H       1  NONAME1     0.0306
     33 H3         19.4164   -7.6973   -3.3079 H       1  NONAME1     0.0306
     34 H4         17.6157  -10.6757   -3.9070 H       1  NONAME1     0.0341
     35 H5         19.2655  -11.2702   -3.6198 H       1  NONAME1     0.0341
     36 H6         18.6412  -11.5221   -1.1802 H       1  NONAME1     0.0269
     37 H7         18.0280  -12.6625   -2.3746 H       1  NONAME1     0.0269
     38 H8         16.4853  -10.2453   -1.2020 H       1  NONAME1     0.0265
     39 H9         15.8305  -11.4111   -2.3478 H       1  NONAME1     0.0265
     40 H10        15.1512  -12.0099   -0.0959 H       1  NONAME1     0.0266
     41 H11        16.7818  -11.9634    0.5097 H       1  NONAME1     0.0266
     42 H12        16.5229  -13.7794   -1.9127 H       1  NONAME1     0.0288
     43 H13        15.3125  -14.0136   -0.7586 H       1  NONAME1     0.0288
     44 H14        16.0041  -15.4000    0.0000 H       1  NONAME1     0.0594
     45 H15        17.1068  -16.0195   -1.6641 H       1  NONAME1     0.1473
     46 H16        19.3731  -16.1974    1.4831 H       1  NONAME1     0.0854
     47 H17        20.0204  -19.9826   -0.1325 H       1  NONAME1     0.0908
     48 H18        19.7265  -15.0315   -1.2709 H       1  NONAME1     0.1549
     49 H19        20.3029  -11.5921    0.0450 H       1  NONAME1     0.0636
     50 H20        22.4591  -10.6577    0.5981 H       1  NONAME1     0.0618
     51 H21        24.4800  -12.0035    0.4621 H       1  NONAME1     0.0624
     52 H22        26.1119  -12.9023   -0.6733 H       1  NONAME1     0.0624
     53 H23        28.1804  -14.1704   -0.4521 H       1  NONAME1     0.0618
     54 H24        28.1206  -16.6180   -0.0524 H       1  NONAME1     0.0618
     55 H25        25.9333  -17.7725    0.1427 H       1  NONAME1     0.0618
     56 H26        23.8351  -16.5138    0.0106 H       1  NONAME1     0.0624
     57 H27        22.1574  -15.3230   -1.0661 H       1  NONAME1     0.0642
@<TRIPOS>BOND
     1     1     2    1
     2     2     3    2
     3     2     4    1
     4     4     5    1
     5     5     6    1
     6     6     7    1
     7     7     8    1
     8     9     8    1
     9     9    10    1
    10    10    11    1
    11    11    12   ar
    12    12    13   ar
    13    13    14   ar
    14    14    15   ar
    15    11    15   ar
    16     9    16    1
    17    16    17    2
    18    16    18   am
    19    18    19    1
    20    19    20   ar
    21    20    21   ar
    22    21    22   ar
    23    22    23   ar
    24    23    24    1
    25    24    25   ar
    26    25    26   ar
    27    26    27   ar
    28    27    28   ar
    29    28    29   ar
    30    24    29   ar
    31    23    30   ar
    32    19    30   ar
    33     1    31    1
    34     1    32    1
    35     1    33    1
    36     4    34    1
    37     4    35    1
    38     5    36    1
    39     5    37    1
    40     6    38    1
    41     6    39    1
    42     7    40    1
    43     7    41    1
    44     8    42    1
    45     8    43    1
    46     9    44    1
    47    10    45    1
    48    12    46    1
    49    14    47    1
    50    18    48    1
    51    20    49    1
    52    21    50    1
    53    22    51    1
    54    25    52    1
    55    26    53    1
    56    27    54    1
    57    28    55    1
    58    29    56    1
    59    30    57    1
