REMARK  9 active torsions:
REMARK  status: ('A' for Active; 'I' for Inactive)
REMARK    1  A    between atoms: C2_2  and  C3_3 
REMARK    2  A    between atoms: C2_2  and  C19_20 
REMARK    3  A    between atoms: C3_3  and  C4_4 
REMARK    4  A    between atoms: C4_4  and  C5_5 
REMARK    5  A    between atoms: C5_5  and  C6_6 
REMARK    6  A    between atoms: C6_6  and  C7_7 
REMARK    7  A    between atoms: C7_7  and  C8_8 
REMARK    8  A    between atoms: C8_8  and  C9_10 
REMARK       I    between atoms: C19_20  and  N1_22 
REMARK    9  A    between atoms: N1_22  and  O3_23 
ROOT
ATOM      1  C7  NON d   1       6.522  -1.681  -0.317  0.00  0.00     0.084 C 
ENDROOT
BRANCH   1   2
ATOM      2  C6  NON d   1       7.706  -2.625  -0.179  0.00  0.00     0.008 C 
BRANCH   2   3
ATOM      3  C5  NON d   1       9.063  -1.981   0.031  0.00  0.00     0.000 C 
BRANCH   3   4
ATOM      4  C4  NON d   1      10.173  -3.025   0.207  0.00  0.00     0.001 C 
BRANCH   4   5
ATOM      5  C3  NON d   1      10.604  -3.761  -1.079  0.00  0.00     0.013 C 
BRANCH   5   6
ATOM      6  C2  NON d   1      10.076  -5.206  -1.516  0.00  0.00     0.076 C 
ATOM      7  C1  NON d   1      10.417  -6.154  -2.680  0.00  0.00     0.020 C 
BRANCH   6   8
ATOM      8  C19 NON d   1       8.809  -5.446  -0.674  0.00  0.00     0.244 C 
ATOM      9  O2  NON d   1       8.841  -5.744   0.520  0.00  0.00    -0.271 OA
ATOM     10  N1  NON d   1       7.641  -5.534  -1.399  0.00  0.00    -0.237 N 
ATOM     11  H22 NON d   1       7.602  -5.597  -2.409  0.00  0.00     0.197 HD
BRANCH  10  12
ATOM     12  O3  NON d   1       6.529  -6.053  -0.695  0.00  0.00    -0.287 OA
ATOM     13  H23 NON d   1       6.922  -6.285   0.176  0.00  0.00     0.244 HD
ENDBRANCH  10  12
ENDBRANCH   6   8
ENDBRANCH   5   6
ENDBRANCH   4   5
ENDBRANCH   3   4
ENDBRANCH   2   3
ENDBRANCH   1   2
BRANCH   1  14
ATOM     14  C8  NON d   1       6.089  -1.008   0.968  0.00  0.00     0.159 C 
ATOM     15  O1  NON d   1       6.783  -0.982   1.980  0.00  0.00    -0.292 OA
BRANCH  14  16
ATOM     16  C9  NON d   1       4.764  -0.314   0.970  0.00  0.00     0.011 A 
ATOM     17  C10 NON d   1       4.442   0.511   2.049  0.00  0.00     0.016 A 
ATOM     18  C11 NON d   1       3.216   1.179   2.081  0.00  0.00     0.013 A 
ATOM     19  C12 NON d   1       2.286   1.020   1.039  0.00  0.00    -0.026 A 
ATOM     20  C13 NON d   1       1.045   1.677   1.055  0.00  0.00     0.012 A 
ATOM     21  C17 NON d   1       2.602   0.179  -0.048  0.00  0.00    -0.025 A 
ATOM     22  C14 NON d   1       0.130   1.494   0.016  0.00  0.00     0.001 A 
ATOM     23  C15 NON d   1       0.442   0.655  -1.049  0.00  0.00     0.001 A 
ATOM     24  C16 NON d   1       1.672   0.001  -1.084  0.00  0.00     0.012 A 
ATOM     25  C18 NON d   1       3.844  -0.473  -0.075  0.00  0.00     0.027 A 
ENDBRANCH  14  16
ENDBRANCH   1  14
TORSDOF 9
