REMARK  5 active torsions:
REMARK  status: ('A' for Active; 'I' for Inactive)
REMARK       I    between atoms: C2_2  and  N1_4 
REMARK    1  A    between atoms: N1_4  and  C3_5 
REMARK    2  A    between atoms: C6_8  and  C7_9 
REMARK       I    between atoms: C7_9  and  N2_11 
REMARK    3  A    between atoms: N2_11  and  C8_12 
REMARK    4  A    between atoms: C10_14  and  C11_15 
REMARK    5  A    between atoms: C19_23  and  O3_24 
ROOT
ATOM      1  C7  NON d   1      -4.015 -11.135   0.296  0.00  0.00     0.256 C 
ATOM      2  O2  NON d   1      -5.058 -11.570   0.785  0.00  0.00    -0.267 OA
ATOM      3  N2  NON d   1      -2.950 -11.946  -0.059  0.00  0.00    -0.320 N 
ATOM      4  H7  NON d   1      -2.063 -11.506  -0.258  0.00  0.00     0.169 HD
ENDROOT
BRANCH   3   5
ATOM      5  C8  NON d   1      -2.959 -13.384  -0.076  0.00  0.00     0.069 A 
ATOM      6  C9  NON d   1      -1.702 -14.041  -0.070  0.00  0.00     0.044 A 
ATOM      7  C10 NON d   1      -1.556 -15.459  -0.073  0.00  0.00    -0.024 A 
ATOM      8  C17 NON d   1      -2.752 -16.196  -0.115  0.00  0.00     0.015 A 
ATOM      9  C18 NON d   1      -3.999 -15.579  -0.165  0.00  0.00     0.040 A 
ATOM     10  C19 NON d   1      -4.103 -14.194  -0.144  0.00  0.00     0.092 A 
BRANCH   7  11
ATOM     11  C11 NON d   1      -0.223 -16.159  -0.032  0.00  0.00    -0.026 A 
ATOM     12  C12 NON d   1       0.999 -15.465   0.029  0.00  0.00     0.012 A 
ATOM     13  C13 NON d   1       2.238 -16.126   0.063  0.00  0.00     0.001 A 
ATOM     14  C14 NON d   1       2.297 -17.513   0.037  0.00  0.00     0.000 A 
ATOM     15  C15 NON d   1       1.117 -18.237  -0.018  0.00  0.00     0.001 A 
ATOM     16  C16 NON d   1      -0.114 -17.570  -0.053  0.00  0.00     0.012 A 
ENDBRANCH   7  11
BRANCH  10  17
ATOM     17  O3  NON d   1      -5.389 -13.753  -0.257  0.00  0.00    -0.358 OA
ATOM     18  H16 NON d   1      -5.440 -12.887   0.199  0.00  0.00     0.217 HD
ENDBRANCH  10  17
ENDBRANCH   3   5
BRANCH   1  19
ATOM     19  C6  NON d   1      -3.939  -9.652   0.097  0.00  0.00     0.032 A 
ATOM     20  C5  NON d   1      -2.782  -8.869   0.051  0.00  0.00     0.019 A 
ATOM     21  C4  NON d   1      -2.877  -7.453  -0.045  0.00  0.00     0.030 A 
ATOM     22  C3  NON d   1      -4.120  -6.796  -0.094  0.00  0.00     0.034 A 
ATOM     23  C21 NON d   1      -5.259  -7.604  -0.095  0.00  0.00     0.030 A 
ATOM     24  C20 NON d   1      -5.173  -8.996   0.006  0.00  0.00     0.019 A 
BRANCH  22  25
ATOM     25  N1  NON d   1      -4.176  -5.362  -0.122  0.00  0.00    -0.328 N 
ATOM     26  C2  NON d   1      -5.335  -4.620   0.000  0.00  0.00     0.218 C 
ATOM     27  C1  NON d   1      -5.335  -3.080   0.000  0.00  0.00     0.117 C 
ATOM     28  O1  NON d   1      -6.454  -5.116   0.181  0.00  0.00    -0.274 OA
ATOM     29  H4  NON d   1      -3.294  -4.870  -0.145  0.00  0.00     0.169 HD
ENDBRANCH  22  25
ENDBRANCH   1  19
TORSDOF 5
