@<TRIPOS>MOLECULE
*****
 48 50 0 0 0
SMALL
USER_CHARGES

@<TRIPOS>ATOM
      1 N1         -1.2257  -14.1071   -0.0881 N.pl3   1  NONAME1    -0.3565
      2 C1         -2.5057  -13.4987   -0.0409 C.ar    1  NONAME1     0.0461
      3 C2         -3.6544  -14.2967   -0.1054 C.ar    1  NONAME1    -0.0392
      4 C3         -4.9211  -13.7157   -0.0468 C.ar    1  NONAME1    -0.0599
      5 C4         -5.0462  -12.3327    0.0459 C.ar    1  NONAME1    -0.0599
      6 C5         -3.9075  -11.5224    0.0548 C.ar    1  NONAME1    -0.0387
      7 C6         -2.6334  -12.0902   -0.0134 C.ar    1  NONAME1     0.0545
      8 N2         -1.4350  -11.3373   -0.0791 N.am    1  NONAME1    -0.2800
      9 C7         -1.2928   -9.9656    0.0143 C.2     1  NONAME1     0.2483
     10 O1         -2.2154   -9.1682    0.1539 O.2     1  NONAME1    -0.2699
     11 C8          0.1064   -9.4150   -0.0264 C.ar    1  NONAME1     0.0370
     12 C9          0.2534   -8.0248    0.0967 C.ar    1  NONAME1    -0.0493
     13 C10         1.5189   -7.4306    0.1248 C.ar    1  NONAME1    -0.0566
     14 C11         2.6815   -8.2078    0.0256 C.ar    1  NONAME1    -0.0334
     15 C12         4.0218   -7.5005    0.0490 C.3     1  NONAME1     0.0242
     16 N3          5.2093   -8.3594    0.0501 N.3     1  NONAME1    -0.2804
     17 C13         5.5242   -8.8629    1.3819 C.3     1  NONAME1     0.1445
     18 O2          6.7770   -9.5460    1.3221 O.3     1  NONAME1    -0.4453
     19 C14         7.0696  -10.2413    2.4471 C.2     1  NONAME1     0.3419
     20 O3          6.3728  -10.3032    3.4478 O.2     1  NONAME1    -0.2449
     21 C15         8.3656  -10.9438    2.3278 C.ar    1  NONAME1     0.0771
     22 C16         8.7541  -11.8346    3.3338 C.ar    1  NONAME1    -0.0449
     23 C17         9.9795  -12.4906    3.2398 C.ar    1  NONAME1    -0.0428
     24 C18        10.7810  -12.2290    2.1407 C.ar    1  NONAME1     0.0276
     25 N4         10.4390  -11.3751    1.1503 N.ar    1  NONAME1    -0.2624
     26 C19         9.2368  -10.7526    1.2642 C.ar    1  NONAME1     0.0415
     27 C20         2.5330   -9.5919   -0.1365 C.ar    1  NONAME1    -0.0566
     28 C21         1.2638  -10.1934   -0.1499 C.ar    1  NONAME1    -0.0493
     29 H1         -1.2813  -15.1184    0.0034 H       1  NONAME1     0.1424
     30 H2         -0.6286  -13.7306    0.6445 H       1  NONAME1     0.1424
     31 H3         -3.5755  -15.3774   -0.1778 H       1  NONAME1     0.0636
     32 H4         -5.8101  -14.3405   -0.0729 H       1  NONAME1     0.0618
     33 H5         -6.0311  -11.8745    0.0926 H       1  NONAME1     0.0618
     34 H6         -4.0527  -10.4479    0.0919 H       1  NONAME1     0.0637
     35 H7         -0.6294  -11.9122   -0.2727 H       1  NONAME1     0.1552
     36 H8         -0.6263   -7.3877    0.1795 H       1  NONAME1     0.0625
     37 H9          1.5843   -6.3485    0.2227 H       1  NONAME1     0.0621
     38 H10         4.0543   -6.8032    0.8966 H       1  NONAME1     0.0474
     39 H11         4.0670   -6.8880   -0.8606 H       1  NONAME1     0.0474
     40 H12         6.0074   -7.8045   -0.2506 H       1  NONAME1     0.1254
     41 H13         5.6227   -8.0348    2.0941 H       1  NONAME1     0.0872
     42 H14         4.7425   -9.5508    1.7224 H       1  NONAME1     0.0872
     43 H15         8.1079  -12.0182    4.1895 H       1  NONAME1     0.0627
     44 H16        10.3005  -13.1866    4.0074 H       1  NONAME1     0.0633
     45 H17        11.7476  -12.7124    2.0249 H       1  NONAME1     0.0829
     46 H18         9.0076  -10.0754    0.4461 H       1  NONAME1     0.0838
     47 H19         3.4101  -10.2263   -0.2520 H       1  NONAME1     0.0621
     48 H20         1.2316  -11.2713   -0.2571 H       1  NONAME1     0.0625
@<TRIPOS>BOND
     1     1     2    1
     2     2     3   ar
     3     3     4   ar
     4     4     5   ar
     5     5     6   ar
     6     6     7   ar
     7     2     7   ar
     8     7     8    1
     9     8     9   am
    10     9    10    2
    11     9    11    1
    12    11    12   ar
    13    12    13   ar
    14    13    14   ar
    15    14    15    1
    16    15    16    1
    17    16    17    1
    18    17    18    1
    19    18    19    1
    20    19    20    2
    21    19    21    1
    22    21    22   ar
    23    22    23   ar
    24    23    24   ar
    25    24    25   ar
    26    25    26   ar
    27    21    26   ar
    28    14    27   ar
    29    27    28   ar
    30    11    28   ar
    31     1    29    1
    32     1    30    1
    33     3    31    1
    34     4    32    1
    35     5    33    1
    36     6    34    1
    37     8    35    1
    38    12    36    1
    39    13    37    1
    40    15    38    1
    41    15    39    1
    42    16    40    1
    43    17    41    1
    44    17    42    1
    45    22    43    1
    46    23    44    1
    47    24    45    1
    48    26    46    1
    49    27    47    1
    50    28    48    1
