@<TRIPOS>MOLECULE
*****
 46 47 0 0 0
SMALL
USER_CHARGES

@<TRIPOS>ATOM
      1 O1         -0.1247  -10.2887   -3.7004 O.co2   1  NONAME1    -0.2464
      2 C1          0.2062  -10.8328   -2.6072 C.2     1  NONAME1     0.3560
      3 O2         -0.3951  -10.8288   -1.4982 O.co2   1  NONAME1    -0.2464
      4 C2          1.5474  -11.5765   -2.6560 C.3     1  NONAME1     0.0492
      5 C3          1.9722  -12.3589   -1.4129 C.3     1  NONAME1    -0.0428
      6 C4          1.2438  -13.7024   -1.2911 C.3     1  NONAME1    -0.0525
      7 C5          1.5516  -14.4646    0.0052 C.3     1  NONAME1    -0.0527
      8 C6          2.7434  -15.4353   -0.0520 C.3     1  NONAME1    -0.0475
      9 C7          4.1047  -14.7533   -0.1125 C.3     1  NONAME1    -0.0067
     10 C8          5.4117  -15.5551    0.0279 C.2     1  NONAME1     0.0870
     11 N1          5.5518  -16.8487    0.1247 N.2     1  NONAME1    -0.0915
     12 O3          4.3653  -17.5667    0.0807 O.2     1  NONAME1    -0.4090
     13 C9          6.6960  -14.7437    0.0253 C.ar    1  NONAME1    -0.0006
     14 C10         6.7118  -13.3504   -0.0324 C.ar    1  NONAME1    -0.0522
     15 C11         7.9284  -12.6415   -0.0503 C.ar    1  NONAME1    -0.0534
     16 C12         9.1831  -13.2823   -0.0117 C.ar    1  NONAME1    -0.0178
     17 C13        10.4778  -12.5221   -0.0380 C.ar    1  NONAME1    -0.0179
     18 C14        10.5269  -11.1126   -0.0024 C.ar    1  NONAME1    -0.0540
     19 C15        11.7350  -10.4002   -0.0338 C.ar    1  NONAME1    -0.0612
     20 C16        12.9450  -11.0774   -0.0941 C.ar    1  NONAME1    -0.0617
     21 C17        12.9418  -12.4645   -0.1270 C.ar    1  NONAME1    -0.0612
     22 C18        11.7305  -13.1700   -0.1023 C.ar    1  NONAME1    -0.0540
     23 C19         9.1361  -14.6879    0.0484 C.ar    1  NONAME1    -0.0534
     24 C20         7.9266  -15.4041    0.0654 C.ar    1  NONAME1    -0.0522
     25 H1          2.3088  -10.8089   -2.8477 H       1  NONAME1     0.0379
     26 H2          1.5446  -12.2410   -3.5290 H       1  NONAME1     0.0379
     27 H3          3.0501  -12.5264   -1.4792 H       1  NONAME1     0.0270
     28 H4          1.8037  -11.7583   -0.5115 H       1  NONAME1     0.0270
     29 H5          0.1640  -13.5091   -1.3102 H       1  NONAME1     0.0265
     30 H6          1.4599  -14.3325   -2.1617 H       1  NONAME1     0.0265
     31 H7          0.6673  -15.0737    0.2370 H       1  NONAME1     0.0265
     32 H8          1.6677  -13.7688    0.8444 H       1  NONAME1     0.0265
     33 H9          2.6193  -16.1057   -0.9104 H       1  NONAME1     0.0269
     34 H10         2.6914  -16.0499    0.8547 H       1  NONAME1     0.0269
     35 H11         4.1175  -13.9954    0.6806 H       1  NONAME1     0.0329
     36 H12         4.1847  -14.2424   -1.0770 H       1  NONAME1     0.0329
     37 H13         4.6710  -18.4879    0.1701 H       1  NONAME1     0.3278
     38 H14         5.7940  -12.7691   -0.0710 H       1  NONAME1     0.0624
     39 H15         7.8477  -11.5598   -0.1046 H       1  NONAME1     0.0624
     40 H16         9.6224  -10.5155    0.0539 H       1  NONAME1     0.0624
     41 H17        11.7224   -9.3136   -0.0094 H       1  NONAME1     0.0618
     42 H18        13.8818  -10.5288   -0.1167 H       1  NONAME1     0.0618
     43 H19        13.8823  -13.0086   -0.1735 H       1  NONAME1     0.0618
     44 H20        11.8064  -14.2523   -0.1389 H       1  NONAME1     0.0624
     45 H21        10.0429  -15.2850    0.0837 H       1  NONAME1     0.0624
     46 H22         7.9713  -16.4912    0.1042 H       1  NONAME1     0.0624
@<TRIPOS>BOND
     1     1     2   ar
     2     2     3   ar
     3     2     4    1
     4     4     5    1
     5     5     6    1
     6     6     7    1
     7     7     8    1
     8     8     9    1
     9     9    10    1
    10    10    11    2
    11    11    12    1
    12    10    13    1
    13    13    14   ar
    14    14    15   ar
    15    15    16   ar
    16    16    17    1
    17    17    18   ar
    18    18    19   ar
    19    19    20   ar
    20    20    21   ar
    21    21    22   ar
    22    17    22   ar
    23    16    23   ar
    24    23    24   ar
    25    13    24   ar
    26     4    25    1
    27     4    26    1
    28     5    27    1
    29     5    28    1
    30     6    29    1
    31     6    30    1
    32     7    31    1
    33     7    32    1
    34     8    33    1
    35     8    34    1
    36     9    35    1
    37     9    36    1
    38    12    37    1
    39    14    38    1
    40    15    39    1
    41    18    40    1
    42    19    41    1
    43    20    42    1
    44    21    43    1
    45    22    44    1
    46    23    45    1
    47    24    46    1
