REMARK  7 active torsions:
REMARK  status: ('A' for Active; 'I' for Inactive)
REMARK    1  A    between atoms: C1_2  and  C2_3 
REMARK       I    between atoms: C1_2  and  N3_34 
REMARK    2  A    between atoms: C3_4  and  C4_5 
REMARK    3  A    between atoms: C7_8  and  C8_9 
REMARK    4  A    between atoms: C8_9  and  N1_10 
REMARK    5  A    between atoms: C12_14  and  C13_15 
REMARK    6  A    between atoms: C14_16  and  C15_17 
REMARK    7  A    between atoms: N3_34  and  O2_35 
ROOT
ATOM      1  N1  NON d   1       2.429  -6.792  -0.338  0.00  0.00    -0.066 N 
ATOM      2  C9  NON d   1       1.088  -7.169   0.254  0.00  0.00     0.235 C 
ATOM      3  C10 NON d   1       0.001  -6.268  -0.245  0.00  0.00     0.028 C 
ATOM      4  C11 NON d   1       0.287  -4.798   0.016  0.00  0.00     0.013 C 
ATOM      5  C12 NON d   1       1.728  -4.359   0.244  0.00  0.00     0.048 C 
ATOM      6  C27 NON d   1       2.598  -5.285  -0.649  0.00  0.00     0.244 C 
ATOM      7  H7  NON d   1       2.482  -7.236  -1.264  0.00  0.00     0.280 HD
ENDROOT
BRANCH   1   8
ATOM      8  C8  NON d   1       3.484  -7.507   0.500  0.00  0.00     0.276 C 
BRANCH   8   9
ATOM      9  C7  NON d   1       4.940  -7.258   0.264  0.00  0.00     0.006 A 
ATOM     10  C6  NON d   1       5.757  -8.115  -0.483  0.00  0.00     0.013 A 
ATOM     11  C5  NON d   1       7.143  -7.888  -0.541  0.00  0.00     0.012 A 
ATOM     12  C4  NON d   1       7.728  -6.789   0.108  0.00  0.00    -0.033 A 
ATOM     13  C29 NON d   1       6.909  -5.949   0.865  0.00  0.00     0.054 A 
ATOM     14  C28 NON d   1       5.548  -6.208   0.951  0.00  0.00     0.125 A 
ATOM     15  F1  NON d   1       4.787  -5.434   1.739  0.00  0.00    -0.205 F 
BRANCH  12  16
ATOM     16  C3  NON d   1       9.188  -6.606   0.077  0.00  0.00     0.017 C 
ATOM     17  C2  NON d   1       9.783  -5.402   0.016  0.00  0.00     0.077 C 
BRANCH  17  18
ATOM     18  C1  NON d   1      11.252  -5.125   0.042  0.00  0.00     0.264 C 
ATOM     19  O1  NON d   1      11.641  -3.960   0.145  0.00  0.00    -0.266 OA
ATOM     20  N3  NON d   1      12.070  -6.217  -0.066  0.00  0.00    -0.234 N 
ATOM     21  H28 NON d   1      11.739  -7.114  -0.391  0.00  0.00     0.197 HD
BRANCH  20  22
ATOM     22  O2  NON d   1      13.429  -5.951  -0.322  0.00  0.00    -0.287 OA
ATOM     23  H29 NON d   1      13.747  -5.638   0.546  0.00  0.00     0.244 HD
ENDBRANCH  20  22
ENDBRANCH  17  18
ENDBRANCH  12  16
ENDBRANCH   8   9
ENDBRANCH   1   8
BRANCH   5  24
ATOM     24  C13 NON d   1       1.925  -2.819   0.012  0.00  0.00    -0.012 C 
ATOM     25  C14 NON d   1       1.008  -1.715  -0.073  0.00  0.00     0.050 C 
ATOM     26  N2  NON d   1       1.822  -0.623  -0.364  0.00  0.00    -0.354 N 
ATOM     27  C21 NON d   1       3.149  -0.862  -0.217  0.00  0.00     0.043 A 
ATOM     28  H20 NON d   1       1.480   0.300  -0.580  0.00  0.00     0.166 HD
ATOM     29  C22 NON d   1       4.217   0.046  -0.261  0.00  0.00     0.030 A 
ATOM     30  C26 NON d   1       3.278  -2.224  -0.027  0.00  0.00    -0.001 A 
ATOM     31  C23 NON d   1       5.507  -0.458  -0.135  0.00  0.00     0.002 A 
ATOM     32  C24 NON d   1       5.705  -1.819   0.031  0.00  0.00     0.001 A 
ATOM     33  C25 NON d   1       4.608  -2.693   0.099  0.00  0.00     0.014 A 
BRANCH  25  34
ATOM     34  C15 NON d   1      -0.476  -1.377   0.019  0.00  0.00    -0.009 A 
ATOM     35  C16 NON d   1      -1.556  -2.252  -0.127  0.00  0.00     0.014 A 
ATOM     36  C17 NON d   1      -2.902  -1.839  -0.098  0.00  0.00     0.001 A 
ATOM     37  C18 NON d   1      -3.229  -0.504   0.047  0.00  0.00     0.000 A 
ATOM     38  C19 NON d   1      -2.204   0.409   0.204  0.00  0.00     0.001 A 
ATOM     39  C20 NON d   1      -0.866  -0.025   0.218  0.00  0.00     0.014 A 
ENDBRANCH  25  34
ENDBRANCH   5  24
TORSDOF 7
