REMARK  7 active torsions:
REMARK  status: ('A' for Active; 'I' for Inactive)
REMARK       I    between atoms: C1_2  and  N1_3 
REMARK    1  A    between atoms: C1_2  and  C14_17 
REMARK    2  A    between atoms: N1_3  and  C2_4 
REMARK    3  A    between atoms: C4_6  and  C5_7 
REMARK    4  A    between atoms: C13_15  and  O2_16 
REMARK    5  A    between atoms: C17_20  and  C18_21 
REMARK    6  A    between atoms: C18_21  and  N2_22 
REMARK    7  A    between atoms: N2_22  and  C19_23 
ROOT
ATOM      1  O1  NON d   1       1.453  -9.613  -0.591  0.00  0.00    -0.267 OA
ATOM      2  C1  NON d   1       2.558  -9.206  -0.237  0.00  0.00     0.256 C 
ATOM      3  N1  NON d   1       3.626 -10.034   0.058  0.00  0.00    -0.320 N 
ATOM      4  H1  NON d   1       4.524  -9.602   0.211  0.00  0.00     0.169 HD
ENDROOT
BRANCH   2   5
ATOM      5  C14 NON d   1       2.749  -7.723  -0.141  0.00  0.00     0.032 A 
ATOM      6  C15 NON d   1       1.594  -6.927  -0.219  0.00  0.00     0.017 A 
ATOM      7  C16 NON d   1       1.664  -5.531  -0.158  0.00  0.00     0.010 A 
ATOM      8  C17 NON d   1       2.893  -4.885   0.005  0.00  0.00    -0.041 A 
ATOM      9  C24 NON d   1       4.050  -5.685   0.076  0.00  0.00     0.010 A 
ATOM     10  C25 NON d   1       3.984  -7.086  -0.002  0.00  0.00     0.017 A 
BRANCH   8  11
ATOM     11  C18 NON d   1       3.054  -3.377   0.085  0.00  0.00     0.158 C 
BRANCH  11  12
ATOM     12  N2  NON d   1       1.783  -2.654   0.068  0.00  0.00    -0.386 N 
ATOM     13  H15 NON d   1       1.091  -3.080   0.682  0.00  0.00     0.160 HD
BRANCH  12  14
ATOM     14  C19 NON d   1       1.720  -1.265   0.071  0.00  0.00     0.030 A 
ATOM     15  C20 NON d   1       0.456  -0.663   0.104  0.00  0.00     0.046 A 
ATOM     16  C21 NON d   1       0.330   0.721   0.032  0.00  0.00     0.089 A 
ATOM     17  N3  NON d   1       1.427   1.481  -0.079  0.00  0.00    -0.375 N 
ATOM     18  C22 NON d   1       2.656   0.952  -0.145  0.00  0.00     0.089 A 
ATOM     19  H18 NON d   1       1.321   2.495  -0.130  0.00  0.00     0.164 HD
ATOM     20  C23 NON d   1       2.825  -0.430  -0.089  0.00  0.00     0.046 A 
ENDBRANCH  12  14
ENDBRANCH  11  12
ENDBRANCH   8  11
ENDBRANCH   2   5
BRANCH   3  21
ATOM     21  C2  NON d   1       3.642 -11.461   0.077  0.00  0.00     0.069 A 
ATOM     22  C3  NON d   1       4.923 -12.069   0.054  0.00  0.00     0.044 A 
ATOM     23  C4  NON d   1       5.126 -13.474   0.050  0.00  0.00    -0.024 A 
ATOM     24  C11 NON d   1       3.957 -14.255   0.101  0.00  0.00     0.015 A 
ATOM     25  C12 NON d   1       2.687 -13.683   0.162  0.00  0.00     0.040 A 
ATOM     26  C13 NON d   1       2.527 -12.303   0.146  0.00  0.00     0.092 A 
BRANCH  23  27
ATOM     27  C5  NON d   1       6.489 -14.108  -0.002  0.00  0.00    -0.026 A 
ATOM     28  C6  NON d   1       7.679 -13.353  -0.017  0.00  0.00     0.012 A 
ATOM     29  C7  NON d   1       8.948 -13.952  -0.048  0.00  0.00     0.001 A 
ATOM     30  C8  NON d   1       9.072 -15.335  -0.067  0.00  0.00     0.000 A 
ATOM     31  C9  NON d   1       7.927 -16.116  -0.061  0.00  0.00     0.001 A 
ATOM     32  C10 NON d   1       6.663 -15.510  -0.032  0.00  0.00     0.012 A 
ENDBRANCH  23  27
BRANCH  26  33
ATOM     33  O2  NON d   1       1.228 -11.905   0.256  0.00  0.00    -0.358 OA
ATOM     34  H10 NON d   1       1.165 -10.993  -0.098  0.00  0.00     0.217 HD
ENDBRANCH  26  33
ENDBRANCH   3  21
TORSDOF 7
