REMARK  6 active torsions:
REMARK  status: ('A' for Active; 'I' for Inactive)
REMARK    1  A    between atoms: C1_2  and  C2_3 
REMARK       I    between atoms: C1_2  and  N4_25 
REMARK    2  A    between atoms: C3_4  and  C4_5 
REMARK    3  A    between atoms: N1_7  and  C6_8 
REMARK    4  A    between atoms: C12_15  and  C13_16 
REMARK    5  A    between atoms: C16_19  and  N3_20 
REMARK    6  A    between atoms: N4_25  and  C19_26 
ROOT
ATOM      1  C4  NON d   1       6.746  -2.789   0.275  0.00  0.00     0.013 C 
ATOM      2  C5  NON d   1       7.700  -3.760   0.470  0.00  0.00     0.132 C 
ATOM      3  N1  NON d   1       7.108  -4.972   0.245  0.00  0.00    -0.244 N 
ATOM      4  N2  NON d   1       5.769  -4.843   0.139  0.00  0.00    -0.166 NA
ATOM      5  C12 NON d   1       5.516  -3.518   0.121  0.00  0.00     0.099 C 
ENDROOT
BRANCH   1   6
ATOM      6  C3  NON d   1       7.027  -1.386   0.324  0.00  0.00     0.021 C 
ATOM      7  C2  NON d   1       8.159  -0.728   0.002  0.00  0.00     0.075 C 
BRANCH   7   8
ATOM      8  C1  NON d   1       9.425  -1.325  -0.523  0.00  0.00     0.245 C 
ATOM      9  O1  NON d   1       9.428  -2.294  -1.270  0.00  0.00    -0.268 OA
ATOM     10  N4  NON d   1      10.538  -0.641  -0.077  0.00  0.00    -0.324 N 
ATOM     11  H13 NON d   1      10.402   0.278   0.326  0.00  0.00     0.169 HD
BRANCH  10  12
ATOM     12  C19 NON d   1      11.870  -1.106  -0.109  0.00  0.00     0.035 A 
ATOM     13  C20 NON d   1      12.892  -0.180   0.136  0.00  0.00     0.031 A 
ATOM     14  C21 NON d   1      14.229  -0.591   0.172  0.00  0.00     0.021 A 
ATOM     15  C22 NON d   1      14.543  -1.935  -0.007  0.00  0.00     0.011 A 
ATOM     16 Br1  NON d   1      16.345  -2.499   0.072  0.00  0.00    -0.051 Br
ATOM     17  C23 NON d   1      13.536  -2.868  -0.238  0.00  0.00     0.021 A 
ATOM     18  C24 NON d   1      12.202  -2.450  -0.300  0.00  0.00     0.031 A 
ENDBRANCH  10  12
ENDBRANCH   7   8
ENDBRANCH   1   6
BRANCH   5  19
ATOM     19  C13 NON d   1       4.104  -3.086  -0.010  0.00  0.00    -0.005 A 
ATOM     20  C14 NON d   1       3.080  -4.054   0.094  0.00  0.00     0.016 A 
ATOM     21  C15 NON d   1       1.724  -3.711   0.035  0.00  0.00     0.037 A 
ATOM     22  C16 NON d   1       1.367  -2.373  -0.124  0.00  0.00     0.102 A 
ATOM     23  C17 NON d   1       2.357  -1.393  -0.259  0.00  0.00     0.037 A 
ATOM     24  C18 NON d   1       3.714  -1.756  -0.218  0.00  0.00     0.016 A 
BRANCH  22  25
ATOM     25  N3  NON d   1      -0.051  -1.993  -0.147  0.00  0.00    -0.116 N 
ATOM     26  O2  NON d   1      -0.320  -0.784  -0.177  0.00  0.00    -0.532 OA
ATOM     27  O3  NON d   1      -0.893  -2.901  -0.127  0.00  0.00    -0.532 OA
ENDBRANCH  22  25
ENDBRANCH   5  19
BRANCH   3  28
ATOM     28  C6  NON d   1       7.743  -6.240   0.148  0.00  0.00     0.058 A 
ATOM     29  C7  NON d   1       9.142  -6.344   0.108  0.00  0.00     0.031 A 
ATOM     30  C8  NON d   1       9.749  -7.597   0.004  0.00  0.00     0.002 A 
ATOM     31  C9  NON d   1       8.969  -8.749  -0.059  0.00  0.00     0.000 A 
ATOM     32  C10 NON d   1       7.579  -8.653  -0.028  0.00  0.00     0.002 A 
ATOM     33  C11 NON d   1       6.964  -7.404   0.070  0.00  0.00     0.031 A 
ENDBRANCH   3  28
TORSDOF 6
