@<TRIPOS>MOLECULE
*****
 56 57 0 0 0
SMALL
USER_CHARGES

@<TRIPOS>ATOM
      1 C1          7.4860    1.4195   -1.0604 C.3     1  NONAME1    -0.0627
      2 C2          6.6683    2.3100   -0.0183 C.3     1  NONAME1    -0.0464
      3 C3          7.0732    2.1659    1.5145 C.3     1  NONAME1    -0.0627
      4 C4          5.3347    1.5400    0.0000 C.3     1  NONAME1    -0.0465
      5 C5          5.3543    0.0166    0.2797 C.3     1  NONAME1    -0.0205
      6 C6          4.1451   -0.8754    0.0827 C.ar    1  NONAME1     0.0372
      7 C7          4.2621   -2.2898    0.0143 C.ar    1  NONAME1     0.1272
      8 O1          5.3669   -3.1142    0.0639 O.3     1  NONAME1    -0.4916
      9 C8          6.6935   -2.6035    0.0412 C.3     1  NONAME1     0.0896
     10 C9          7.7430   -3.7002    0.2488 C.3     1  NONAME1    -0.0186
     11 C10         8.2490   -4.3562   -1.0414 C.3     1  NONAME1    -0.0500
     12 C11         7.3674   -5.5036   -1.5214 C.3     1  NONAME1    -0.0525
     13 C12         7.8846   -6.1747   -2.8033 C.3     1  NONAME1    -0.0447
     14 C13         9.1257   -7.0511   -2.6086 C.3     1  NONAME1     0.0259
     15 C14        10.4671   -6.3436   -2.7311 C.2     1  NONAME1     0.2354
     16 O2         10.6029   -5.1998   -3.1549 O.2     1  NONAME1    -0.2737
     17 N1         11.5143   -7.1798   -2.3825 N.am    1  NONAME1    -0.1975
     18 O3         12.7752   -6.5561   -2.2551 O.3     1  NONAME1    -0.2952
     19 C15         3.0923   -3.0679   -0.1014 C.ar    1  NONAME1    -0.0189
     20 C16         1.8188   -2.4987   -0.1576 C.ar    1  NONAME1    -0.0476
     21 C17         1.6813   -1.1201   -0.0968 C.ar    1  NONAME1     0.0181
     22 C18         0.3691   -0.4889   -0.1562 C.ar    1  NONAME1    -0.0443
     23 C19         0.2593    0.8421   -0.1003 C.ar    1  NONAME1     0.0236
     24 C20         1.4337    1.7122    0.0328 C.ar    1  NONAME1     0.3372
     25 O4          1.3209    2.9324    0.0661 O.2     1  NONAME1    -0.2452
     26 O5          2.6619    1.0719    0.1087 O.2     1  NONAME1    -0.4218
     27 C21         2.8334   -0.3351    0.0273 C.ar    1  NONAME1     0.1457
     28 H1          8.1017    0.6690   -0.5546 H       1  NONAME1     0.0232
     29 H2          8.1494    2.0542   -1.6636 H       1  NONAME1     0.0232
     30 H3          6.8514    0.9443   -1.8171 H       1  NONAME1     0.0232
     31 H4          8.0018    3.0800   -0.0366 H       1  NONAME1     0.0296
     32 H5          6.3886    1.5897    2.1416 H       1  NONAME1     0.0232
     33 H6          7.0847    3.1717    1.9543 H       1  NONAME1     0.0232
     34 H7          8.0702    1.7267    1.6252 H       1  NONAME1     0.0232
     35 H8          4.8541    1.7078   -0.9745 H       1  NONAME1     0.0271
     36 H9          4.6814    2.0359    0.7297 H       1  NONAME1     0.0271
     37 H10         6.0875   -0.3728   -0.4110 H       1  NONAME1     0.0316
     38 H11         5.6978   -0.1571    1.3033 H       1  NONAME1     0.0316
     39 H12         6.8842   -2.1041   -0.9138 H       1  NONAME1     0.0696
     40 H13         6.8258   -1.9214    0.8842 H       1  NONAME1     0.0696
     41 H14         7.3830   -4.4574    0.9532 H       1  NONAME1     0.0298
     42 H15         8.6169   -3.2171    0.7063 H       1  NONAME1     0.0298
     43 H16         9.2523   -4.7444   -0.8346 H       1  NONAME1     0.0266
     44 H17         8.3593   -3.6067   -1.8347 H       1  NONAME1     0.0266
     45 H18         6.3575   -5.1229   -1.7142 H       1  NONAME1     0.0265
     46 H19         7.2742   -6.2551   -0.7278 H       1  NONAME1     0.0265
     47 H20         8.0453   -5.4249   -3.5859 H       1  NONAME1     0.0270
     48 H21         7.0798   -6.8307   -3.1603 H       1  NONAME1     0.0270
     49 H22         9.0785   -7.5665   -1.6422 H       1  NONAME1     0.0359
     50 H23         9.1237   -7.8215   -3.3910 H       1  NONAME1     0.0359
     51 H24        11.3502   -7.9476   -1.7396 H       1  NONAME1     0.1822
     52 H25        13.1295   -6.6213   -3.1618 H       1  NONAME1     0.2414
     53 H26         3.1810   -4.1524   -0.1442 H       1  NONAME1     0.0654
     54 H27         0.9501   -3.1456   -0.2440 H       1  NONAME1     0.0626
     55 H28        -0.5135   -1.1144   -0.2435 H       1  NONAME1     0.0627
     56 H29        -0.6985    1.3448   -0.1463 H       1  NONAME1     0.0689
@<TRIPOS>BOND
     1     1     2    1
     2     2     3    1
     3     2     4    1
     4     4     5    1
     5     5     6    1
     6     6     7   ar
     7     7     8    1
     8     8     9    1
     9     9    10    1
    10    10    11    1
    11    11    12    1
    12    12    13    1
    13    13    14    1
    14    14    15    1
    15    15    16    2
    16    15    17   am
    17    17    18    1
    18     7    19   ar
    19    19    20   ar
    20    20    21   ar
    21    21    22   ar
    22    22    23   ar
    23    23    24   ar
    24    24    25    2
    25    24    26   ar
    26    26    27   ar
    27     6    27   ar
    28    21    27   ar
    29     1    28    1
    30     1    29    1
    31     1    30    1
    32     2    31    1
    33     3    32    1
    34     3    33    1
    35     3    34    1
    36     4    35    1
    37     4    36    1
    38     5    37    1
    39     5    38    1
    40     9    39    1
    41     9    40    1
    42    10    41    1
    43    10    42    1
    44    11    43    1
    45    11    44    1
    46    12    45    1
    47    12    46    1
    48    13    47    1
    49    13    48    1
    50    14    49    1
    51    14    50    1
    52    17    51    1
    53    18    52    1
    54    19    53    1
    55    20    54    1
    56    22    55    1
    57    23    56    1
