REMARK  6 active torsions:
REMARK  status: ('A' for Active; 'I' for Inactive)
REMARK    1  A    between atoms: O1_2  and  C2_3 
REMARK    2  A    between atoms: C5_6  and  C6_7 
REMARK    3  A    between atoms: C6_7  and  N1_8 
REMARK       I    between atoms: N1_8  and  C7_9 
REMARK    4  A    between atoms: C7_9  and  C8_11 
REMARK    5  A    between atoms: C12_16  and  C13_17 
REMARK       I    between atoms: C13_17  and  N2_19 
REMARK    6  A    between atoms: N2_19  and  O4_20 
ROOT
ATOM      1  C8  NON d   1       6.395   3.493  -0.130  0.00  0.00     0.032 A 
ATOM      2  C9  NON d   1       6.371   2.100  -0.129  0.00  0.00     0.018 A 
ATOM      3  C10 NON d   1       5.154   1.408  -0.041  0.00  0.00     0.021 A 
ATOM      4  C11 NON d   1       3.950   2.138   0.030  0.00  0.00     0.016 A 
ATOM      5  S1  NON d   1       2.350   1.512   0.132  0.00  0.00    -0.084 SA
ATOM      6  C12 NON d   1       1.638   3.069   0.143  0.00  0.00     0.076 A 
ATOM      7  C14 NON d   1       2.608   4.051   0.087  0.00  0.00     0.037 A 
ATOM      8  C15 NON d   1       3.946   3.532   0.020  0.00  0.00    -0.017 A 
ATOM      9  C16 NON d   1       5.187   4.206  -0.057  0.00  0.00     0.030 A 
ENDROOT
BRANCH   1  10
ATOM     10  C7  NON d   1       7.654   4.280  -0.269  0.00  0.00     0.251 C 
ATOM     11  N1  NON d   1       8.845   3.649   0.036  0.00  0.00    -0.353 N 
ATOM     12  H8  NON d   1       8.814   2.844   0.644  0.00  0.00     0.163 HD
ATOM     13  O2  NON d   1       7.597   5.455  -0.622  0.00  0.00    -0.268 OA
BRANCH  11  14
ATOM     14  C6  NON d   1      10.072   4.419   0.002  0.00  0.00     0.161 C 
BRANCH  14  15
ATOM     15  C5  NON d   1      11.351   3.619  -0.011  0.00  0.00    -0.040 A 
ATOM     16  C4  NON d   1      11.409   2.222  -0.068  0.00  0.00     0.011 A 
ATOM     17  C3  NON d   1      12.644   1.563  -0.069  0.00  0.00     0.037 A 
ATOM     18  C2  NON d   1      13.842   2.279  -0.027  0.00  0.00     0.068 A 
ATOM     19  C18 NON d   1      13.797   3.670   0.001  0.00  0.00     0.037 A 
ATOM     20  C17 NON d   1      12.564   4.330   0.012  0.00  0.00     0.011 A 
BRANCH  18  21
ATOM     21  O1  NON d   1      14.973   1.510  -0.024  0.00  0.00    -0.356 OA
ATOM     22  C1  NON d   1      16.213   2.197   0.095  0.00  0.00     0.210 C 
ENDBRANCH  18  21
ENDBRANCH  14  15
ENDBRANCH  11  14
ENDBRANCH   1  10
BRANCH   6  23
ATOM     23  C13 NON d   1       0.190   3.193   0.223  0.00  0.00     0.281 C 
ATOM     24  O3  NON d   1      -0.589   2.280   0.505  0.00  0.00    -0.265 OA
ATOM     25  N2  NON d   1      -0.311   4.449  -0.065  0.00  0.00    -0.233 N 
ATOM     26  H11 NON d   1       0.216   5.160  -0.557  0.00  0.00     0.197 HD
BRANCH  25  27
ATOM     27  O4  NON d   1      -1.720   4.570  -0.107  0.00  0.00    -0.287 OA
ATOM     28  H12 NON d   1      -2.018   3.672   0.160  0.00  0.00     0.244 HD
ENDBRANCH  25  27
ENDBRANCH   6  23
TORSDOF 6
