@<TRIPOS>MOLECULE
*****
 59 62 0 0 0
SMALL
USER_CHARGES

@<TRIPOS>ATOM
      1 C1          8.4222  -11.9487    0.9270 C.3     1  NONAME1     0.0790
      2 O1          7.9176  -12.5368   -0.2717 O.3     1  NONAME1    -0.4915
      3 C2          7.7852  -13.8921   -0.1318 C.ar    1  NONAME1     0.1615
      4 C3          8.9306  -14.6766   -0.1962 C.ar    1  NONAME1    -0.0157
      5 C4          8.8427  -16.0742   -0.1342 C.ar    1  NONAME1    -0.0489
      6 C5          7.6146  -16.7664   -0.0151 C.ar    1  NONAME1     0.0042
      7 C6          7.5761  -18.2803    0.0229 C.ar    1  NONAME1     0.0761
      8 C7          8.7508  -19.0205    0.0800 C.ar    1  NONAME1    -0.0174
      9 C8          8.6511  -20.3849    0.0170 C.ar    1  NONAME1     0.0332
     10 N1          7.4858  -21.0243   -0.0806 N.ar    1  NONAME1    -0.2229
     11 C9          6.3706  -20.2803   -0.0954 C.ar    1  NONAME1     0.2159
     12 N2          5.1420  -20.9533   -0.1654 N.pl3   1  NONAME1    -0.3093
     13 C10         5.2316  -22.3886    0.1180 C.3     1  NONAME1     0.0370
     14 C11         3.9263  -23.1745    0.0108 C.ar    1  NONAME1    -0.0303
     15 C12         3.9764  -24.5873    0.0568 C.ar    1  NONAME1    -0.0564
     16 C13         2.8146  -25.3824   -0.0236 C.ar    1  NONAME1    -0.0493
     17 C14         1.5601  -24.7804   -0.1452 C.ar    1  NONAME1     0.0370
     18 C15         0.2518  -25.5185   -0.2695 C.2     1  NONAME1     0.2483
     19 O2         -0.7184  -24.8785   -0.6724 O.2     1  NONAME1    -0.2699
     20 N3          0.2272  -26.8689    0.0466 N.am    1  NONAME1    -0.2800
     21 C16        -0.8984  -27.7564    0.0449 C.ar    1  NONAME1     0.0545
     22 C17        -0.5792  -29.1300   -0.0014 C.ar    1  NONAME1    -0.0387
     23 C18        -1.5722  -30.1162   -0.0171 C.ar    1  NONAME1    -0.0599
     24 C19        -2.9093  -29.7526    0.0467 C.ar    1  NONAME1    -0.0599
     25 C20        -3.2456  -28.4042    0.1284 C.ar    1  NONAME1    -0.0392
     26 C21        -2.2655  -27.3914    0.0924 C.ar    1  NONAME1     0.0461
     27 N4         -2.7153  -26.0883    0.3917 N.pl3   1  NONAME1    -0.3565
     28 C22         1.5092  -23.3735   -0.1853 C.ar    1  NONAME1    -0.0493
     29 C23         2.6684  -22.5837   -0.1087 C.ar    1  NONAME1    -0.0564
     30 N5          6.3724  -18.9241   -0.0301 N.ar    1  NONAME1    -0.2145
     31 C24         6.4688  -15.9359    0.0288 C.ar    1  NONAME1    -0.0071
     32 C25         6.5408  -14.5090   -0.0340 C.ar    1  NONAME1     0.1621
     33 O3          5.3347  -13.8600    0.0000 O.3     1  NONAME1    -0.4914
     34 C26         5.3347  -12.3200    0.0000 C.3     1  NONAME1     0.0790
     35 H1          9.4950  -12.1368    1.0317 H       1  NONAME1     0.0660
     36 H2          8.2725  -10.8673    0.8506 H       1  NONAME1     0.0660
     37 H3          7.8800  -12.3021    1.8115 H       1  NONAME1     0.0660
     38 H4          9.9042  -14.2099   -0.3212 H       1  NONAME1     0.0655
     39 H5          9.7886  -16.6013   -0.2114 H       1  NONAME1     0.0625
     40 H6          9.7359  -18.5882    0.1585 H       1  NONAME1     0.0654
     41 H7          9.5329  -21.0182    0.0375 H       1  NONAME1     0.0831
     42 H8          4.4885  -20.4217    0.3936 H       1  NONAME1     0.1492
     43 H9          5.6234  -22.5483    1.1316 H       1  NONAME1     0.0512
     44 H10         5.9180  -22.8559   -0.6015 H       1  NONAME1     0.0512
     45 H11         4.9414  -25.0882    0.1434 H       1  NONAME1     0.0621
     46 H12         2.9381  -26.4606   -0.0132 H       1  NONAME1     0.0625
     47 H13         1.1104  -27.3198    0.2149 H       1  NONAME1     0.1552
     48 H14         0.4563  -29.4571   -0.0445 H       1  NONAME1     0.0637
     49 H15        -1.3007  -31.1675   -0.0673 H       1  NONAME1     0.0618
     50 H16        -3.6895  -30.5089    0.0586 H       1  NONAME1     0.0618
     51 H17        -4.2944  -28.1349    0.2356 H       1  NONAME1     0.0636
     52 H18        -2.0649  -25.3929    0.0091 H       1  NONAME1     0.1424
     53 H19        -3.6521  -25.9037    0.0507 H       1  NONAME1     0.1424
     54 H20         0.5473  -22.8715   -0.2851 H       1  NONAME1     0.0625
     55 H21         2.5610  -21.5040   -0.1601 H       1  NONAME1     0.0621
     56 H22         5.4841  -16.3983    0.1004 H       1  NONAME1     0.0662
     57 H23         5.1153  -12.2530   -1.0814 H       1  NONAME1     0.0660
     58 H24         5.3347  -10.7800    0.0000 H       1  NONAME1     0.0660
     59 H25         4.3779  -12.2583    0.5474 H       1  NONAME1     0.0660
@<TRIPOS>BOND
     1     1     2    1
     2     2     3    1
     3     3     4   ar
     4     4     5   ar
     5     5     6   ar
     6     6     7    1
     7     7     8   ar
     8     8     9   ar
     9     9    10   ar
    10    10    11   ar
    11    11    12    1
    12    12    13    1
    13    13    14    1
    14    14    15   ar
    15    15    16   ar
    16    16    17   ar
    17    17    18    1
    18    18    19    2
    19    18    20   am
    20    20    21    1
    21    21    22   ar
    22    22    23   ar
    23    23    24   ar
    24    24    25   ar
    25    25    26   ar
    26    21    26   ar
    27    26    27    1
    28    17    28   ar
    29    28    29   ar
    30    14    29   ar
    31    11    30   ar
    32     7    30   ar
    33     6    31   ar
    34    31    32   ar
    35     3    32   ar
    36    32    33    1
    37    33    34    1
    38     1    35    1
    39     1    36    1
    40     1    37    1
    41     4    38    1
    42     5    39    1
    43     8    40    1
    44     9    41    1
    45    12    42    1
    46    13    43    1
    47    13    44    1
    48    15    45    1
    49    16    46    1
    50    20    47    1
    51    22    48    1
    52    23    49    1
    53    24    50    1
    54    25    51    1
    55    27    52    1
    56    27    53    1
    57    28    54    1
    58    29    55    1
    59    31    56    1
    60    34    57    1
    61    34    58    1
    62    34    59    1
