REMARK  6 active torsions:
REMARK  status: ('A' for Active; 'I' for Inactive)
REMARK    1  A    between atoms: O1_2  and  C2_3 
REMARK    2  A    between atoms: C5_6  and  C6_7 
REMARK    3  A    between atoms: C6_7  and  N1_8 
REMARK       I    between atoms: N1_8  and  C7_9 
REMARK    4  A    between atoms: C7_9  and  C8_11 
REMARK    5  A    between atoms: C11_14  and  C12_15 
REMARK    6  A    between atoms: C12_15  and  C13_17 
ROOT
ATOM      1  N1  NON d   1      -0.803  11.621  -0.131  0.00  0.00    -0.352 N 
ATOM      2  C7  NON d   1      -2.027  11.006  -0.376  0.00  0.00     0.258 C 
ATOM      3  O2  NON d   1      -3.015  11.682  -0.659  0.00  0.00    -0.267 OA
ATOM      4  H8  NON d   1      -0.112  11.099   0.384  0.00  0.00     0.163 HD
ENDROOT
BRANCH   2   5
ATOM      5  C8  NON d   1      -2.062   9.553  -0.241  0.00  0.00     0.073 A 
ATOM      6  C9  NON d   1      -1.048   8.618  -0.153  0.00  0.00     0.026 A 
ATOM      7  C10 NON d   1      -1.543   7.276  -0.052  0.00  0.00     0.024 A 
ATOM      8  C11 NON d   1      -2.925   7.215  -0.056  0.00  0.00     0.061 A 
ATOM      9  S1  NON d   1      -3.597   8.784  -0.194  0.00  0.00    -0.081 SA
BRANCH   8  10
ATOM     10  C12 NON d   1      -3.831   6.064   0.029  0.00  0.00     0.272 C 
ATOM     11  O3  NON d   1      -5.060   6.175   0.002  0.00  0.00    -0.282 OA
BRANCH  10  12
ATOM     12  C13 NON d   1      -3.168   4.692   0.146  0.00  0.00     0.456 C 
ATOM     13  F1  NON d   1      -2.438   4.375  -0.962  0.00  0.00    -0.163 F 
ATOM     14  F2  NON d   1      -4.055   3.673   0.320  0.00  0.00    -0.163 F 
ATOM     15  F3  NON d   1      -2.301   4.620   1.198  0.00  0.00    -0.163 F 
ENDBRANCH  10  12
ENDBRANCH   8  10
ENDBRANCH   2   5
BRANCH   1  16
ATOM     16  C6  NON d   1      -0.789  13.067  -0.033  0.00  0.00     0.161 C 
BRANCH  16  17
ATOM     17  C5  NON d   1       0.556  13.755  -0.048  0.00  0.00    -0.040 A 
ATOM     18  C4  NON d   1       1.789  13.099  -0.044  0.00  0.00     0.011 A 
ATOM     19  C3  NON d   1       2.980  13.838  -0.032  0.00  0.00     0.037 A 
ATOM     20  C2  NON d   1       2.969  15.238  -0.028  0.00  0.00     0.068 A 
ATOM     21  C15 NON d   1       1.752  15.903  -0.044  0.00  0.00     0.037 A 
ATOM     22  C14 NON d   1       0.560  15.165  -0.050  0.00  0.00     0.011 A 
BRANCH  20  23
ATOM     23  O1  NON d   1       4.200  15.825   0.000  0.00  0.00    -0.356 OA
ATOM     24  C1  NON d   1       4.200  17.365   0.000  0.00  0.00     0.210 C 
ENDBRANCH  20  23
ENDBRANCH  16  17
ENDBRANCH   1  16
TORSDOF 6
