REMARK  7 active torsions:
REMARK  status: ('A' for Active; 'I' for Inactive)
REMARK    1  A    between atoms: N1_1  and  C1_2 
REMARK    2  A    between atoms: C6_7  and  N2_8 
REMARK       I    between atoms: N2_8  and  C7_9 
REMARK    3  A    between atoms: C7_9  and  C8_11 
REMARK    4  A    between atoms: C9_12  and  C10_13 
REMARK    5  A    between atoms: C13_16  and  N3_17 
REMARK    6  A    between atoms: N3_17  and  S1_18 
REMARK    7  A    between atoms: S1_18  and  C14_21 
ROOT
ATOM      1  C10 NON d   1       3.124 -10.148   0.124  0.00  0.00    -0.036 A 
ATOM      2  C11 NON d   1       2.519  -8.883   0.226  0.00  0.00     0.013 A 
ATOM      3  C12 NON d   1       3.281  -7.717   0.335  0.00  0.00     0.025 A 
ATOM      4  C13 NON d   1       4.669  -7.793   0.339  0.00  0.00     0.022 A 
ATOM      5  C26 NON d   1       5.292  -9.036   0.208  0.00  0.00     0.025 A 
ATOM      6  C27 NON d   1       4.522 -10.209   0.107  0.00  0.00     0.013 A 
ENDROOT
BRANCH   4   7
ATOM      7  N3  NON d   1       5.444  -6.588   0.443  0.00  0.00    -0.181 NA
ATOM      8  H12 NON d   1       6.395  -6.774   0.764  0.00  0.00     0.146 HD
BRANCH   7   9
ATOM      9  S1  NON d   1       5.576  -5.667  -0.990  0.00  0.00     0.246 S 
ATOM     10  O2  NON d   1       6.939  -5.827  -1.438  0.00  0.00    -0.206 OA
ATOM     11  O3  NON d   1       4.470  -5.955  -1.877  0.00  0.00    -0.206 OA
BRANCH   9  12
ATOM     12  C14 NON d   1       5.325  -4.013  -0.372  0.00  0.00     0.088 A 
ATOM     13  C15 NON d   1       3.968  -3.621  -0.230  0.00  0.00     0.026 A 
ATOM     14  C16 NON d   1       3.609  -2.323   0.120  0.00  0.00     0.004 A 
ATOM     15  C17 NON d   1       4.587  -1.357   0.317  0.00  0.00     0.038 A 
ATOM     16  C18 NON d   1       5.915  -1.760   0.180  0.00  0.00     0.088 A 
ATOM     17  O4  NON d   1       6.962  -0.912   0.323  0.00  0.00    -0.309 OA
ATOM     18  C25 NON d   1       6.344  -3.057  -0.129  0.00  0.00     0.034 A 
ATOM     19  C19 NON d   1       8.091  -1.639   0.150  0.00  0.00     0.087 A 
ATOM     20  C20 NON d   1       9.380  -1.110   0.222  0.00  0.00     0.038 A 
ATOM     21  C24 NON d   1       7.784  -2.977  -0.092  0.00  0.00     0.012 A 
ATOM     22  C21 NON d   1      10.437  -2.005   0.063  0.00  0.00     0.003 A 
ATOM     23  C22 NON d   1      10.192  -3.361  -0.144  0.00  0.00     0.001 A 
ATOM     24  C23 NON d   1       8.879  -3.858  -0.220  0.00  0.00     0.015 A 
ENDBRANCH   9  12
ENDBRANCH   7   9
ENDBRANCH   4   7
BRANCH   1  25
ATOM     25  C9  NON d   1       2.227 -11.316   0.064  0.00  0.00     0.017 C 
ATOM     26  C8  NON d   1       2.524 -12.628   0.022  0.00  0.00     0.075 C 
BRANCH  26  27
ATOM     27  C7  NON d   1       1.376 -13.591   0.055  0.00  0.00     0.245 C 
ATOM     28  N2  NON d   1       1.759 -14.910  -0.022  0.00  0.00    -0.322 N 
ATOM     29  H7  NON d   1       2.735 -15.139  -0.171  0.00  0.00     0.169 HD
ATOM     30  O1  NON d   1       0.228 -13.174   0.166  0.00  0.00    -0.268 OA
BRANCH  28  31
ATOM     31  C6  NON d   1       0.913 -16.049  -0.010  0.00  0.00     0.056 A 
ATOM     32  C5  NON d   1      -0.483 -15.979   0.034  0.00  0.00     0.031 A 
ATOM     33  C4  NON d   1      -1.255 -17.143  -0.018  0.00  0.00     0.002 A 
ATOM     34  C3  NON d   1      -0.640 -18.387  -0.126  0.00  0.00     0.002 A 
ATOM     35  C2  NON d   1       0.752 -18.473  -0.160  0.00  0.00     0.025 A 
ATOM     36  C1  NON d   1       1.536 -17.316  -0.070  0.00  0.00     0.033 A 
BRANCH  36  37
ATOM     37  N1  NON d   1       2.950 -17.423  -0.064  0.00  0.00    -0.301 NA
ATOM     38  H1  NON d   1       3.256 -18.393  -0.076  0.00  0.00     0.124 HD
ATOM     39  H2  NON d   1       3.330 -16.954   0.756  0.00  0.00     0.124 HD
ENDBRANCH  36  37
ENDBRANCH  28  31
ENDBRANCH  26  27
ENDBRANCH   1  25
TORSDOF 7
