@<TRIPOS>MOLECULE
*****
 56 59 0 0 0
SMALL
USER_CHARGES

@<TRIPOS>ATOM
      1 C1        -11.8039   -5.5050    0.0000 C.3     1  NONAME1    -0.0224
      2 C2        -11.8039   -7.0450    0.0000 C.ar    1  NONAME1     0.0405
      3 C3        -10.6585   -7.8526    0.0159 C.ar    1  NONAME1     0.0099
      4 C4         -9.2256   -7.3740   -0.0215 C.3     1  NONAME1     0.0375
      5 N1         -8.1238   -8.3201    0.2011 N.pl3   1  NONAME1    -0.3396
      6 C5         -6.7991   -7.8541    0.0883 C.ar    1  NONAME1     0.0274
      7 C6         -6.4441   -6.5039    0.1500 C.ar    1  NONAME1    -0.0401
      8 C7         -5.1039   -6.0939    0.0755 C.ar    1  NONAME1    -0.0479
      9 C8         -4.0552   -7.0197   -0.0256 C.ar    1  NONAME1     0.0371
     10 C9         -2.6633   -6.4605   -0.1557 C.2     1  NONAME1     0.2483
     11 O1         -2.5666   -5.2579   -0.3884 O.2     1  NONAME1    -0.2699
     12 N2         -1.5929   -7.3278   -0.0173 N.am    1  NONAME1    -0.2799
     13 C10        -0.2054   -6.9939   -0.0218 C.ar    1  NONAME1     0.0551
     14 C11         0.2858   -5.6779   -0.0749 C.ar    1  NONAME1    -0.0310
     15 C12         1.6593   -5.3599    0.0553 C.ar    1  NONAME1    -0.0160
     16 C13         2.1594   -3.9426    0.0238 C.ar    1  NONAME1    -0.0178
     17 C14         1.2847   -2.8377    0.1149 C.ar    1  NONAME1    -0.0540
     18 C15         1.7431   -1.5124    0.0849 C.ar    1  NONAME1    -0.0612
     19 C16         3.1002   -1.2440   -0.0235 C.ar    1  NONAME1    -0.0617
     20 C17         3.9948   -2.3018   -0.1084 C.ar    1  NONAME1    -0.0612
     21 C18         3.5291   -3.6256   -0.0926 C.ar    1  NONAME1    -0.0540
     22 C19         2.5266   -6.4510    0.2413 C.ar    1  NONAME1    -0.0522
     23 C20         2.0639   -7.7744    0.2570 C.ar    1  NONAME1    -0.0387
     24 C21         0.7093   -8.0580    0.0794 C.ar    1  NONAME1     0.0461
     25 N3          0.2628   -9.4014    0.0980 N.pl3   1  NONAME1    -0.3565
     26 C22        -4.3876   -8.3768   -0.0255 C.ar    1  NONAME1    -0.0479
     27 C23        -5.7416   -8.7798    0.0433 C.ar    1  NONAME1    -0.0401
     28 C24       -11.1712   -9.1621    0.0698 C.ar    1  NONAME1     0.0543
     29 N4        -12.5063   -9.1935    0.0803 N.ar    1  NONAME1    -0.1793
     30 N5        -12.8714   -7.8954    0.0708 N.ar    1  NONAME1    -0.2713
     31 C25       -14.2748   -7.5640    0.1220 C.3     1  NONAME1     0.0305
     32 H1        -11.0456   -5.4101   -0.8070 H       1  NONAME1     0.0292
     33 H2        -11.8039   -3.9650    0.0000 H       1  NONAME1     0.0292
     34 H3        -12.7943   -5.4047   -0.4918 H       1  NONAME1     0.0292
     35 H4         -9.1560   -6.5868    0.7407 H       1  NONAME1     0.0512
     36 H5         -9.0807   -6.9009   -1.0024 H       1  NONAME1     0.0512
     37 H6         -8.2535   -9.1896   -0.3081 H       1  NONAME1     0.1464
     38 H7         -7.1917   -5.7227    0.2429 H       1  NONAME1     0.0636
     39 H8         -4.8866   -5.0263    0.0975 H       1  NONAME1     0.0626
     40 H9         -1.7608   -8.2952    0.2234 H       1  NONAME1     0.1552
     41 H10        -0.4214   -4.8704   -0.2000 H       1  NONAME1     0.0643
     42 H11         0.2108   -2.9738    0.2174 H       1  NONAME1     0.0624
     43 H12         1.0294   -0.6950    0.1489 H       1  NONAME1     0.0618
     44 H13         3.4580   -0.2185   -0.0397 H       1  NONAME1     0.0618
     45 H14         5.0612   -2.1044   -0.1900 H       1  NONAME1     0.0618
     46 H15         4.2817   -4.4035   -0.1825 H       1  NONAME1     0.0624
     47 H16         3.5938   -6.3047    0.3852 H       1  NONAME1     0.0624
     48 H17         2.7860   -8.5749    0.3931 H       1  NONAME1     0.0637
     49 H18        -0.3696   -9.5674   -0.6817 H       1  NONAME1     0.1424
     50 H19         1.0387  -10.0580    0.0538 H       1  NONAME1     0.1424
     51 H20        -3.6310   -9.1511   -0.0903 H       1  NONAME1     0.0626
     52 H21        -5.9633   -9.8455    0.0573 H       1  NONAME1     0.0636
     53 H22       -10.6283  -10.0977    0.1014 H       1  NONAME1     0.0851
     54 H23       -14.4092   -6.6630    0.7247 H       1  NONAME1     0.0473
     55 H24       -14.6218   -7.4011   -0.9010 H       1  NONAME1     0.0473
     56 H25       -14.8241   -8.3908    0.5805 H       1  NONAME1     0.0473
@<TRIPOS>BOND
     1     1     2    1
     2     2     3   ar
     3     3     4    1
     4     4     5    1
     5     5     6    1
     6     6     7   ar
     7     7     8   ar
     8     8     9   ar
     9     9    10    1
    10    10    11    2
    11    10    12   am
    12    12    13    1
    13    13    14   ar
    14    14    15   ar
    15    15    16    1
    16    16    17   ar
    17    17    18   ar
    18    18    19   ar
    19    19    20   ar
    20    20    21   ar
    21    16    21   ar
    22    15    22   ar
    23    22    23   ar
    24    23    24   ar
    25    13    24   ar
    26    24    25    1
    27     9    26   ar
    28    26    27   ar
    29     6    27   ar
    30     3    28   ar
    31    28    29   ar
    32    29    30   ar
    33     2    30   ar
    34    30    31    1
    35     1    32    1
    36     1    33    1
    37     1    34    1
    38     4    35    1
    39     4    36    1
    40     5    37    1
    41     7    38    1
    42     8    39    1
    43    12    40    1
    44    14    41    1
    45    17    42    1
    46    18    43    1
    47    19    44    1
    48    20    45    1
    49    21    46    1
    50    22    47    1
    51    23    48    1
    52    25    49    1
    53    25    50    1
    54    26    51    1
    55    27    52    1
    56    28    53    1
    57    31    54    1
    58    31    55    1
    59    31    56    1
