REMARK  14 active torsions:
REMARK  status: ('A' for Active; 'I' for Inactive)
REMARK    1  A    between atoms: O1_2  and  C2_3 
REMARK    2  A    between atoms: C8_10  and  C9_11 
REMARK    3  A    between atoms: C9_11  and  C10_12 
REMARK       I    between atoms: C10_12  and  N2_14 
REMARK    4  A    between atoms: C11_15  and  N2_14 
REMARK    5  A    between atoms: C11_15  and  C12_16 
REMARK    6  A    between atoms: C11_15  and  C16_25 
REMARK    7  A    between atoms: C12_16  and  C13_17 
REMARK    8  A    between atoms: C13_17  and  C14_18 
REMARK    9  A    between atoms: C14_18  and  C15_19 
REMARK   10  A    between atoms: C15_19  and  N3_20 
REMARK   11  A    between atoms: N3_20  and  S1_21 
REMARK   12  A    between atoms: S1_21  and  N4_22 
REMARK       I    between atoms: C16_25  and  N5_27 
REMARK   13  A    between atoms: N5_27  and  C17_28 
REMARK   14  A    between atoms: C18_30  and  C19_31 
ROOT
ATOM      1  C11 NON d   1       8.825   0.345   0.559  0.00  0.00     0.177 C 
ENDROOT
BRANCH   1   2
ATOM      2  N2  NON d   1       7.337   0.720   0.466  0.00  0.00    -0.348 N 
ATOM      3  C10 NON d   1       6.728   1.808  -0.180  0.00  0.00     0.222 C 
ATOM      4  O2  NON d   1       7.380   2.543  -0.917  0.00  0.00    -0.273 OA
ATOM      5  H12 NON d   1       6.712  -0.029   0.742  0.00  0.00     0.163 HD
BRANCH   3   6
ATOM      6  C9  NON d   1       5.166   1.987   0.041  0.00  0.00     0.144 C 
BRANCH   6   7
ATOM      7  C8  NON d   1       4.546   3.423   0.029  0.00  0.00    -0.015 A 
ATOM      8  C6  NON d   1       5.242   4.634   0.112  0.00  0.00     0.013 A 
ATOM      9  N1  NON d   1       4.348   5.664  -0.007  0.00  0.00    -0.359 N 
ATOM     10  C7  NON d   1       6.682   4.996   0.262  0.00  0.00     0.068 C 
ATOM     11  C5  NON d   1       3.057   5.220  -0.047  0.00  0.00     0.043 A 
ATOM     12  H6  NON d   1       4.602   6.642  -0.020  0.00  0.00     0.166 HD
ATOM     13  C4  NON d   1       1.879   5.989  -0.107  0.00  0.00     0.033 A 
ATOM     14  C26 NON d   1       3.091   3.823  -0.015  0.00  0.00     0.002 A 
ATOM     15  C3  NON d   1       0.636   5.352  -0.105  0.00  0.00     0.039 A 
ATOM     16  C2  NON d   1       0.562   3.974  -0.049  0.00  0.00     0.069 A 
ATOM     17  C27 NON d   1       1.786   3.200  -0.023  0.00  0.00     0.051 A 
BRANCH  16  18
ATOM     18  O1  NON d   1      -0.645   3.306   0.000  0.00  0.00    -0.356 OA
ATOM     19  C1  NON d   1      -1.993   4.050   0.000  0.00  0.00     0.210 C 
ENDBRANCH  16  18
ENDBRANCH   6   7
ENDBRANCH   3   6
ENDBRANCH   1   2
BRANCH   1  20
ATOM     20  C12 NON d   1       9.764   1.229  -0.308  0.00  0.00     0.035 C 
BRANCH  20  21
ATOM     21  C13 NON d   1      11.295   1.026  -0.218  0.00  0.00     0.004 C 
BRANCH  21  22
ATOM     22  C14 NON d   1      11.993   0.579  -1.520  0.00  0.00     0.015 C 
BRANCH  22  23
ATOM     23  C15 NON d   1      11.417  -0.684  -2.142  0.00  0.00     0.105 C 
BRANCH  23  24
ATOM     24  N3  NON d   1      12.111  -1.108  -3.383  0.00  0.00    -0.207 NA
ATOM     25  H22 NON d   1      11.519  -1.786  -3.869  0.00  0.00     0.140 HD
BRANCH  24  26
ATOM     26  S1  NON d   1      13.586  -1.864  -3.169  0.00  0.00     0.276 S 
ATOM     27  O3  NON d   1      13.435  -2.975  -2.273  0.00  0.00    -0.194 OA
ATOM     28  O4  NON d   1      14.629  -0.880  -3.064  0.00  0.00    -0.194 OA
BRANCH  26  29
ATOM     29  N4  NON d   1      13.678  -2.490  -4.702  0.00  0.00    -0.216 NA
ATOM     30  H23 NON d   1      13.978  -1.752  -5.345  0.00  0.00     0.137 HD
ATOM     31  H24 NON d   1      14.338  -3.266  -4.703  0.00  0.00     0.137 HD
ENDBRANCH  26  29
ENDBRANCH  24  26
ENDBRANCH  23  24
ENDBRANCH  22  23
ENDBRANCH  21  22
ENDBRANCH  20  21
ENDBRANCH   1  20
BRANCH   1  32
ATOM     32  C16 NON d   1       9.002  -1.212   0.316  0.00  0.00     0.246 C 
ATOM     33  O5  NON d   1       8.115  -1.821  -0.290  0.00  0.00    -0.271 OA
ATOM     34  N5  NON d   1      10.175  -1.787   0.809  0.00  0.00    -0.304 N 
ATOM     35  H25 NON d   1      10.847  -1.233   1.317  0.00  0.00     0.171 HD
BRANCH  34  36
ATOM     36  C17 NON d   1      10.657  -3.077   0.571  0.00  0.00     0.173 A 
ATOM     37  N6  NON d   1      11.893  -3.442   0.839  0.00  0.00    -0.223 NA
ATOM     38  C18 NON d   1      12.123  -4.763   0.394  0.00  0.00     0.076 A 
ATOM     39  C25 NON d   1      10.995  -5.365  -0.131  0.00  0.00     0.085 A 
ATOM     40  S2  NON d   1       9.671  -4.282  -0.120  0.00  0.00    -0.061 SA
BRANCH  38  41
ATOM     41  C19 NON d   1      13.437  -5.446   0.411  0.00  0.00    -0.007 A 
ATOM     42  C20 NON d   1      14.629  -4.719   0.342  0.00  0.00     0.014 A 
ATOM     43  C21 NON d   1      15.871  -5.374   0.243  0.00  0.00     0.001 A 
ATOM     44  C22 NON d   1      15.943  -6.766   0.220  0.00  0.00     0.000 A 
ATOM     45  C23 NON d   1      14.770  -7.508   0.312  0.00  0.00     0.001 A 
ATOM     46  C24 NON d   1      13.532  -6.854   0.411  0.00  0.00     0.014 A 
ENDBRANCH  38  41
ENDBRANCH  34  36
ENDBRANCH   1  32
TORSDOF 14
