@<TRIPOS>MOLECULE
*****
 38 40 0 0 0
SMALL
USER_CHARGES

@<TRIPOS>ATOM
      1 O1          9.2225    7.1796    0.5974 O.2     1  NONAME1    -0.2687
      2 C1          9.0277    6.0456    0.1696 C.2     1  NONAME1     0.2593
      3 C2          7.6483    5.5165    0.0206 C.2     1  NONAME1     0.0027
      4 C3          7.3448    4.2072    0.0011 C.2     1  NONAME1    -0.0496
      5 C4          5.9885    3.6178   -0.0458 C.ar    1  NONAME1    -0.0242
      6 C5          5.8877    2.2297   -0.1757 C.ar    1  NONAME1    -0.0526
      7 C6          4.6535    1.5698   -0.1609 C.ar    1  NONAME1    -0.0370
      8 C7          3.4938    2.3380    0.0175 C.ar    1  NONAME1     0.0494
      9 C8          3.5519    3.7238    0.1581 C.ar    1  NONAME1     0.0004
     10 C9          2.2237    4.1693    0.3816 C.ar    1  NONAME1    -0.0364
     11 C10         1.4082    3.0589    0.4359 C.ar    1  NONAME1     0.0061
     12 N1          2.1531    1.9603    0.1055 N.ar    1  NONAME1    -0.3423
     13 C11         1.7546    0.5534   -0.0605 C.3     1  NONAME1     0.0483
     14 C12         0.3104    0.1068   -0.0470 C.ar    1  NONAME1    -0.0278
     15 C13         0.0786   -1.2466    0.2827 C.ar    1  NONAME1    -0.0569
     16 C14        -1.2022   -1.7995    0.2560 C.ar    1  NONAME1    -0.0614
     17 C15        -2.2861   -1.0052   -0.0929 C.ar    1  NONAME1    -0.0617
     18 C16        -2.0802    0.3239   -0.4525 C.ar    1  NONAME1    -0.0614
     19 C17        -0.7884    0.8647   -0.4654 C.ar    1  NONAME1    -0.0569
     20 C18         4.8093    4.3705    0.1029 C.ar    1  NONAME1    -0.0454
     21 N2         10.0515    5.2320   -0.2303 N.am    1  NONAME1    -0.1940
     22 O2         11.3531    5.7776   -0.1608 O.3     1  NONAME1    -0.2949
     23 H1          6.8933    6.2926    0.0085 H       1  NONAME1     0.0670
     24 H2          8.1412    3.4710    0.0762 H       1  NONAME1     0.0625
     25 H3          6.7835    1.6201   -0.2758 H       1  NONAME1     0.0624
     26 H4          4.6148    0.4892   -0.2506 H       1  NONAME1     0.0638
     27 H5          1.9072    5.1897    0.5559 H       1  NONAME1     0.0639
     28 H6          0.3584    2.9988    0.6809 H       1  NONAME1     0.0809
     29 H7          2.1853    0.2359   -1.0186 H       1  NONAME1     0.0541
     30 H8          2.2826    0.0321    0.7498 H       1  NONAME1     0.0541
     31 H9          0.9135   -1.8961    0.5444 H       1  NONAME1     0.0621
     32 H10        -1.3479   -2.8487    0.4994 H       1  NONAME1     0.0618
     33 H11        -3.2886   -1.4261   -0.1039 H       1  NONAME1     0.0618
     34 H12        -2.9281    0.9407   -0.7422 H       1  NONAME1     0.0618
     35 H13        -0.6729    1.8837   -0.8217 H       1  NONAME1     0.0621
     36 H14         4.8320    5.4485    0.2242 H       1  NONAME1     0.0630
     37 H15         9.9434    4.3801   -0.7691 H       1  NONAME1     0.1825
     38 H16        11.1857    6.6602    0.2371 H       1  NONAME1     0.2414
@<TRIPOS>BOND
     1     1     2    2
     2     2     3    1
     3     3     4    2
     4     4     5    1
     5     5     6   ar
     6     6     7   ar
     7     7     8   ar
     8     8     9   ar
     9     9    10   ar
    10    10    11   ar
    11    11    12   ar
    12     8    12   ar
    13    12    13    1
    14    13    14    1
    15    14    15   ar
    16    15    16   ar
    17    16    17   ar
    18    17    18   ar
    19    18    19   ar
    20    14    19   ar
    21     9    20   ar
    22     5    20   ar
    23     2    21   am
    24    21    22    1
    25     3    23    1
    26     4    24    1
    27     6    25    1
    28     7    26    1
    29    10    27    1
    30    11    28    1
    31    13    29    1
    32    13    30    1
    33    15    31    1
    34    16    32    1
    35    17    33    1
    36    18    34    1
    37    19    35    1
    38    20    36    1
    39    21    37    1
    40    22    38    1
