REMARK  11 active torsions:
REMARK  status: ('A' for Active; 'I' for Inactive)
REMARK    1  A    between atoms: C1_2  and  C2_3 
REMARK       I    between atoms: C1_2  and  N5_35 
REMARK    2  A    between atoms: C2_3  and  C3_4 
REMARK    3  A    between atoms: C3_4  and  C4_5 
REMARK    4  A    between atoms: C4_5  and  C5_6 
REMARK    5  A    between atoms: C5_6  and  C6_7 
REMARK    6  A    between atoms: C6_7  and  C7_8 
REMARK    7  A    between atoms: C7_8  and  C8_9 
REMARK    8  A    between atoms: C7_8  and  C18_22 
REMARK       I    between atoms: C8_9  and  N1_11 
REMARK    9  A    between atoms: N1_11  and  C9_12 
REMARK       I    between atoms: C18_22  and  N3_24 
REMARK   10  A    between atoms: N3_24  and  C19_25 
REMARK   11  A    between atoms: N5_35  and  O4_36 
ROOT
ATOM      1  C7  NON d   1       7.003  -0.580  -0.366  0.00  0.00     0.170 C 
ENDROOT
BRANCH   1   2
ATOM      2  C6  NON d   1       8.466  -0.231  -0.024  0.00  0.00     0.024 C 
BRANCH   2   3
ATOM      3  C5  NON d   1       8.829   0.241   1.397  0.00  0.00     0.001 C 
BRANCH   3   4
ATOM      4  C4  NON d   1       8.506   1.718   1.674  0.00  0.00     0.001 C 
BRANCH   4   5
ATOM      5  C3  NON d   1       9.214   2.333   2.892  0.00  0.00     0.009 C 
BRANCH   5   6
ATOM      6  C2  NON d   1      10.569   2.981   2.590  0.00  0.00     0.105 C 
BRANCH   6   7
ATOM      7  C1  NON d   1      11.774   2.062   2.672  0.00  0.00     0.240 C 
ATOM      8  O1  NON d   1      11.713   0.876   2.976  0.00  0.00    -0.271 OA
ATOM      9  N5  NON d   1      12.947   2.752   2.406  0.00  0.00    -0.237 N 
ATOM     10  H26 NON d   1      12.925   3.624   1.888  0.00  0.00     0.197 HD
BRANCH   9  11
ATOM     11  O4  NON d   1      14.097   1.959   2.203  0.00  0.00    -0.287 OA
ATOM     12  H27 NON d   1      14.555   2.039   3.062  0.00  0.00     0.244 HD
ENDBRANCH   9  11
ENDBRANCH   6   7
ENDBRANCH   5   6
ENDBRANCH   4   5
ENDBRANCH   3   4
ENDBRANCH   2   3
ENDBRANCH   1   2
BRANCH   1  13
ATOM     13  C8  NON d   1       5.983   0.404   0.209  0.00  0.00     0.235 C 
ATOM     14  O2  NON d   1       5.249   0.110   1.148  0.00  0.00    -0.272 OA
ATOM     15  N1  NON d   1       6.036   1.655  -0.385  0.00  0.00    -0.326 N 
ATOM     16  H12 NON d   1       6.913   1.935  -0.796  0.00  0.00     0.169 HD
BRANCH  15  17
ATOM     17  C9  NON d   1       5.077   2.671  -0.193  0.00  0.00     0.035 A 
ATOM     18  C10 NON d   1       3.732   2.389   0.025  0.00  0.00     0.032 A 
ATOM     19  C11 NON d   1       2.803   3.432   0.116  0.00  0.00     0.035 A 
ATOM     20  C12 NON d   1       3.185   4.763   0.036  0.00  0.00     0.066 A 
ATOM     21  N2  NON d   1       2.255   5.728   0.139  0.00  0.00    -0.260 NA
ATOM     22  C16 NON d   1       4.554   5.049  -0.148  0.00  0.00    -0.005 A 
ATOM     23  C13 NON d   1       2.666   7.013   0.089  0.00  0.00     0.117 A 
ATOM     24  C14 NON d   1       3.986   7.395  -0.056  0.00  0.00     0.020 A 
ATOM     25  C15 NON d   1       4.943   6.396  -0.180  0.00  0.00     0.015 A 
ATOM     26  C17 NON d   1       5.487   4.003  -0.291  0.00  0.00     0.043 A 
ENDBRANCH  15  17
ENDBRANCH   1  13
BRANCH   1  27
ATOM     27  C18 NON d   1       6.477  -2.026  -0.271  0.00  0.00     0.235 C 
ATOM     28  O3  NON d   1       5.316  -2.246  -0.628  0.00  0.00    -0.272 OA
ATOM     29  N3  NON d   1       7.368  -3.029   0.067  0.00  0.00    -0.326 N 
ATOM     30  H19 NON d   1       8.338  -2.791   0.214  0.00  0.00     0.169 HD
BRANCH  29  31
ATOM     31  C19 NON d   1       7.085  -4.422   0.092  0.00  0.00     0.035 A 
ATOM     32  C20 NON d   1       8.166  -5.307   0.137  0.00  0.00     0.032 A 
ATOM     33  C21 NON d   1       7.955  -6.695   0.125  0.00  0.00     0.035 A 
ATOM     34  C22 NON d   1       6.684  -7.246   0.090  0.00  0.00     0.066 A 
ATOM     35  N4  NON d   1       6.533  -8.584   0.077  0.00  0.00    -0.260 NA
ATOM     36  C26 NON d   1       5.590  -6.361   0.069  0.00  0.00    -0.005 A 
ATOM     37  C23 NON d   1       5.276  -9.082   0.049  0.00  0.00     0.117 A 
ATOM     38  C24 NON d   1       4.139  -8.298   0.034  0.00  0.00     0.020 A 
ATOM     39  C25 NON d   1       4.302  -6.918   0.044  0.00  0.00     0.015 A 
ATOM     40  C27 NON d   1       5.798  -4.965   0.070  0.00  0.00     0.043 A 
ENDBRANCH  29  31
ENDBRANCH   1  27
TORSDOF 11
