@<TRIPOS>MOLECULE
*****
 40 40 0 0 0
SMALL
USER_CHARGES

@<TRIPOS>ATOM
      1 C1         -4.0010    0.7700    0.0000 C.3     1  NONAME1     0.0004
      2 N1         -4.0010    2.3100    0.0000 N.pl3   1  NONAME1    -0.3360
      3 C2         -5.3347    3.0800    0.0000 C.3     1  NONAME1     0.0004
      4 C3         -2.7674    2.9664    0.0662 C.ar    1  NONAME1     0.0292
      5 C4         -2.6634    4.3616    0.0859 C.ar    1  NONAME1    -0.0404
      6 C5         -1.4202    5.0256    0.0765 C.ar    1  NONAME1    -0.0553
      7 C6         -0.1971    4.3313    0.0638 C.ar    1  NONAME1    -0.0302
      8 C7          1.0709    5.1599   -0.0060 C.3     1  NONAME1     0.0383
      9 N2          2.3637    4.4922    0.0368 N.am    1  NONAME1    -0.2953
     10 C8          3.4749    5.3187    0.0030 C.2     1  NONAME1     0.2999
     11 O1          3.4126    6.5430   -0.0033 O.2     1  NONAME1    -0.2529
     12 N3          4.6601    4.6131   -0.0109 N.am    1  NONAME1    -0.2989
     13 C9          5.9171    5.3654    0.0568 C.3     1  NONAME1     0.0214
     14 C10         7.1452    4.4692   -0.0527 C.3     1  NONAME1     0.0415
     15 C11         8.4488    5.2399    0.0936 C.2     1  NONAME1     0.2369
     16 O2          8.5098    6.4589    0.1892 O.2     1  NONAME1    -0.2737
     17 N4          9.5483    4.3964    0.0595 N.am    1  NONAME1    -0.1975
     18 O3         10.7748    4.9923    0.4411 O.3     1  NONAME1    -0.2952
     19 C12        -0.2712    2.9412    0.0868 C.ar    1  NONAME1    -0.0553
     20 C13        -1.5333    2.2819    0.0860 C.ar    1  NONAME1    -0.0404
     21 H1         -5.0737    0.6340    0.2137 H       1  NONAME1     0.0428
     22 H2         -4.0010   -0.7700    0.0000 H       1  NONAME1     0.0428
     23 H3         -3.8312    0.6800   -1.0900 H       1  NONAME1     0.0428
     24 H4         -5.1136    3.6645   -0.9151 H       1  NONAME1     0.0428
     25 H5         -6.6684    3.8500    0.0000 H       1  NONAME1     0.0428
     26 H6         -5.9686    2.2442   -0.3452 H       1  NONAME1     0.0428
     27 H7         -3.5552    4.9815    0.0912 H       1  NONAME1     0.0636
     28 H8         -1.4193    6.1153    0.0662 H       1  NONAME1     0.0621
     29 H9          1.0566    5.8774    0.8252 H       1  NONAME1     0.0512
     30 H10         1.0457    5.7333   -0.9418 H       1  NONAME1     0.0512
     31 H11         2.4632    3.6699   -0.5387 H       1  NONAME1     0.1506
     32 H12         4.6044    3.7671    0.5377 H       1  NONAME1     0.1502
     33 H13         5.9245    5.9178    1.0040 H       1  NONAME1     0.0467
     34 H14         5.9145    6.1084   -0.7503 H       1  NONAME1     0.0467
     35 H15         7.1124    3.7029    0.7314 H       1  NONAME1     0.0374
     36 H16         7.1545    3.9583   -1.0226 H       1  NONAME1     0.0374
     37 H17         9.4470    3.4291    0.3474 H       1  NONAME1     0.1822
     38 H18        11.1339    5.2962   -0.4159 H       1  NONAME1     0.2414
     39 H19         0.6269    2.3357    0.0942 H       1  NONAME1     0.0621
     40 H20        -1.5155    1.1940    0.0882 H       1  NONAME1     0.0636
@<TRIPOS>BOND
     1     1     2    1
     2     2     3    1
     3     2     4    1
     4     4     5   ar
     5     5     6   ar
     6     6     7   ar
     7     7     8    1
     8     8     9    1
     9     9    10   am
    10    10    11    2
    11    10    12   am
    12    12    13    1
    13    13    14    1
    14    14    15    1
    15    15    16    2
    16    15    17   am
    17    17    18    1
    18     7    19   ar
    19    19    20   ar
    20     4    20   ar
    21     1    21    1
    22     1    22    1
    23     1    23    1
    24     3    24    1
    25     3    25    1
    26     3    26    1
    27     5    27    1
    28     6    28    1
    29     8    29    1
    30     8    30    1
    31     9    31    1
    32    12    32    1
    33    13    33    1
    34    13    34    1
    35    14    35    1
    36    14    36    1
    37    17    37    1
    38    18    38    1
    39    19    39    1
    40    20    40    1
