@<TRIPOS>MOLECULE
*****
 30 30 0 0 0
SMALL
USER_CHARGES

@<TRIPOS>ATOM
      1 O1         -2.9639   -3.5175    0.6817 O.2     1  NONAME1    -0.2688
      2 C1         -2.7507   -4.6965    0.4434 C.2     1  NONAME1     0.2618
      3 N1         -1.4976   -5.2651    0.3100 N.am    1  NONAME1    -0.3095
      4 C2         -0.2983   -4.4686    0.1171 C.3     1  NONAME1     0.0207
      5 C3          0.9452   -5.3547    0.0908 C.3     1  NONAME1     0.0063
      6 S1          2.4559   -4.3998   -0.2154 S.3     1  NONAME1    -0.1767
      7 C4         -3.8920   -5.6990    0.0977 C.2     1  NONAME1     0.1454
      8 C5         -5.2306   -5.0507   -0.1865 C.3     1  NONAME1     0.0231
      9 C6         -6.6078   -5.6502    0.0285 C.ar    1  NONAME1    -0.0390
     10 C7         -6.9434   -6.9820    0.2318 C.ar    1  NONAME1    -0.0404
     11 C8         -8.2947   -7.4177    0.2423 C.ar    1  NONAME1     0.0658
     12 Br1        -8.5291   -9.3246    0.3829 Br      1  NONAME1    -0.0463
     13 C9         -9.4149   -6.5506    0.1237 C.ar    1  NONAME1     0.2067
     14 O2        -10.6343   -6.9520    0.1360 O.3     1  NONAME1    -0.2856
     15 C10        -9.0344   -5.1929   -0.0089 C.ar    1  NONAME1     0.0658
     16 Br2       -10.3436   -3.7900   -0.1350 Br      1  NONAME1    -0.0463
     17 C11        -7.6905   -4.7620   -0.0661 C.ar    1  NONAME1    -0.0404
     18 N2         -3.4454   -6.9128   -0.1010 N.2     1  NONAME1    -0.0865
     19 O3         -4.3374   -7.7354   -0.7656 O.2     1  NONAME1    -0.4089
     20 H1         -1.5358   -6.2099   -0.0688 H       1  NONAME1     0.1491
     21 H2         -0.4175   -3.9341   -0.8339 H       1  NONAME1     0.0470
     22 H3         -0.2463   -3.7223    0.9173 H       1  NONAME1     0.0470
     23 H4          0.8538   -6.1097   -0.6983 H       1  NONAME1     0.0389
     24 H5          1.0523   -5.8899    1.0397 H       1  NONAME1     0.0389
     25 H6          3.3015   -5.4417   -0.1808 H       1  NONAME1     0.1017
     26 H7         -5.1815   -4.7241   -1.2334 H       1  NONAME1     0.0379
     27 H8         -5.2425   -4.1391    0.4277 H       1  NONAME1     0.0379
     28 H9         -6.1884   -7.7387    0.3736 H       1  NONAME1     0.0633
     29 H10        -7.4965   -3.6999   -0.2008 H       1  NONAME1     0.0633
     30 H11        -4.0073   -8.6314   -0.5617 H       1  NONAME1     0.3278
@<TRIPOS>BOND
     1     1     2    2
     2     2     3   am
     3     3     4    1
     4     4     5    1
     5     5     6    1
     6     2     7    1
     7     7     8    1
     8     8     9    1
     9     9    10   ar
    10    10    11   ar
    11    11    12    1
    12    11    13   ar
    13    13    14    1
    14    13    15   ar
    15    15    16    1
    16    15    17   ar
    17     9    17   ar
    18     7    18    2
    19    18    19    1
    20     3    20    1
    21     4    21    1
    22     4    22    1
    23     5    23    1
    24     5    24    1
    25     6    25    1
    26     8    26    1
    27     8    27    1
    28    10    28    1
    29    17    29    1
    30    19    30    1
