@<TRIPOS>MOLECULE
*****
 34 34 0 0 0
SMALL
USER_CHARGES

@<TRIPOS>ATOM
      1 O1         10.5182   -1.6054   -1.1212 O.2     1  NONAME1    -0.2737
      2 C1         10.3875   -2.8229   -1.0646 C.2     1  NONAME1     0.2354
      3 C2          9.0589   -3.5473   -1.2123 C.3     1  NONAME1     0.0259
      4 C3          7.8496   -2.6274   -1.3857 C.3     1  NONAME1    -0.0447
      5 C4          7.3238   -2.0949   -0.0489 C.3     1  NONAME1    -0.0526
      6 C5          6.0236   -1.2934   -0.1832 C.3     1  NONAME1    -0.0527
      7 C6          4.7256   -2.0884    0.0341 C.3     1  NONAME1    -0.0460
      8 C7          4.2750   -2.9518   -1.1487 C.3     1  NONAME1     0.0110
      9 C8          4.8593   -4.3628   -1.1706 C.2     1  NONAME1     0.1697
     10 O2          5.5079   -4.7935   -0.2142 O.2     1  NONAME1    -0.2915
     11 C9          4.6555   -5.1772   -2.3692 C.ar    1  NONAME1     0.0545
     12 C10         5.3328   -6.3416   -2.6894 C.ar    1  NONAME1    -0.0442
     13 C11         4.9138   -6.8974   -3.9316 C.ar    1  NONAME1    -0.0541
     14 C12         3.9141   -6.1527   -4.5146 C.ar    1  NONAME1    -0.0236
     15 S1          3.5028   -4.7871   -3.5721 S.2     1  NONAME1    -0.0938
     16 N1         11.4378   -3.7196   -0.9312 N.am    1  NONAME1    -0.1975
     17 O3         12.6885   -3.1509   -0.6137 O.3     1  NONAME1    -0.2952
     18 H1          9.1423   -4.1765   -2.1062 H       1  NONAME1     0.0359
     19 H2          8.9157   -4.2120   -0.3514 H       1  NONAME1     0.0359
     20 H3          7.0663   -3.1964   -1.8892 H       1  NONAME1     0.0270
     21 H4          8.0927   -1.7880   -2.0488 H       1  NONAME1     0.0270
     22 H5          7.1924   -2.9089    0.6727 H       1  NONAME1     0.0265
     23 H6          8.0900   -1.4326    0.3734 H       1  NONAME1     0.0265
     24 H7          5.9906   -0.7586   -1.1397 H       1  NONAME1     0.0265
     25 H8          6.0445   -0.5190    0.5953 H       1  NONAME1     0.0265
     26 H9          3.9326   -1.3471    0.2037 H       1  NONAME1     0.0269
     27 H10         4.7902   -2.6764    0.9563 H       1  NONAME1     0.0269
     28 H11         3.1871   -3.0632   -1.0873 H       1  NONAME1     0.0345
     29 H12         4.5171   -2.4372   -2.0859 H       1  NONAME1     0.0345
     30 H13         6.1022   -6.7657   -2.0549 H       1  NONAME1     0.0630
     31 H14         5.3204   -7.8002   -4.3706 H       1  NONAME1     0.0623
     32 H15         3.4050   -6.3442   -5.4495 H       1  NONAME1     0.0693
     33 H16        11.2663   -4.6385   -0.5359 H       1  NONAME1     0.1822
     34 H17        13.0207   -2.8854   -1.4919 H       1  NONAME1     0.2414
@<TRIPOS>BOND
     1     1     2    2
     2     2     3    1
     3     3     4    1
     4     4     5    1
     5     5     6    1
     6     6     7    1
     7     7     8    1
     8     8     9    1
     9     9    10    2
    10     9    11    1
    11    11    12   ar
    12    12    13   ar
    13    13    14   ar
    14    14    15   ar
    15    11    15   ar
    16     2    16   am
    17    16    17    1
    18     3    18    1
    19     3    19    1
    20     4    20    1
    21     4    21    1
    22     5    22    1
    23     5    23    1
    24     6    24    1
    25     6    25    1
    26     7    26    1
    27     7    27    1
    28     8    28    1
    29     8    29    1
    30    12    30    1
    31    13    31    1
    32    14    32    1
    33    16    33    1
    34    17    34    1
