@<TRIPOS>MOLECULE
*****
 83 87 0 0 0
SMALL
USER_CHARGES

@<TRIPOS>ATOM
      1 O1          1.0012    3.9960   -0.4751 O.2     1  NONAME1    -0.2738
      2 C1          1.8440    3.2600    0.0426 C.2     1  NONAME1     0.2343
      3 N1          1.3523    2.1242    0.6605 N.am    1  NONAME1    -0.3021
      4 C2          0.1202    1.2507    0.3166 C.3     1  NONAME1     0.1036
      5 C3         -1.0931    1.8205    1.0747 C.3     1  NONAME1    -0.0007
      6 C4         -2.4630    1.3017    0.6820 C.ar    1  NONAME1    -0.0451
      7 C5         -2.8261   -0.0300    0.9072 C.ar    1  NONAME1    -0.0585
      8 C6         -4.1113   -0.4829    0.6001 C.ar    1  NONAME1    -0.0615
      9 C7         -5.0655    0.4005    0.1031 C.ar    1  NONAME1    -0.0617
     10 C8         -4.7276    1.7348   -0.1038 C.ar    1  NONAME1    -0.0615
     11 C9         -3.4376    2.1785    0.1675 C.ar    1  NONAME1    -0.0585
     12 C10         0.4624   -0.3153    0.6660 C.2     1  NONAME1     0.2368
     13 O2          0.6182   -0.6611    1.8405 O.2     1  NONAME1    -0.2735
     14 N2          0.8082   -1.1889   -0.3906 N.am    1  NONAME1    -0.2884
     15 C11        -0.2930   -1.6300   -1.2337 C.3     1  NONAME1     0.0156
     16 C12        -0.2467   -3.1378   -1.0916 C.3     1  NONAME1    -0.0350
     17 C13         1.2415   -3.4263   -1.2355 C.3     1  NONAME1    -0.0243
     18 C14         1.9596   -2.2752   -0.4673 C.3     1  NONAME1     0.1023
     19 C15         3.6501   -2.2265   -1.1494 C.2     1  NONAME1     0.2342
     20 O3          3.9348   -3.1839   -1.9029 O.2     1  NONAME1    -0.2738
     21 N3          4.8223   -1.4269   -0.9498 N.am    1  NONAME1    -0.3025
     22 C16         5.6228   -0.0537   -0.2456 C.3     1  NONAME1     0.0994
     23 C17         7.0743   -0.4693   -0.0566 C.3     1  NONAME1    -0.0260
     24 C18         7.2783   -1.2265    1.2757 C.3     1  NONAME1    -0.0509
     25 C19         6.1075   -2.0734    1.8245 C.3     1  NONAME1    -0.0526
     26 C20         4.8962   -1.2919    2.4384 C.3     1  NONAME1    -0.0463
     27 C21         3.6036   -1.2720    1.5501 C.3     1  NONAME1     0.0085
     28 C22         3.1370    0.0504    0.7104 C.2     1  NONAME1     0.1641
     29 O4          3.1645    1.0166    1.5005 O.2     1  NONAME1    -0.2946
     30 C23         3.0651    0.3744   -1.0125 C.3     1  NONAME1     0.1396
     31 C24         2.3319    1.3350   -1.9467 C.3     1  NONAME1     0.0818
     32 O5          2.0394   -0.0428   -1.9172 O.3     1  NONAME1    -0.3638
     33 C25         5.4067    1.6052   -0.7098 C.2     1  NONAME1     0.2340
     34 O6          5.7651    1.9949   -1.8220 O.2     1  NONAME1    -0.2738
     35 N4          4.5619    2.3784    0.1429 N.am    1  NONAME1    -0.3022
     36 C26         3.5294    3.5078   -0.2079 C.3     1  NONAME1     0.1034
     37 C27         4.0962    4.8316    0.3896 C.3     1  NONAME1    -0.0007
     38 C28         3.6329    6.2511    0.0847 C.ar    1  NONAME1    -0.0451
     39 C29         2.3935    6.6175   -0.4412 C.ar    1  NONAME1    -0.0585
     40 C30         1.9793    7.9566   -0.5003 C.ar    1  NONAME1    -0.0615
     41 C31         2.8281    8.9738   -0.0899 C.ar    1  NONAME1    -0.0617
     42 C32         4.1006    8.6498    0.3629 C.ar    1  NONAME1    -0.0615
     43 C33         4.4920    7.3077    0.4574 C.ar    1  NONAME1    -0.0585
     44 H1          1.8985    1.7866    1.4487 H       1  NONAME1     0.1495
     45 H2         -0.0830    1.3283   -0.7544 H       1  NONAME1     0.0598
     46 H3         -0.9666    1.6879    2.1550 H       1  NONAME1     0.0336
     47 H4         -1.0962    2.9085    0.9142 H       1  NONAME1     0.0336
     48 H5         -2.1226   -0.7328    1.3454 H       1  NONAME1     0.0620
     49 H6         -4.3714   -1.5236    0.7727 H       1  NONAME1     0.0618
     50 H7         -6.0749    0.0533   -0.1022 H       1  NONAME1     0.0618
     51 H8         -5.4825    2.4327   -0.4659 H       1  NONAME1     0.0618
     52 H9         -3.1986    3.2326    0.0130 H       1  NONAME1     0.0620
     53 H10        -0.0827   -1.3409   -2.2698 H       1  NONAME1     0.0465
     54 H11        -1.2525   -1.2074   -0.9393 H       1  NONAME1     0.0465
     55 H12        -0.5923   -3.4363   -0.0934 H       1  NONAME1     0.0281
     56 H13        -0.8502   -3.6605   -1.8371 H       1  NONAME1     0.0281
     57 H14         1.5126   -3.4260   -2.2960 H       1  NONAME1     0.0288
     58 H15         1.5071   -4.4051   -0.8192 H       1  NONAME1     0.0288
     59 H16         1.9982   -2.6767    0.5467 H       1  NONAME1     0.0597
     60 H17         5.4803   -1.8219   -1.6173 H       1  NONAME1     0.1495
     61 H18         5.2797    0.0493    0.7601 H       1  NONAME1     0.0594
     62 H19         7.7340    0.4062   -0.0608 H       1  NONAME1     0.0288
     63 H20         7.4009   -1.1018   -0.8901 H       1  NONAME1     0.0288
     64 H21         7.5672   -0.5037    2.0482 H       1  NONAME1     0.0266
     65 H22         8.1480   -1.8850    1.1455 H       1  NONAME1     0.0266
     66 H23         6.5332   -2.6795    2.6368 H       1  NONAME1     0.0265
     67 H24         5.7837   -2.8047    1.0750 H       1  NONAME1     0.0265
     68 H25         5.1880   -0.2956    2.7863 H       1  NONAME1     0.0269
     69 H26         4.6257   -1.8522    3.3452 H       1  NONAME1     0.0269
     70 H27         2.7887   -1.4103    2.2710 H       1  NONAME1     0.0342
     71 H28         3.6771   -2.2060    1.0289 H       1  NONAME1     0.0342
     72 H29         3.9985    0.2709   -1.5122 H       1  NONAME1     0.0699
     73 H30         2.9031    1.7088   -2.7989 H       1  NONAME1     0.0590
     74 H31         1.4733    1.9581   -1.8164 H       1  NONAME1     0.0590
     75 H32         4.3749    2.0018    1.0695 H       1  NONAME1     0.1495
     76 H33         3.5980    3.5978   -1.2990 H       1  NONAME1     0.0598
     77 H34         4.0801    4.7315    1.4831 H       1  NONAME1     0.0336
     78 H35         5.1618    4.8288    0.1073 H       1  NONAME1     0.0336
     79 H36         1.6885    5.8989   -0.8200 H       1  NONAME1     0.0620
     80 H37         0.9804    8.1912   -0.8620 H       1  NONAME1     0.0618
     81 H38         2.5007   10.0090   -0.1293 H       1  NONAME1     0.0618
     82 H39         4.7839    9.4418    0.6593 H       1  NONAME1     0.0618
     83 H40         5.4874    7.0921    0.8410 H       1  NONAME1     0.0620
@<TRIPOS>BOND
     1     1     2    2
     2     2     3   am
     3     4     3    1
     4     4     5    1
     5     5     6    1
     6     6     7   ar
     7     7     8   ar
     8     8     9   ar
     9     9    10   ar
    10    10    11   ar
    11     6    11   ar
    12     4    12    1
    13    12    13    2
    14    12    14   am
    15    14    15    1
    16    15    16    1
    17    16    17    1
    18    18    17    1
    19    18    14    1
    20    18    19    1
    21    19    20    2
    22    19    21   am
    23    22    21    1
    24    22    23    1
    25    23    24    1
    26    24    25    1
    27    25    26    1
    28    26    27    1
    29    27    28    1
    30    28    29    2
    31    30    28    1
    32    30    31    1
    33    31    32    1
    34    30    32    1
    35    22    33    1
    36    33    34    2
    37    33    35   am
    38    36    35    1
    39    36     2    1
    40    36    37    1
    41    37    38    1
    42    38    39   ar
    43    39    40   ar
    44    40    41   ar
    45    41    42   ar
    46    42    43   ar
    47    38    43   ar
    48     3    44    1
    49     4    45    1
    50     5    46    1
    51     5    47    1
    52     7    48    1
    53     8    49    1
    54     9    50    1
    55    10    51    1
    56    11    52    1
    57    15    53    1
    58    15    54    1
    59    16    55    1
    60    16    56    1
    61    17    57    1
    62    17    58    1
    63    18    59    1
    64    21    60    1
    65    22    61    1
    66    23    62    1
    67    23    63    1
    68    24    64    1
    69    24    65    1
    70    25    66    1
    71    25    67    1
    72    26    68    1
    73    26    69    1
    74    27    70    1
    75    27    71    1
    76    30    72    1
    77    31    73    1
    78    31    74    1
    79    35    75    1
    80    36    76    1
    81    37    77    1
    82    37    78    1
    83    39    79    1
    84    40    80    1
    85    41    81    1
    86    42    82    1
    87    43    83    1
