@<TRIPOS>MOLECULE
*****
 52 55 0 0 0
SMALL
USER_CHARGES

@<TRIPOS>ATOM
      1 C1          6.8079   11.6318    1.2171 C.3     1  NONAME1     0.0443
      2 O1          6.3039   12.1813    0.0000 O.3     1  NONAME1    -0.3246
      3 P1          5.5339   13.5150    0.0000 P.3     1  NONAME1     0.2623
      4 O2          4.7639   14.8487    0.0000 O.2     1  NONAME1    -0.2806
      5 C2          6.8676   14.2850    0.0000 C.ar    1  NONAME1     0.0411
      6 C3          7.1339   15.4216    0.8109 C.ar    1  NONAME1    -0.0489
      7 C4          8.3266   16.1612    0.7722 C.ar    1  NONAME1    -0.0610
      8 C5          9.3706   15.7513   -0.0394 C.ar    1  NONAME1    -0.0617
      9 C6          9.1994   14.6324   -0.8361 C.ar    1  NONAME1    -0.0610
     10 C7          7.9694   13.9561   -0.8393 C.ar    1  NONAME1    -0.0489
     11 C8          4.2002   12.7450    0.0000 C.ar    1  NONAME1     0.0411
     12 C9          4.0047   11.3685   -0.3889 C.ar    1  NONAME1    -0.0481
     13 C10         2.8149   10.5924   -0.2755 C.ar    1  NONAME1    -0.0489
     14 C11         1.6487   11.1811    0.1827 C.ar    1  NONAME1     0.0371
     15 C12         0.3247   10.5038    0.3839 C.2     1  NONAME1     0.2483
     16 O3         -0.5323   11.1600    0.9665 O.2     1  NONAME1    -0.2699
     17 N1          0.1357    9.1964   -0.0485 N.am    1  NONAME1    -0.2799
     18 C13        -1.1175    8.4836   -0.0575 C.ar    1  NONAME1     0.0551
     19 C14        -1.0535    7.0668   -0.0449 C.ar    1  NONAME1    -0.0305
     20 C15        -2.2115    6.2493   -0.0506 C.ar    1  NONAME1    -0.0094
     21 C16        -2.1327    4.7608   -0.0110 C.ar    1  NONAME1     0.0194
     22 C17        -1.0256    3.9255   -0.0620 C.ar    1  NONAME1    -0.0469
     23 C18        -1.3546    2.5341   -0.0120 C.ar    1  NONAME1    -0.0541
     24 C19        -2.7087    2.3275    0.0786 C.ar    1  NONAME1    -0.0237
     25 S1         -3.5672    3.7946    0.1189 S.2     1  NONAME1    -0.0967
     26 C20        -3.4493    6.9015   -0.1131 C.ar    1  NONAME1    -0.0517
     27 C21        -3.5340    8.2903   -0.1667 C.ar    1  NONAME1    -0.0386
     28 C22        -2.3919    9.0981   -0.1079 C.ar    1  NONAME1     0.0461
     29 N2         -2.5926   10.4680   -0.3853 N.pl3   1  NONAME1    -0.3565
     30 C23         1.7217   12.5381    0.4835 C.ar    1  NONAME1    -0.0489
     31 C24         2.9373   13.2561    0.4191 C.ar    1  NONAME1    -0.0481
     32 H1          6.3612   12.1190    2.0894 H       1  NONAME1     0.0528
     33 H2          7.8939   11.7545    1.2464 H       1  NONAME1     0.0528
     34 H3          6.5748   10.5645    1.2446 H       1  NONAME1     0.0528
     35 H4          6.3430   15.8040    1.4610 H       1  NONAME1     0.0626
     36 H5          8.4213   17.0648    1.3694 H       1  NONAME1     0.0618
     37 H6         10.3036   16.3065   -0.0603 H       1  NONAME1     0.0618
     38 H7         10.0123   14.2830   -1.4676 H       1  NONAME1     0.0618
     39 H8          7.8879   13.0973   -1.5091 H       1  NONAME1     0.0626
     40 H9          4.8516   10.7987   -0.7838 H       1  NONAME1     0.0626
     41 H10         2.8589    9.5404   -0.5301 H       1  NONAME1     0.0625
     42 H11         0.9511    8.6425   -0.2562 H       1  NONAME1     0.1552
     43 H12        -0.0761    6.5916   -0.0014 H       1  NONAME1     0.0643
     44 H13        -0.0080    4.2842   -0.1395 H       1  NONAME1     0.0629
     45 H14        -0.6327    1.7266   -0.0443 H       1  NONAME1     0.0623
     46 H15        -3.2370    1.3829    0.1262 H       1  NONAME1     0.0693
     47 H16        -4.3856    6.3528   -0.1467 H       1  NONAME1     0.0624
     48 H17        -4.5174    8.7447   -0.2670 H       1  NONAME1     0.0637
     49 H18        -1.8609   11.0209    0.0660 H       1  NONAME1     0.1424
     50 H19        -3.4931   10.8043   -0.0692 H       1  NONAME1     0.1424
     51 H20         0.8255   13.0843    0.7858 H       1  NONAME1     0.0625
     52 H21         2.8395   14.3068    0.7097 H       1  NONAME1     0.0626
@<TRIPOS>BOND
     1     1     2    1
     2     2     3    1
     3     3     4    2
     4     3     5    1
     5     5     6   ar
     6     6     7   ar
     7     7     8   ar
     8     8     9   ar
     9     9    10   ar
    10     5    10   ar
    11     3    11    1
    12    11    12   ar
    13    12    13   ar
    14    13    14   ar
    15    14    15    1
    16    15    16    2
    17    15    17   am
    18    17    18    1
    19    18    19   ar
    20    19    20   ar
    21    20    21    1
    22    21    22   ar
    23    22    23   ar
    24    23    24   ar
    25    24    25   ar
    26    21    25   ar
    27    20    26   ar
    28    26    27   ar
    29    27    28   ar
    30    18    28   ar
    31    28    29    1
    32    14    30   ar
    33    30    31   ar
    34    11    31   ar
    35     1    32    1
    36     1    33    1
    37     1    34    1
    38     6    35    1
    39     7    36    1
    40     8    37    1
    41     9    38    1
    42    10    39    1
    43    12    40    1
    44    13    41    1
    45    17    42    1
    46    19    43    1
    47    22    44    1
    48    23    45    1
    49    24    46    1
    50    26    47    1
    51    27    48    1
    52    29    49    1
    53    29    50    1
    54    30    51    1
    55    31    52    1
