REMARK  6 active torsions:
REMARK  status: ('A' for Active; 'I' for Inactive)
REMARK    1  A    between atoms: N1_1  and  C1_2 
REMARK    2  A    between atoms: C6_7  and  N2_8 
REMARK       I    between atoms: N2_8  and  C7_9 
REMARK    3  A    between atoms: C7_9  and  C8_11 
REMARK    4  A    between atoms: C11_14  and  C12_15 
REMARK    5  A    between atoms: C12_15  and  N3_16 
REMARK    6  A    between atoms: N3_16  and  C13_17 
ROOT
ATOM      1  C8  NON d   1      -5.452  -2.624  -0.066  0.00  0.00     0.032 A 
ATOM      2  C9  NON d   1      -4.699  -1.442  -0.089  0.00  0.00     0.017 A 
ATOM      3  C10 NON d   1      -3.301  -1.466  -0.042  0.00  0.00     0.010 A 
ATOM      4  C11 NON d   1      -2.602  -2.677   0.037  0.00  0.00    -0.040 A 
ATOM      5  C20 NON d   1      -3.361  -3.862   0.068  0.00  0.00     0.010 A 
ATOM      6  C21 NON d   1      -4.767  -3.841   0.012  0.00  0.00     0.017 A 
ENDROOT
BRANCH   1   7
ATOM      7  C7  NON d   1      -6.946  -2.481  -0.155  0.00  0.00     0.256 C 
ATOM      8  N2  NON d   1      -7.707  -3.624  -0.004  0.00  0.00    -0.321 N 
ATOM      9  H7  NON d   1      -7.260  -4.503   0.215  0.00  0.00     0.169 HD
ATOM     10  O1  NON d   1      -7.397  -1.359  -0.370  0.00  0.00    -0.267 OA
BRANCH   8  11
ATOM     11  C6  NON d   1      -9.122  -3.721  -0.022  0.00  0.00     0.056 A 
ATOM     12  C5  NON d   1      -9.979  -2.617  -0.080  0.00  0.00     0.031 A 
ATOM     13  C4  NON d   1     -11.364  -2.788  -0.016  0.00  0.00     0.002 A 
ATOM     14  C3  NON d   1     -11.906  -4.063   0.117  0.00  0.00     0.002 A 
ATOM     15  C2  NON d   1     -11.065  -5.174   0.164  0.00  0.00     0.025 A 
ATOM     16  C1  NON d   1      -9.677  -5.018   0.056  0.00  0.00     0.033 A 
BRANCH  16  17
ATOM     17  N1  NON d   1      -8.839  -6.162   0.075  0.00  0.00    -0.301 NA
ATOM     18  H1  NON d   1      -9.379  -7.024   0.056  0.00  0.00     0.124 HD
ATOM     19  H2  NON d   1      -8.204  -6.136  -0.720  0.00  0.00     0.124 HD
ENDBRANCH  16  17
ENDBRANCH   8  11
ENDBRANCH   1   7
BRANCH   4  20
ATOM     20  C12 NON d   1      -1.084  -2.775   0.125  0.00  0.00     0.161 C 
BRANCH  20  21
ATOM     21  N3  NON d   1      -0.412  -1.516  -0.125  0.00  0.00    -0.350 N 
ATOM     22  H12 NON d   1      -0.835  -0.708   0.312  0.00  0.00     0.163 HD
BRANCH  21  23
ATOM     23  C13 NON d   1       0.928  -1.437  -0.113  0.00  0.00     0.248 A 
ATOM     24  N4  NON d   1       1.633  -0.335   0.009  0.00  0.00    -0.206 NA
ATOM     25  C14 NON d   1       2.931  -0.769  -0.017  0.00  0.00     0.096 A 
ATOM     26  C15 NON d   1       4.135  -0.060   0.063  0.00  0.00     0.058 A 
ATOM     27  C19 NON d   1       2.958  -2.149  -0.136  0.00  0.00     0.108 A 
ATOM     28  C16 NON d   1       5.323  -0.799   0.029  0.00  0.00     0.036 A 
ATOM     29 Cl1  NON d   1       6.829   0.033   0.129  0.00  0.00    -0.084 Cl
ATOM     30  C17 NON d   1       5.318  -2.196  -0.081  0.00  0.00     0.026 A 
ATOM     31  C18 NON d   1       4.117  -2.915  -0.170  0.00  0.00     0.041 A 
ATOM     32  O2  NON d   1       1.665  -2.586  -0.206  0.00  0.00    -0.276 OA
ENDBRANCH  21  23
ENDBRANCH  20  21
ENDBRANCH   4  20
TORSDOF 6
