REMARK  7 active torsions:
REMARK  status: ('A' for Active; 'I' for Inactive)
REMARK    1  A    between atoms: C3_4  and  C4_5 
REMARK       I    between atoms: C4_5  and  N2_7 
REMARK    2  A    between atoms: N2_7  and  C5_8 
REMARK    3  A    between atoms: C11_15  and  C12_16 
REMARK    4  A    between atoms: C15_19  and  C16_20 
REMARK    5  A    between atoms: C17_21  and  C18_22 
REMARK       I    between atoms: C18_22  and  N3_24 
REMARK    6  A    between atoms: N3_24  and  C19_25 
REMARK    7  A    between atoms: C24_30  and  N4_31 
ROOT
ATOM      1  C12 NON d   1      -0.383 -14.917  -0.294  0.00  0.00    -0.051 A 
ATOM      2  C13 NON d   1       0.076 -16.226  -0.506  0.00  0.00     0.008 A 
ATOM      3  C14 NON d   1      -0.804 -17.326  -0.523  0.00  0.00     0.012 A 
ATOM      4  C15 NON d   1      -2.180 -17.163  -0.330  0.00  0.00    -0.036 A 
ATOM      5  C25 NON d   1      -2.643 -15.855  -0.153  0.00  0.00     0.012 A 
ATOM      6  C26 NON d   1      -1.767 -14.755  -0.135  0.00  0.00     0.008 A 
ENDROOT
BRANCH   1   7
ATOM      7  C11 NON d   1       0.571 -13.768  -0.001  0.00  0.00     0.059 C 
ATOM      8  C3  NON d   1       1.990 -13.783  -0.645  0.00  0.00     0.114 C 
ATOM      9  C2  NON d   1       2.464 -12.321  -0.632  0.00  0.00     0.249 C 
ATOM     10  N1  NON d   1       1.334 -11.550   0.000  0.00  0.00    -0.073 N 
ATOM     11  C1  NON d   1       1.334 -10.010   0.000  0.00  0.00     0.269 C 
ATOM     12  C27 NON d   1       0.087 -12.337  -0.309  0.00  0.00     0.244 C 
ATOM     13  H4  NON d   1       1.466 -11.714   1.011  0.00  0.00     0.279 HD
BRANCH   8  14
ATOM     14  C4  NON d   1       2.970 -14.663   0.129  0.00  0.00     0.228 C 
ATOM     15  O1  NON d   1       2.649 -15.161   1.205  0.00  0.00    -0.273 OA
ATOM     16  N2  NON d   1       4.199 -14.836  -0.476  0.00  0.00    -0.327 N 
ATOM     17  H8  NON d   1       4.560 -14.139  -1.117  0.00  0.00     0.169 HD
BRANCH  16  18
ATOM     18  C5  NON d   1       5.091 -15.899  -0.190  0.00  0.00     0.034 A 
ATOM     19  C6  NON d   1       6.443 -15.740  -0.518  0.00  0.00     0.031 A 
ATOM     20  C7  NON d   1       7.346 -16.792  -0.326  0.00  0.00     0.026 A 
ATOM     21  C8  NON d   1       6.894 -18.016   0.161  0.00  0.00     0.034 A 
ATOM     22 Cl1  NON d   1       7.994 -19.323   0.351  0.00  0.00    -0.084 Cl
ATOM     23  C9  NON d   1       5.551 -18.187   0.484  0.00  0.00     0.026 A 
ATOM     24  C10 NON d   1       4.654 -17.125   0.323  0.00  0.00     0.031 A 
ENDBRANCH  16  18
ENDBRANCH   8  14
ENDBRANCH   1   7
BRANCH   4  25
ATOM     25  C16 NON d   1      -3.047 -18.366  -0.220  0.00  0.00     0.017 C 
ATOM     26  C17 NON d   1      -4.389 -18.335  -0.175  0.00  0.00     0.075 C 
BRANCH  26  27
ATOM     27  C18 NON d   1      -5.373 -19.445   0.041  0.00  0.00     0.245 C 
ATOM     28  O2  NON d   1      -6.495 -19.106   0.411  0.00  0.00    -0.268 OA
ATOM     29  N3  NON d   1      -4.934 -20.724  -0.179  0.00  0.00    -0.322 N 
ATOM     30  H18 NON d   1      -3.949 -20.842  -0.356  0.00  0.00     0.169 HD
BRANCH  29  31
ATOM     31  C19 NON d   1      -5.675 -21.944  -0.104  0.00  0.00     0.056 A 
ATOM     32  C20 NON d   1      -4.890 -23.113  -0.033  0.00  0.00     0.031 A 
ATOM     33  C21 NON d   1      -5.467 -24.384   0.042  0.00  0.00     0.002 A 
ATOM     34  C22 NON d   1      -6.848 -24.516   0.018  0.00  0.00     0.002 A 
ATOM     35  C23 NON d   1      -7.643 -23.377  -0.077  0.00  0.00     0.025 A 
ATOM     36  C24 NON d   1      -7.084 -22.083  -0.102  0.00  0.00     0.033 A 
BRANCH  36  37
ATOM     37  N4  NON d   1      -7.975 -21.034  -0.406  0.00  0.00    -0.301 NA
ATOM     38  H23 NON d   1      -7.600 -20.129  -0.097  0.00  0.00     0.124 HD
ATOM     39  H24 NON d   1      -8.903 -21.169  -0.021  0.00  0.00     0.124 HD
ENDBRANCH  36  37
ENDBRANCH  29  31
ENDBRANCH  26  27
ENDBRANCH   4  25
TORSDOF 7
