REMARK  9 active torsions:
REMARK  status: ('A' for Active; 'I' for Inactive)
REMARK    1  A    between atoms: N1_1  and  C1_2 
REMARK    2  A    between atoms: C6_7  and  N2_8 
REMARK       I    between atoms: N2_8  and  C7_9 
REMARK    3  A    between atoms: C7_9  and  C8_11 
REMARK    4  A    between atoms: C11_14  and  C12_15 
REMARK    5  A    between atoms: C12_15  and  N3_16 
REMARK    6  A    between atoms: N3_16  and  C13_17 
REMARK    7  A    between atoms: C13_17  and  O2_18 
REMARK    8  A    between atoms: O2_18  and  C14_19 
REMARK    9  A    between atoms: C14_19  and  C15_21 
ROOT
ATOM      1  C8  NON d   1       0.106  -9.415  -0.026  0.00  0.00     0.032 A 
ATOM      2  C9  NON d   1       0.253  -8.025   0.097  0.00  0.00     0.017 A 
ATOM      3  C10 NON d   1       1.519  -7.431   0.125  0.00  0.00     0.010 A 
ATOM      4  C11 NON d   1       2.682  -8.208   0.026  0.00  0.00    -0.030 A 
ATOM      5  C20 NON d   1       2.533  -9.592  -0.137  0.00  0.00     0.010 A 
ATOM      6  C21 NON d   1       1.264 -10.193  -0.150  0.00  0.00     0.017 A 
ENDROOT
BRANCH   1   7
ATOM      7  C7  NON d   1      -1.293  -9.966   0.014  0.00  0.00     0.256 C 
ATOM      8  N2  NON d   1      -1.435 -11.337  -0.079  0.00  0.00    -0.321 N 
ATOM      9  H7  NON d   1      -0.629 -11.912  -0.273  0.00  0.00     0.169 HD
ATOM     10  O1  NON d   1      -2.215  -9.168   0.154  0.00  0.00    -0.267 OA
BRANCH   8  11
ATOM     11  C6  NON d   1      -2.633 -12.090  -0.013  0.00  0.00     0.056 A 
ATOM     12  C5  NON d   1      -3.908 -11.522   0.055  0.00  0.00     0.031 A 
ATOM     13  C4  NON d   1      -5.046 -12.333   0.046  0.00  0.00     0.002 A 
ATOM     14  C3  NON d   1      -4.921 -13.716  -0.047  0.00  0.00     0.002 A 
ATOM     15  C2  NON d   1      -3.654 -14.297  -0.105  0.00  0.00     0.025 A 
ATOM     16  C1  NON d   1      -2.506 -13.499  -0.041  0.00  0.00     0.033 A 
BRANCH  16  17
ATOM     17  N1  NON d   1      -1.226 -14.107  -0.088  0.00  0.00    -0.301 NA
ATOM     18  H1  NON d   1      -1.281 -15.118   0.003  0.00  0.00     0.124 HD
ATOM     19  H2  NON d   1      -0.629 -13.731   0.644  0.00  0.00     0.124 HD
ENDBRANCH  16  17
ENDBRANCH   8  11
ENDBRANCH   1   7
BRANCH   4  20
ATOM     20  C12 NON d   1       4.022  -7.500   0.049  0.00  0.00     0.310 C 
BRANCH  20  21
ATOM     21  N3  NON d   1       5.209  -8.359   0.050  0.00  0.00     0.111 N 
ATOM     22  H12 NON d   1       6.007  -7.804  -0.251  0.00  0.00     0.319 HD
BRANCH  21  23
ATOM     23  C13 NON d   1       5.524  -8.863   1.382  0.00  0.00     0.448 C 
BRANCH  23  24
ATOM     24  O2  NON d   1       6.777  -9.546   1.322  0.00  0.00    -0.287 OA
BRANCH  24  25
ATOM     25  C14 NON d   1       7.070 -10.241   2.447  0.00  0.00     0.296 C 
ATOM     26  O3  NON d   1       6.373 -10.303   3.448  0.00  0.00    -0.259 OA
BRANCH  25  27
ATOM     27  C15 NON d   1       8.366 -10.944   2.328  0.00  0.00     0.057 A 
ATOM     28  C16 NON d   1       8.754 -11.835   3.334  0.00  0.00     0.020 A 
ATOM     29  C17 NON d   1       9.979 -12.491   3.240  0.00  0.00     0.020 A 
ATOM     30  C18 NON d   1      10.781 -12.229   2.141  0.00  0.00     0.116 A 
ATOM     31  N4  NON d   1      10.439 -11.375   1.150  0.00  0.00    -0.272 NA
ATOM     32  C19 NON d   1       9.237 -10.753   1.264  0.00  0.00     0.133 A 
ENDBRANCH  25  27
ENDBRANCH  24  25
ENDBRANCH  23  24
ENDBRANCH  21  23
ENDBRANCH  20  21
ENDBRANCH   4  20
TORSDOF 9
