@<TRIPOS>MOLECULE
*****
 56 59 0 0 0
SMALL
USER_CHARGES

@<TRIPOS>ATOM
      1 N1         -2.8565  -16.6663    0.0834 N.pl3   1  NONAME1    -0.3565
      2 C1         -4.2282  -17.0269    0.0580 C.ar    1  NONAME1     0.0461
      3 C2         -4.5866  -18.3808    0.1152 C.ar    1  NONAME1    -0.0392
      4 C3         -5.9272  -18.7594    0.0574 C.ar    1  NONAME1    -0.0599
      5 C4         -6.9166  -17.7861   -0.0369 C.ar    1  NONAME1    -0.0599
      6 C5         -6.5724  -16.4309   -0.0537 C.ar    1  NONAME1    -0.0387
      7 C6         -5.2337  -16.0336    0.0126 C.ar    1  NONAME1     0.0545
      8 N2         -4.8106  -14.6776    0.0609 N.am    1  NONAME1    -0.2800
      9 C7         -5.6060  -13.5482   -0.0340 C.2     1  NONAME1     0.2483
     10 O1         -6.8253  -13.5592   -0.1815 O.2     1  NONAME1    -0.2699
     11 C8         -4.9300  -12.2043    0.0297 C.ar    1  NONAME1     0.0371
     12 C9         -5.7569  -11.0719    0.0467 C.ar    1  NONAME1    -0.0491
     13 C10        -5.2188   -9.7788    0.0627 C.ar    1  NONAME1    -0.0539
     14 C11        -3.8336   -9.5692    0.0631 C.ar    1  NONAME1    -0.0248
     15 C12        -3.3479   -8.1734    0.0590 C.2     1  NONAME1    -0.0497
     16 C13        -2.0751   -7.7416    0.0723 C.2     1  NONAME1     0.0007
     17 C14        -1.8018   -6.2744    0.0496 C.2     1  NONAME1     0.2369
     18 O2         -2.6960   -5.4387    0.0002 O.2     1  NONAME1    -0.2708
     19 N3         -0.4631   -5.9618    0.0960 N.am    1  NONAME1    -0.3115
     20 C15        -0.0306   -4.5731    0.1809 C.3     1  NONAME1     0.0159
     21 C16         1.4715   -4.3783   -0.0517 C.3     1  NONAME1    -0.0101
     22 C17         2.3775   -4.7823    1.0802 C.ar    1  NONAME1    -0.0209
     23 C18         2.0616   -5.4952    2.2220 C.ar    1  NONAME1     0.0060
     24 N4          3.1924   -5.6255    2.9836 N.ar    1  NONAME1    -0.3604
     25 C19         4.2556   -5.0104    2.3686 C.ar    1  NONAME1     0.0467
     26 C20         5.5890   -4.8906    2.7817 C.ar    1  NONAME1    -0.0378
     27 C21         6.4659   -4.1884    1.9507 C.ar    1  NONAME1    -0.0598
     28 C22         6.0229   -3.6293    0.7550 C.ar    1  NONAME1    -0.0611
     29 C23         4.6862   -3.7621    0.3559 C.ar    1  NONAME1    -0.0523
     30 C24         3.7788   -4.4676    1.1755 C.ar    1  NONAME1     0.0029
     31 C25        -3.0059  -10.7001    0.0519 C.ar    1  NONAME1    -0.0539
     32 C26        -3.5441  -12.0042    0.0339 C.ar    1  NONAME1    -0.0491
     33 H1         -2.2523  -17.4845    0.0511 H       1  NONAME1     0.1424
     34 H2         -2.6464  -16.0599   -0.7055 H       1  NONAME1     0.1424
     35 H3         -3.8274  -19.1545    0.1849 H       1  NONAME1     0.0636
     36 H4         -6.2002  -19.8110    0.0841 H       1  NONAME1     0.0618
     37 H5         -7.9641  -18.0748   -0.0827 H       1  NONAME1     0.0618
     38 H6         -7.3818  -15.7102   -0.0984 H       1  NONAME1     0.0637
     39 H7         -3.8245  -14.5833    0.2578 H       1  NONAME1     0.1552
     40 H8         -6.8408  -11.1849    0.0371 H       1  NONAME1     0.0625
     41 H9         -5.9091   -8.9365    0.0662 H       1  NONAME1     0.0624
     42 H10        -4.1393   -7.4218    0.0361 H       1  NONAME1     0.0625
     43 H11        -1.2275   -8.4112    0.0907 H       1  NONAME1     0.0669
     44 H12         0.2241   -6.6824    0.2669 H       1  NONAME1     0.1490
     45 H13        -0.5844   -4.0129   -0.5823 H       1  NONAME1     0.0465
     46 H14        -0.3400   -4.1818    1.1571 H       1  NONAME1     0.0465
     47 H15         1.7781   -4.9204   -0.9551 H       1  NONAME1     0.0329
     48 H16         1.6420   -3.3111   -0.2452 H       1  NONAME1     0.0329
     49 H17         1.1261   -5.9105    2.5723 H       1  NONAME1     0.0810
     50 H18         3.2426   -6.0946    3.8770 H       1  NONAME1     0.1653
     51 H19         5.9355   -5.3219    3.7153 H       1  NONAME1     0.0638
     52 H20         7.5074   -4.0753    2.2444 H       1  NONAME1     0.0618
     53 H21         6.7201   -3.0823    0.1247 H       1  NONAME1     0.0618
     54 H22         4.3553   -3.3164   -0.5775 H       1  NONAME1     0.0624
     55 H23        -1.9244  -10.5951    0.0460 H       1  NONAME1     0.0624
     56 H24        -2.8464  -12.8335    0.0057 H       1  NONAME1     0.0625
@<TRIPOS>BOND
     1     1     2    1
     2     2     3   ar
     3     3     4   ar
     4     4     5   ar
     5     5     6   ar
     6     6     7   ar
     7     2     7   ar
     8     7     8    1
     9     8     9   am
    10     9    10    2
    11     9    11    1
    12    11    12   ar
    13    12    13   ar
    14    13    14   ar
    15    14    15    1
    16    15    16    2
    17    16    17    1
    18    17    18    2
    19    17    19   am
    20    19    20    1
    21    20    21    1
    22    21    22    1
    23    22    23   ar
    24    23    24   ar
    25    24    25   ar
    26    25    26   ar
    27    26    27   ar
    28    27    28   ar
    29    28    29   ar
    30    29    30   ar
    31    22    30   ar
    32    25    30   ar
    33    14    31   ar
    34    31    32   ar
    35    11    32   ar
    36     1    33    1
    37     1    34    1
    38     3    35    1
    39     4    36    1
    40     5    37    1
    41     6    38    1
    42     8    39    1
    43    12    40    1
    44    13    41    1
    45    15    42    1
    46    16    43    1
    47    19    44    1
    48    20    45    1
    49    20    46    1
    50    21    47    1
    51    21    48    1
    52    23    49    1
    53    24    50    1
    54    26    51    1
    55    27    52    1
    56    28    53    1
    57    29    54    1
    58    31    55    1
    59    32    56    1
