REMARK  13 active torsions:
REMARK  status: ('A' for Active; 'I' for Inactive)
REMARK    1  A    between atoms: O1_2  and  C2_3 
REMARK    2  A    between atoms: C8_10  and  C9_11 
REMARK    3  A    between atoms: C9_11  and  C10_12 
REMARK       I    between atoms: C10_12  and  N2_14 
REMARK    4  A    between atoms: C11_15  and  N2_14 
REMARK    5  A    between atoms: C11_15  and  C12_16 
REMARK    6  A    between atoms: C11_15  and  C18_25 
REMARK    7  A    between atoms: C12_16  and  C13_17 
REMARK    8  A    between atoms: C13_17  and  C14_18 
REMARK    9  A    between atoms: C14_18  and  C15_19 
REMARK   10  A    between atoms: C15_19  and  C16_20 
REMARK   11  A    between atoms: C16_20  and  C17_21 
REMARK       I    between atoms: C17_21  and  N3_23 
REMARK   12  A    between atoms: N3_23  and  O4_24 
REMARK   13  A    between atoms: C19_27  and  C20_28 
ROOT
ATOM      1  C11 NON d   1      14.635 -10.500   0.559  0.00  0.00     0.154 C 
ENDROOT
BRANCH   1   2
ATOM      2  N2  NON d   1      13.228 -10.014   0.382  0.00  0.00    -0.349 N 
ATOM      3  C10 NON d   1      12.869  -8.807  -0.242  0.00  0.00     0.222 C 
ATOM      4  O2  NON d   1      13.591  -8.250  -1.064  0.00  0.00    -0.273 OA
ATOM      5  H12 NON d   1      12.585 -10.352   1.086  0.00  0.00     0.163 HD
BRANCH   3   6
ATOM      6  C9  NON d   1      11.454  -8.289   0.081  0.00  0.00     0.144 C 
BRANCH   6   7
ATOM      7  C8  NON d   1      11.202  -6.781   0.053  0.00  0.00    -0.015 A 
ATOM      8  C6  NON d   1      12.092  -5.711   0.118  0.00  0.00     0.013 A 
ATOM      9  N1  NON d   1      11.371  -4.544   0.038  0.00  0.00    -0.359 N 
ATOM     10  C7  NON d   1      13.573  -5.616   0.224  0.00  0.00     0.068 C 
ATOM     11  C5  NON d   1      10.028  -4.793   0.022  0.00  0.00     0.043 A 
ATOM     12  H6  NON d   1      11.771  -3.615   0.026  0.00  0.00     0.166 HD
ATOM     13  C4  NON d   1       8.957  -3.894   0.017  0.00  0.00     0.033 A 
ATOM     14  C31 NON d   1       9.874  -6.178   0.010  0.00  0.00     0.002 A 
ATOM     15  C3  NON d   1       7.662  -4.417  -0.003  0.00  0.00     0.039 A 
ATOM     16  C2  NON d   1       7.449  -5.792  -0.040  0.00  0.00     0.069 A 
ATOM     17  C32 NON d   1       8.549  -6.675  -0.029  0.00  0.00     0.051 A 
BRANCH  16  18
ATOM     18  O1  NON d   1       6.221  -6.401  -0.092  0.00  0.00    -0.356 OA
ATOM     19  C1  NON d   1       5.080  -5.551  -0.140  0.00  0.00     0.210 C 
ENDBRANCH  16  18
ENDBRANCH   6   7
ENDBRANCH   3   6
ENDBRANCH   1   2
BRANCH   1  20
ATOM     20  C12 NON d   1      15.687  -9.839  -0.368  0.00  0.00     0.033 C 
BRANCH  20  21
ATOM     21  C13 NON d   1      17.161 -10.267  -0.212  0.00  0.00     0.002 C 
BRANCH  21  22
ATOM     22  C14 NON d   1      17.798 -10.781  -1.518  0.00  0.00     0.001 C 
BRANCH  22  23
ATOM     23  C15 NON d   1      17.179 -12.089  -2.011  0.00  0.00     0.009 C 
BRANCH  23  24
ATOM     24  C16 NON d   1      17.795 -12.673  -3.279  0.00  0.00     0.105 C 
BRANCH  24  25
ATOM     25  C17 NON d   1      19.126 -13.389  -3.075  0.00  0.00     0.240 C 
ATOM     26  O3  NON d   1      19.948 -13.074  -2.221  0.00  0.00    -0.271 OA
ATOM     27  N3  NON d   1      19.332 -14.365  -4.040  0.00  0.00    -0.237 N 
ATOM     28  H24 NON d   1      18.522 -14.858  -4.403  0.00  0.00     0.197 HD
BRANCH  27  29
ATOM     29  O4  NON d   1      20.462 -15.189  -3.827  0.00  0.00    -0.287 OA
ATOM     30  H25 NON d   1      21.143 -14.744  -4.364  0.00  0.00     0.244 HD
ENDBRANCH  27  29
ENDBRANCH  24  25
ENDBRANCH  23  24
ENDBRANCH  22  23
ENDBRANCH  21  22
ENDBRANCH  20  21
ENDBRANCH   1  20
BRANCH   1  31
ATOM     31  C18 NON d   1      14.721 -12.027   0.523  0.00  0.00     0.127 A 
ATOM     32  N4  NON d   1      15.734 -12.748   0.980  0.00  0.00    -0.231 NA
ATOM     33  C19 NON d   1      15.557 -14.050   0.553  0.00  0.00     0.084 A 
ATOM     34  C30 NON d   1      14.317 -14.147  -0.053  0.00  0.00     0.122 A 
ATOM     35  N5  NON d   1      13.807 -12.868  -0.068  0.00  0.00    -0.350 N 
ATOM     36  H34 NON d   1      12.948 -12.573  -0.510  0.00  0.00     0.166 HD
BRANCH  33  37
ATOM     37  C20 NON d   1      16.622 -15.058   0.574  0.00  0.00    -0.005 A 
ATOM     38  C21 NON d   1      17.955 -14.632   0.659  0.00  0.00     0.014 A 
ATOM     39  C22 NON d   1      19.026 -15.527   0.524  0.00  0.00     0.013 A 
ATOM     40  C23 NON d   1      18.794 -16.894   0.345  0.00  0.00    -0.026 A 
ATOM     41  C24 NON d   1      19.863 -17.798   0.201  0.00  0.00     0.012 A 
ATOM     42  C28 NON d   1      17.462 -17.366   0.307  0.00  0.00    -0.025 A 
ATOM     43  C25 NON d   1      19.632 -19.163   0.037  0.00  0.00     0.001 A 
ATOM     44  C26 NON d   1      18.324 -19.639   0.019  0.00  0.00     0.001 A 
ATOM     45  C27 NON d   1      17.250 -18.748   0.148  0.00  0.00     0.012 A 
ATOM     46  C29 NON d   1      16.391 -16.438   0.410  0.00  0.00     0.026 A 
ENDBRANCH  33  37
ENDBRANCH   1  31
TORSDOF 13
