REMARK  7 active torsions:
REMARK  status: ('A' for Active; 'I' for Inactive)
REMARK    1  A    between atoms: O1_2  and  P1_3 
REMARK    2  A    between atoms: P1_3  and  C2_5 
REMARK    3  A    between atoms: P1_3  and  C8_11 
REMARK    4  A    between atoms: C11_14  and  C12_15 
REMARK       I    between atoms: C12_15  and  N1_17 
REMARK    5  A    between atoms: N1_17  and  C13_18 
REMARK    6  A    between atoms: C15_20  and  C16_21 
REMARK    7  A    between atoms: C22_28  and  N2_29 
ROOT
ATOM      1  C12 NON d   1       0.325  10.504   0.384  0.00  0.00     0.256 C 
ATOM      2  O3  NON d   1      -0.532  11.160   0.967  0.00  0.00    -0.267 OA
ATOM      3  N1  NON d   1       0.136   9.196  -0.049  0.00  0.00    -0.321 N 
ATOM      4  H11 NON d   1       0.951   8.643  -0.256  0.00  0.00     0.169 HD
ENDROOT
BRANCH   1   5
ATOM      5  C11 NON d   1       1.649  11.181   0.183  0.00  0.00     0.032 A 
ATOM      6  C10 NON d   1       2.815  10.592  -0.276  0.00  0.00     0.018 A 
ATOM      7  C9  NON d   1       4.005  11.368  -0.389  0.00  0.00     0.019 A 
ATOM      8  C8  NON d   1       4.200  12.745   0.000  0.00  0.00     0.034 A 
ATOM      9  C24 NON d   1       2.937  13.256   0.419  0.00  0.00     0.019 A 
ATOM     10  C23 NON d   1       1.722  12.538   0.483  0.00  0.00     0.018 A 
BRANCH   8  11
ATOM     11  P1  NON d   1       5.534  13.515   0.000  0.00  0.00     0.260 P 
ATOM     12  O2  NON d   1       4.764  14.849   0.000  0.00  0.00    -0.281 OA
BRANCH  11  13
ATOM     13  O1  NON d   1       6.304  12.181   0.000  0.00  0.00    -0.332 OA
ATOM     14  C1  NON d   1       6.808  11.632   1.217  0.00  0.00     0.211 C 
ENDBRANCH  11  13
BRANCH  11  15
ATOM     15  C2  NON d   1       6.868  14.285   0.000  0.00  0.00     0.034 A 
ATOM     16  C3  NON d   1       7.134  15.422   0.811  0.00  0.00     0.017 A 
ATOM     17  C4  NON d   1       8.327  16.161   0.772  0.00  0.00     0.001 A 
ATOM     18  C5  NON d   1       9.371  15.751  -0.039  0.00  0.00     0.000 A 
ATOM     19  C6  NON d   1       9.199  14.632  -0.836  0.00  0.00     0.001 A 
ATOM     20  C7  NON d   1       7.969  13.956  -0.839  0.00  0.00     0.017 A 
ENDBRANCH  11  15
ENDBRANCH   8  11
ENDBRANCH   1   5
BRANCH   3  21
ATOM     21  C13 NON d   1      -1.117   8.484  -0.058  0.00  0.00     0.057 A 
ATOM     22  C14 NON d   1      -1.054   7.067  -0.045  0.00  0.00     0.044 A 
ATOM     23  C15 NON d   1      -2.212   6.249  -0.051  0.00  0.00    -0.017 A 
ATOM     24  C20 NON d   1      -3.449   6.902  -0.113  0.00  0.00     0.014 A 
ATOM     25  C21 NON d   1      -3.534   8.290  -0.167  0.00  0.00     0.026 A 
ATOM     26  C22 NON d   1      -2.392   9.098  -0.108  0.00  0.00     0.033 A 
BRANCH  23  27
ATOM     27  C16 NON d   1      -2.133   4.761  -0.011  0.00  0.00     0.015 A 
ATOM     28  C17 NON d   1      -1.026   3.925  -0.062  0.00  0.00     0.020 A 
ATOM     29  C18 NON d   1      -1.355   2.534  -0.012  0.00  0.00     0.008 A 
ATOM     30  C19 NON d   1      -2.709   2.328   0.079  0.00  0.00     0.050 A 
ATOM     31  S1  NON d   1      -3.567   3.795   0.119  0.00  0.00    -0.101 SA
ENDBRANCH  23  27
BRANCH  26  32
ATOM     32  N2  NON d   1      -2.593  10.468  -0.385  0.00  0.00    -0.301 NA
ATOM     33  H18 NON d   1      -1.861  11.021   0.066  0.00  0.00     0.124 HD
ATOM     34  H19 NON d   1      -3.493  10.804  -0.069  0.00  0.00     0.124 HD
ENDBRANCH  26  32
ENDBRANCH   3  21
TORSDOF 7
