@<TRIPOS>MOLECULE
*****
 40 41 0 0 0
SMALL
USER_CHARGES

@<TRIPOS>ATOM
      1 O1         -3.2083   -2.7307    0.4362 O.2     1  NONAME1    -0.2687
      2 C1         -2.2735   -3.4558    0.1081 C.2     1  NONAME1     0.2593
      3 C2         -2.4552   -4.9326    0.0386 C.2     1  NONAME1     0.0027
      4 C3         -1.4576   -5.8334    0.0637 C.2     1  NONAME1    -0.0496
      5 C4         -1.6012   -7.3038    0.0350 C.ar    1  NONAME1    -0.0248
      6 C5         -0.4315   -8.0855    0.0400 C.ar    1  NONAME1    -0.0540
      7 C6         -0.4906   -9.4849    0.0310 C.ar    1  NONAME1    -0.0525
      8 C7         -1.7296  -10.1221    0.0173 C.ar    1  NONAME1    -0.0038
      9 C8         -1.7859  -11.5972    0.0173 C.2     1  NONAME1     0.0736
     10 N1         -2.9151  -12.2287    0.0116 N.2     1  NONAME1    -0.0922
     11 O2         -2.6832  -13.6158    0.0148 O.2     1  NONAME1    -0.3890
     12 C9         -3.9558  -14.2704    0.0241 C.3     1  NONAME1     0.1429
     13 C10        -3.8546  -15.7812    0.0054 C.ar    1  NONAME1    -0.0077
     14 C11        -2.6289  -16.4620    0.0161 C.ar    1  NONAME1    -0.0531
     15 C12        -2.5902  -17.8622   -0.0022 C.ar    1  NONAME1    -0.0311
     16 C13        -3.7876  -18.5862   -0.0299 C.ar    1  NONAME1     0.1262
     17 N2         -3.7507  -20.0541   -0.0486 N.pl3   1  NONAME1     0.0564
     18 O3         -4.8341  -20.6572   -0.0722 O.2     1  NONAME1    -0.1261
     19 O4         -2.6415  -20.6050   -0.0435 O.2     1  NONAME1    -0.1261
     20 C14        -5.0204  -17.9238   -0.0377 C.ar    1  NONAME1    -0.0311
     21 C15        -5.0468  -16.5275   -0.0199 C.ar    1  NONAME1    -0.0531
     22 C16        -2.9016   -9.3629    0.0076 C.ar    1  NONAME1    -0.0525
     23 C17        -2.8366   -7.9643    0.0162 C.ar    1  NONAME1    -0.0540
     24 N3         -1.0425   -2.9775   -0.2401 N.am    1  NONAME1    -0.1940
     25 O5         -0.8488   -1.5806   -0.2241 O.3     1  NONAME1    -0.2949
     26 H1         -3.5003   -5.2217    0.0195 H       1  NONAME1     0.0670
     27 H2         -0.4276   -5.4952    0.1353 H       1  NONAME1     0.0625
     28 H3          0.5492   -7.6130    0.0544 H       1  NONAME1     0.0624
     29 H4          0.4329  -10.0580    0.0381 H       1  NONAME1     0.0624
     30 H5         -0.8260  -12.1442    0.0240 H       1  NONAME1     0.0869
     31 H6         -4.5184  -13.9464   -0.8601 H       1  NONAME1     0.0775
     32 H7         -4.4953  -13.9680    0.9299 H       1  NONAME1     0.0775
     33 H8         -1.6906  -15.9103    0.0368 H       1  NONAME1     0.0622
     34 H9         -1.6255  -18.3643    0.0063 H       1  NONAME1     0.0640
     35 H10        -5.9600  -18.4718   -0.0597 H       1  NONAME1     0.0640
     36 H11        -6.0090  -16.0166   -0.0285 H       1  NONAME1     0.0622
     37 H12        -3.8738   -9.8516   -0.0032 H       1  NONAME1     0.0624
     38 H13        -3.7748   -7.4169    0.0124 H       1  NONAME1     0.0624
     39 H14        -0.2869   -3.5308   -0.6199 H       1  NONAME1     0.1825
     40 H15        -1.5395   -1.2756    0.4010 H       1  NONAME1     0.2414
@<TRIPOS>BOND
     1     1     2    2
     2     2     3    1
     3     3     4    2
     4     4     5    1
     5     5     6   ar
     6     6     7   ar
     7     7     8   ar
     8     8     9    1
     9     9    10    2
    10    10    11    1
    11    11    12    1
    12    12    13    1
    13    13    14   ar
    14    14    15   ar
    15    15    16   ar
    16    16    17    1
    17    17    18    2
    18    17    19    1
    19    16    20   ar
    20    20    21   ar
    21    13    21   ar
    22     8    22   ar
    23    22    23   ar
    24     5    23   ar
    25     2    24   am
    26    24    25    1
    27     3    26    1
    28     4    27    1
    29     6    28    1
    30     7    29    1
    31     9    30    1
    32    12    31    1
    33    12    32    1
    34    14    33    1
    35    15    34    1
    36    20    35    1
    37    21    36    1
    38    22    37    1
    39    23    38    1
    40    24    39    1
    41    25    40    1
