@<TRIPOS>MOLECULE
*****
 56 60 0 0 0
SMALL
USER_CHARGES

@<TRIPOS>ATOM
      1 N1          2.9499  -17.4227   -0.0638 N.pl3   1  NONAME1    -0.3565
      2 C1          1.5363  -17.3159   -0.0700 C.ar    1  NONAME1     0.0461
      3 C2          0.7521  -18.4726   -0.1598 C.ar    1  NONAME1    -0.0392
      4 C3         -0.6400  -18.3865   -0.1258 C.ar    1  NONAME1    -0.0599
      5 C4         -1.2549  -17.1429   -0.0182 C.ar    1  NONAME1    -0.0599
      6 C5         -0.4829  -15.9793    0.0339 C.ar    1  NONAME1    -0.0387
      7 C6          0.9129  -16.0486   -0.0098 C.ar    1  NONAME1     0.0545
      8 N2          1.7591  -14.9104   -0.0217 N.am    1  NONAME1    -0.2804
      9 C7          1.3756  -13.5906    0.0553 C.2     1  NONAME1     0.2411
     10 O1          0.2282  -13.1742    0.1658 O.2     1  NONAME1    -0.2705
     11 C8          2.5236  -12.6280    0.0222 C.2     1  NONAME1     0.0010
     12 C9          2.2265  -11.3160    0.0637 C.2     1  NONAME1    -0.0497
     13 C10         3.1239  -10.1478    0.1237 C.ar    1  NONAME1    -0.0248
     14 C11         2.5190   -8.8833    0.2261 C.ar    1  NONAME1    -0.0528
     15 C12         3.2811   -7.7173    0.3353 C.ar    1  NONAME1    -0.0388
     16 C13         4.6694   -7.7927    0.3391 C.ar    1  NONAME1     0.0481
     17 N3          5.4440   -6.5876    0.4428 N.pl3   1  NONAME1    -0.2162
     18 S1          5.5764   -5.6672   -0.9895 S.O2    1  NONAME1     0.0730
     19 O2          6.9389   -5.8270   -1.4381 O.2     1  NONAME1    -0.1499
     20 O3          4.4697   -5.9552   -1.8772 O.2     1  NONAME1    -0.1499
     21 C14         5.3250   -4.0128   -0.3725 C.ar    1  NONAME1     0.1198
     22 C15         3.9684   -3.6214   -0.2304 C.ar    1  NONAME1    -0.0342
     23 C16         3.6089   -2.3228    0.1198 C.ar    1  NONAME1    -0.0564
     24 C17         4.5871   -1.3569    0.3167 C.ar    1  NONAME1    -0.0186
     25 C18         5.9153   -1.7601    0.1799 C.ar    1  NONAME1     0.1381
     26 O4          6.9623   -0.9125    0.3227 O.2     1  NONAME1    -0.4547
     27 C19         8.0907   -1.6385    0.1505 C.ar    1  NONAME1     0.1363
     28 C20         9.3798   -1.1103    0.2220 C.ar    1  NONAME1    -0.0187
     29 C21        10.4366   -2.0054    0.0632 C.ar    1  NONAME1    -0.0582
     30 C22        10.1916   -3.3607   -0.1437 C.ar    1  NONAME1    -0.0610
     31 C23         8.8792   -3.8576   -0.2203 C.ar    1  NONAME1    -0.0503
     32 C24         7.7841   -2.9768   -0.0921 C.ar    1  NONAME1     0.0298
     33 C25         6.3440   -3.0565   -0.1293 C.ar    1  NONAME1     0.0545
     34 C26         5.2920   -9.0361    0.2084 C.ar    1  NONAME1    -0.0388
     35 C27         4.5220  -10.2094    0.1075 C.ar    1  NONAME1    -0.0528
     36 H1          3.2563  -18.3928   -0.0760 H       1  NONAME1     0.1424
     37 H2          3.3300  -16.9545    0.7559 H       1  NONAME1     0.1424
     38 H3          1.2133  -19.4524   -0.2383 H       1  NONAME1     0.0636
     39 H4         -1.2453  -19.2875   -0.1800 H       1  NONAME1     0.0618
     40 H5         -2.3394  -17.0696    0.0121 H       1  NONAME1     0.0618
     41 H6         -1.0085  -15.0323    0.0921 H       1  NONAME1     0.0637
     42 H7          2.7348  -15.1386   -0.1707 H       1  NONAME1     0.1552
     43 H8          3.5324  -13.0118    0.0054 H       1  NONAME1     0.0670
     44 H9          1.1692  -11.0437    0.0817 H       1  NONAME1     0.0625
     45 H10         1.4339   -8.7885    0.2262 H       1  NONAME1     0.0624
     46 H11         2.7782   -6.7588    0.4163 H       1  NONAME1     0.0637
     47 H12         6.3954   -6.7741    0.7642 H       1  NONAME1     0.1737
     48 H13         3.1723   -4.3414   -0.4197 H       1  NONAME1     0.0637
     49 H14         2.5588   -2.0552    0.2139 H       1  NONAME1     0.0619
     50 H15         4.3380   -0.3300    0.5618 H       1  NONAME1     0.0654
     51 H16         9.5440   -0.0532    0.3953 H       1  NONAME1     0.0654
     52 H17        11.4605   -1.6412    0.1088 H       1  NONAME1     0.0619
     53 H18        11.0280   -4.0482   -0.2522 H       1  NONAME1     0.0618
     54 H19         8.7447   -4.9218   -0.3736 H       1  NONAME1     0.0625
     55 H20         6.3756   -9.1140    0.1856 H       1  NONAME1     0.0637
     56 H21         5.0369  -11.1613    0.0178 H       1  NONAME1     0.0624
@<TRIPOS>BOND
     1     1     2    1
     2     2     3   ar
     3     3     4   ar
     4     4     5   ar
     5     5     6   ar
     6     6     7   ar
     7     2     7   ar
     8     7     8    1
     9     8     9   am
    10     9    10    2
    11     9    11    1
    12    11    12    2
    13    12    13    1
    14    13    14   ar
    15    14    15   ar
    16    15    16   ar
    17    16    17    1
    18    17    18    1
    19    18    19    2
    20    18    20    2
    21    18    21    1
    22    21    22   ar
    23    22    23   ar
    24    23    24   ar
    25    24    25   ar
    26    25    26   ar
    27    26    27   ar
    28    27    28   ar
    29    28    29   ar
    30    29    30   ar
    31    30    31   ar
    32    31    32   ar
    33    27    32   ar
    34    32    33   ar
    35    21    33   ar
    36    25    33   ar
    37    16    34   ar
    38    34    35   ar
    39    13    35   ar
    40     1    36    1
    41     1    37    1
    42     3    38    1
    43     4    39    1
    44     5    40    1
    45     6    41    1
    46     8    42    1
    47    11    43    1
    48    12    44    1
    49    14    45    1
    50    15    46    1
    51    17    47    1
    52    22    48    1
    53    23    49    1
    54    24    50    1
    55    28    51    1
    56    29    52    1
    57    30    53    1
    58    31    54    1
    59    34    55    1
    60    35    56    1
