REMARK  13 active torsions:
REMARK  status: ('A' for Active; 'I' for Inactive)
REMARK    1  A    between atoms: N1_1  and  S1_2 
REMARK    2  A    between atoms: S1_2  and  N2_5 
REMARK    3  A    between atoms: N2_5  and  C1_6 
REMARK    4  A    between atoms: C1_6  and  C2_7 
REMARK    5  A    between atoms: C2_7  and  C3_8 
REMARK    6  A    between atoms: C3_8  and  C4_9 
REMARK    7  A    between atoms: C5_10  and  C4_9 
REMARK    8  A    between atoms: C5_10  and  N3_11 
REMARK    9  A    between atoms: C5_10  and  C14_22 
REMARK       I    between atoms: N3_11  and  C6_12 
REMARK   10  A    between atoms: C6_12  and  O4_14 
REMARK   11  A    between atoms: O4_14  and  C7_15 
REMARK   12  A    between atoms: C7_15  and  C8_16 
REMARK   13  A    between atoms: C16_25  and  C17_26 
ROOT
ATOM      1  C5  NON d   1       3.518  -7.494   0.000  0.00  0.00     0.140 C 
ENDROOT
BRANCH   1   2
ATOM      2  C4  NON d   1       2.079  -8.087   0.379  0.00  0.00     0.032 C 
BRANCH   2   3
ATOM      3  C3  NON d   1       1.979  -8.997   1.657  0.00  0.00     0.004 C 
BRANCH   3   4
ATOM      4  C2  NON d   1       2.596 -10.422   1.546  0.00  0.00     0.020 C 
BRANCH   4   5
ATOM      5  C1  NON d   1       2.353 -11.388   2.721  0.00  0.00     0.133 C 
BRANCH   5   6
ATOM      6  N2  NON d   1       1.098 -12.161   2.599  0.00  0.00    -0.307 N 
ATOM      7  H3  NON d   1       1.044 -13.014   3.149  0.00  0.00     0.173 HD
BRANCH   6   8
ATOM      8  S1  NON d   1      -0.250 -11.420   2.529  0.00  0.00     0.294 S 
ATOM      9  O1  NON d   1      -0.967 -12.690   2.392  0.00  0.00    -0.189 OA
ATOM     10  O2  NON d   1      -0.079 -10.866   3.876  0.00  0.00    -0.189 OA
BRANCH   8  11
ATOM     11  N1  NON d   1      -1.598 -10.679   2.460  0.00  0.00    -0.212 NA
ATOM     12  H1  NON d   1      -1.738 -10.198   3.350  0.00  0.00     0.137 HD
ATOM     13  H2  NON d   1      -2.338 -11.372   2.335  0.00  0.00     0.137 HD
ENDBRANCH   8  11
ENDBRANCH   6   8
ENDBRANCH   5   6
ENDBRANCH   4   5
ENDBRANCH   3   4
ENDBRANCH   2   3
ENDBRANCH   1   2
BRANCH   1  14
ATOM     14  N3  NON d   1       4.872  -7.892  -0.374  0.00  0.00    -0.327 N 
ATOM     15  C6  NON d   1       5.975  -7.683   0.412  0.00  0.00     0.361 C 
ATOM     16  O3  NON d   1       5.954  -7.311   1.576  0.00  0.00    -0.238 OA
ATOM     17  H13 NON d   1       5.079  -8.042  -1.349  0.00  0.00     0.165 HD
BRANCH  15  18
ATOM     18  O4  NON d   1       7.104  -7.942  -0.312  0.00  0.00    -0.299 OA
BRANCH  18  19
ATOM     19  C7  NON d   1       8.310  -7.322   0.173  0.00  0.00     0.219 C 
BRANCH  19  20
ATOM     20  C8  NON d   1       9.573  -8.156   0.020  0.00  0.00    -0.034 A 
ATOM     21  C9  NON d   1      10.820  -7.493   0.009  0.00  0.00     0.009 A 
ATOM     22  C10 NON d   1      12.019  -8.209  -0.042  0.00  0.00     0.001 A 
ATOM     23  C11 NON d   1      11.996  -9.602  -0.077  0.00  0.00     0.000 A 
ATOM     24  C12 NON d   1      10.772 -10.273  -0.059  0.00  0.00     0.001 A 
ATOM     25  C13 NON d   1       9.569  -9.553  -0.006  0.00  0.00     0.009 A 
ENDBRANCH  19  20
ENDBRANCH  18  19
ENDBRANCH  15  18
ENDBRANCH   1  14
BRANCH   1  26
ATOM     26  C14 NON d   1       3.518  -5.954   0.000  0.00  0.00     0.075 A 
ATOM     27  C15 NON d   1       2.451  -5.115   0.273  0.00  0.00     0.119 A 
ATOM     28  N4  NON d   1       2.925  -3.844   0.177  0.00  0.00    -0.348 N 
ATOM     29  C16 NON d   1       4.259  -3.896  -0.135  0.00  0.00     0.138 A 
ATOM     30  H22 NON d   1       2.398  -3.006   0.371  0.00  0.00     0.167 HD
ATOM     31  N5  NON d   1       4.625  -5.160  -0.301  0.00  0.00    -0.231 NA
BRANCH  29  32
ATOM     32  C17 NON d   1       5.098  -2.692  -0.180  0.00  0.00     0.010 A 
ATOM     33  C18 NON d   1       4.544  -1.398  -0.217  0.00  0.00     0.015 A 
ATOM     34  C19 NON d   1       5.357  -0.263  -0.171  0.00  0.00     0.001 A 
ATOM     35  C20 NON d   1       6.739  -0.404  -0.098  0.00  0.00     0.000 A 
ATOM     36  C21 NON d   1       7.306  -1.677  -0.083  0.00  0.00     0.001 A 
ATOM     37  C22 NON d   1       6.491  -2.813  -0.125  0.00  0.00     0.015 A 
ENDBRANCH  29  32
ENDBRANCH   1  26
TORSDOF 13
