@<TRIPOS>MOLECULE
*****
 34 35 0 0 0
SMALL
USER_CHARGES

@<TRIPOS>ATOM
      1 C1          5.8975   -0.1391    1.3009 C.3     1  NONAME1    -0.0424
      2 C2          6.4692   -0.8850    0.0000 C.3     1  NONAME1     0.0459
      3 N1          6.9659   -2.3151    0.2489 N.am    1  NONAME1    -0.3044
      4 C3          6.4100   -3.1320    1.2312 C.2     1  NONAME1     0.2512
      5 O1          6.0286   -2.7102    2.3171 O.2     1  NONAME1    -0.2696
      6 C4          6.2102   -4.5110    0.8145 C.ar    1  NONAME1     0.0745
      7 C5          7.0719   -5.3950    0.2010 C.ar    1  NONAME1    -0.0418
      8 C6          6.4396   -6.6457   -0.0888 C.ar    1  NONAME1    -0.0417
      9 C7          5.1076   -6.6711    0.2868 C.ar    1  NONAME1     0.0765
     10 C8          4.1021   -7.7112    0.1279 C.2     1  NONAME1     0.2731
     11 O2          2.8840   -7.5431    0.2215 O.2     1  NONAME1    -0.2675
     12 N2          4.5958   -8.9762   -0.1284 N.am    1  NONAME1    -0.1930
     13 O3          3.6399  -10.0224   -0.1261 O.3     1  NONAME1    -0.2949
     14 S1          4.6587   -5.1987    1.0387 S.2     1  NONAME1    -0.0790
     15 C9          7.8029   -0.1150    0.0000 C.ar    1  NONAME1    -0.0275
     16 C10         7.7989    1.1989   -0.5153 C.ar    1  NONAME1    -0.0568
     17 C11         8.9673    1.9659   -0.5728 C.ar    1  NONAME1    -0.0614
     18 C12        10.1807    1.4222   -0.1650 C.ar    1  NONAME1    -0.0617
     19 C13        10.2224    0.1200    0.3193 C.ar    1  NONAME1    -0.0614
     20 C14         9.0475   -0.6320    0.4169 C.ar    1  NONAME1    -0.0568
     21 H1          6.5945   -0.1456    2.1482 H       1  NONAME1     0.0251
     22 H2          5.6191    0.8953    1.0643 H       1  NONAME1     0.0251
     23 H3          4.9670   -0.5995    1.6557 H       1  NONAME1     0.0251
     24 H4          5.1355   -1.6550    0.0000 H       1  NONAME1     0.0545
     25 H5          7.2063   -2.7816   -0.6132 H       1  NONAME1     0.1496
     26 H6          8.1056   -5.1648   -0.0242 H       1  NONAME1     0.0631
     27 H7          6.9461   -7.4680   -0.5838 H       1  NONAME1     0.0631
     28 H8          5.5437   -9.2406    0.1084 H       1  NONAME1     0.1825
     29 H9          2.7953   -9.5406    0.0234 H       1  NONAME1     0.2414
     30 H10         6.8689    1.6534   -0.8530 H       1  NONAME1     0.0621
     31 H11         8.9279    2.9892   -0.9367 H       1  NONAME1     0.0618
     32 H12        11.0917    2.0115   -0.2210 H       1  NONAME1     0.0618
     33 H13        11.1689   -0.3158    0.6292 H       1  NONAME1     0.0618
     34 H14         9.1360   -1.6370    0.8217 H       1  NONAME1     0.0621
@<TRIPOS>BOND
     1     2     1    1
     2     2     3    1
     3     3     4   am
     4     4     5    2
     5     4     6    1
     6     6     7   ar
     7     7     8   ar
     8     8     9   ar
     9     9    10    1
    10    10    11    2
    11    10    12   am
    12    12    13    1
    13     9    14   ar
    14     6    14   ar
    15     2    15    1
    16    15    16   ar
    17    16    17   ar
    18    17    18   ar
    19    18    19   ar
    20    19    20   ar
    21    15    20   ar
    22     1    21    1
    23     1    22    1
    24     1    23    1
    25     2    24    1
    26     3    25    1
    27     7    26    1
    28     8    27    1
    29    12    28    1
    30    13    29    1
    31    16    30    1
    32    17    31    1
    33    18    32    1
    34    19    33    1
    35    20    34    1
