REMARK  12 active torsions:
REMARK  status: ('A' for Active; 'I' for Inactive)
REMARK    1  A    between atoms: N1_1  and  C1_2 
REMARK    2  A    between atoms: C6_7  and  N2_8 
REMARK       I    between atoms: N2_8  and  C7_9 
REMARK    3  A    between atoms: C7_9  and  C8_11 
REMARK    4  A    between atoms: C9_12  and  C10_13 
REMARK    5  A    between atoms: C13_16  and  C14_17 
REMARK    6  A    between atoms: C14_17  and  N3_18 
REMARK    7  A    between atoms: C14_17  and  C22_27 
REMARK    8  A    between atoms: N3_18  and  C15_19 
REMARK    9  A    between atoms: C15_19  and  C16_20 
REMARK   10  A    between atoms: C16_20  and  C17_21 
REMARK       I    between atoms: C22_27  and  N4_29 
REMARK   11  A    between atoms: N4_29  and  C23_30 
REMARK   12  A    between atoms: C26_33  and  C27_34 
ROOT
ATOM      1  C14 NON d   1       1.677  -6.840   0.256  0.00  0.00     0.310 C 
ENDROOT
BRANCH   1   2
ATOM      2  C13 NON d   1       1.671  -8.382   0.080  0.00  0.00    -0.019 A 
ATOM      3  C12 NON d   1       0.496  -9.164   0.069  0.00  0.00     0.010 A 
ATOM      4  C11 NON d   1       0.532 -10.573   0.029  0.00  0.00     0.012 A 
ATOM      5  C10 NON d   1       1.740 -11.285   0.020  0.00  0.00    -0.036 A 
ATOM      6  C31 NON d   1       2.910 -10.527   0.042  0.00  0.00     0.012 A 
ATOM      7  C30 NON d   1       2.876  -9.112   0.084  0.00  0.00     0.010 A 
BRANCH   5   8
ATOM      8  C9  NON d   1       1.694 -12.768  -0.017  0.00  0.00     0.017 C 
ATOM      9  C8  NON d   1       2.712 -13.650   0.038  0.00  0.00     0.075 C 
BRANCH   9  10
ATOM     10  C7  NON d   1       2.419 -15.126  -0.043  0.00  0.00     0.245 C 
ATOM     11  N2  NON d   1       3.553 -15.912   0.018  0.00  0.00    -0.322 N 
ATOM     12  H7  NON d   1       4.451 -15.472   0.170  0.00  0.00     0.169 HD
ATOM     13  O1  NON d   1       1.264 -15.518  -0.169  0.00  0.00    -0.268 OA
BRANCH  11  14
ATOM     14  C6  NON d   1       3.630 -17.332  -0.029  0.00  0.00     0.056 A 
ATOM     15  C5  NON d   1       2.512 -18.170  -0.052  0.00  0.00     0.031 A 
ATOM     16  C4  NON d   1       2.661 -19.562  -0.018  0.00  0.00     0.002 A 
ATOM     17  C3  NON d   1       3.929 -20.135   0.050  0.00  0.00     0.002 A 
ATOM     18  C2  NON d   1       5.054 -19.313   0.068  0.00  0.00     0.025 A 
ATOM     19  C1  NON d   1       4.921 -17.919  -0.023  0.00  0.00     0.033 A 
BRANCH  19  20
ATOM     20  N1  NON d   1       6.088 -17.115  -0.003  0.00  0.00    -0.301 NA
ATOM     21  H1  NON d   1       6.933 -17.670  -0.123  0.00  0.00     0.124 HD
ATOM     22  H2  NON d   1       6.043 -16.397  -0.722  0.00  0.00     0.124 HD
ENDBRANCH  19  20
ENDBRANCH  11  14
ENDBRANCH   9  10
ENDBRANCH   5   8
ENDBRANCH   1   2
BRANCH   1  23
ATOM     23  N3  NON d   1       0.288  -6.181   0.135  0.00  0.00    -0.058 N 
ATOM     24  H13 NON d   1       0.337  -5.250   0.551  0.00  0.00     0.278 HD
ATOM     25  H14 NON d   1      -0.326  -6.709   0.770  0.00  0.00     0.278 HD
BRANCH  23  26
ATOM     26  C15 NON d   1      -0.381  -6.103  -1.213  0.00  0.00     0.234 C 
BRANCH  26  27
ATOM     27  C16 NON d   1      -1.871  -5.740  -1.020  0.00  0.00     0.032 C 
BRANCH  27  28
ATOM     28  C17 NON d   1      -2.261  -4.240  -0.935  0.00  0.00    -0.009 C 
ATOM     29  C18 NON d   1      -1.298  -3.377  -0.111  0.00  0.00     0.031 C 
ATOM     30  C19 NON d   1      -1.650  -1.897  -0.197  0.00  0.00     0.168 C 
ATOM     31  O2  NON d   1      -1.647  -1.505  -1.564  0.00  0.00    -0.391 OA
ATOM     32  C20 NON d   1      -2.707  -2.129  -2.286  0.00  0.00     0.168 C 
ATOM     33  C21 NON d   1      -2.486  -3.638  -2.336  0.00  0.00     0.031 C 
ENDBRANCH  27  28
ENDBRANCH  26  27
ENDBRANCH  23  26
ENDBRANCH   1  23
BRANCH   1  34
ATOM     34  C22 NON d   1       2.852  -6.029  -0.447  0.00  0.00     0.257 C 
ATOM     35  O3  NON d   1       3.579  -6.551  -1.289  0.00  0.00    -0.270 OA
ATOM     36  N4  NON d   1       3.031  -4.703  -0.012  0.00  0.00    -0.325 N 
ATOM     37  H28 NON d   1       2.236  -4.159   0.287  0.00  0.00     0.169 HD
BRANCH  36  38
ATOM     38  C23 NON d   1       4.249  -3.942  -0.096  0.00  0.00     0.034 A 
ATOM     39  C24 NON d   1       4.202  -2.543   0.025  0.00  0.00     0.030 A 
ATOM     40  C25 NON d   1       5.382  -1.744   0.047  0.00  0.00     0.018 A 
ATOM     41  C26 NON d   1       6.668  -2.310   0.000  0.00  0.00     0.048 A 
ATOM     42  C28 NON d   1       6.688  -3.721  -0.149  0.00  0.00     0.018 A 
ATOM     43  C29 NON d   1       5.513  -4.519  -0.199  0.00  0.00     0.030 A 
BRANCH  41  44
ATOM     44  C27 NON d   1       8.002  -1.540   0.000  0.00  0.00     0.417 C 
ATOM     45  F1  NON d   1       9.336  -0.770   0.000  0.00  0.00    -0.166 F 
ATOM     46  F2  NON d   1       8.553  -2.354   1.043  0.00  0.00    -0.166 F 
ATOM     47  F3  NON d   1       7.460  -0.434   0.733  0.00  0.00    -0.166 F 
ENDBRANCH  41  44
ENDBRANCH  36  38
ENDBRANCH   1  34
TORSDOF 12
