@<TRIPOS>MOLECULE
*****
 47 50 0 0 0
SMALL
USER_CHARGES

@<TRIPOS>ATOM
      1 N1          3.4143  -11.3040    0.0524 N.pl3   1  NONAME1    -0.3565
      2 C1          2.2516  -12.1152    0.1753 C.ar    1  NONAME1     0.0461
      3 C2          2.3631  -13.5092    0.1078 C.ar    1  NONAME1    -0.0392
      4 C3          1.2182  -14.3046    0.0613 C.ar    1  NONAME1    -0.0599
      5 C4         -0.0408  -13.7090    0.0416 C.ar    1  NONAME1    -0.0599
      6 C5         -0.1632  -12.3166    0.0769 C.ar    1  NONAME1    -0.0387
      7 C6          0.9750  -11.5109    0.1393 C.ar    1  NONAME1     0.0545
      8 N2          0.9552  -10.0954    0.1838 N.am    1  NONAME1    -0.2800
      9 C7         -0.1472   -9.2645    0.1856 C.2     1  NONAME1     0.2483
     10 O1         -1.3150   -9.6422    0.1402 O.2     1  NONAME1    -0.2699
     11 C8          0.1147   -7.7846    0.2035 C.ar    1  NONAME1     0.0370
     12 C9         -0.9553   -6.9468   -0.1267 C.ar    1  NONAME1    -0.0493
     13 C10        -0.7764   -5.5649   -0.2239 C.ar    1  NONAME1    -0.0562
     14 C11         0.4739   -4.9615    0.0144 C.ar    1  NONAME1    -0.0275
     15 C12         0.5492   -3.4697   -0.2829 C.3     1  NONAME1     0.0560
     16 N3          1.7291   -2.6588    0.0234 N.ar    1  NONAME1    -0.2561
     17 C13         1.4503   -1.3266    0.3269 C.ar    1  NONAME1     0.3301
     18 O2          0.3180   -0.8658    0.4775 O.2     1  NONAME1    -0.2464
     19 N4          2.5059   -0.4663    0.4124 N.ar    1  NONAME1    -0.3070
     20 C14         3.8262   -0.8345    0.2000 C.ar    1  NONAME1     0.0556
     21 C15         4.8568    0.0867    0.3862 C.ar    1  NONAME1    -0.0375
     22 C16         6.1793   -0.3193    0.1972 C.ar    1  NONAME1    -0.0598
     23 C17         6.4656   -1.6324   -0.1822 C.ar    1  NONAME1    -0.0609
     24 C18         5.4252   -2.5378   -0.4077 C.ar    1  NONAME1    -0.0474
     25 C19         4.1008   -2.1270   -0.2193 C.ar    1  NONAME1     0.0630
     26 C20         2.9616   -3.0077   -0.5262 C.ar    1  NONAME1     0.2646
     27 O3          3.1574   -3.9605   -1.2752 O.2     1  NONAME1    -0.2668
     28 C21         1.5201   -5.7943    0.4239 C.ar    1  NONAME1    -0.0562
     29 C22         1.3483   -7.1927    0.5069 C.ar    1  NONAME1    -0.0493
     30 H1          4.2479  -11.8250    0.3189 H       1  NONAME1     0.1424
     31 H2          3.5089  -11.0201   -0.9230 H       1  NONAME1     0.1424
     32 H3          3.3377  -13.9881    0.0939 H       1  NONAME1     0.0636
     33 H4          1.3066  -15.3874    0.0272 H       1  NONAME1     0.0618
     34 H5         -0.9352  -14.3254   -0.0085 H       1  NONAME1     0.0618
     35 H6         -1.1611  -11.8921    0.0468 H       1  NONAME1     0.0637
     36 H7          1.8874   -9.7033    0.2299 H       1  NONAME1     0.1552
     37 H8         -1.9366   -7.3669   -0.3422 H       1  NONAME1     0.0625
     38 H9         -1.6304   -4.9558   -0.5182 H       1  NONAME1     0.0621
     39 H10        -0.3074   -3.0341    0.2466 H       1  NONAME1     0.0544
     40 H11         0.3660   -3.3406   -1.3557 H       1  NONAME1     0.0544
     41 H12         2.2679    0.4900    0.6449 H       1  NONAME1     0.1704
     42 H13         4.6473    1.1113    0.6785 H       1  NONAME1     0.0638
     43 H14         6.9904    0.3913    0.3459 H       1  NONAME1     0.0618
     44 H15         7.4986   -1.9442   -0.3175 H       1  NONAME1     0.0618
     45 H16         5.6465   -3.5540   -0.7255 H       1  NONAME1     0.0626
     46 H17         2.5033   -5.3912    0.6488 H       1  NONAME1     0.0621
     47 H18         2.2056   -7.7868    0.8064 H       1  NONAME1     0.0625
@<TRIPOS>BOND
     1     1     2    1
     2     2     3   ar
     3     3     4   ar
     4     4     5   ar
     5     5     6   ar
     6     6     7   ar
     7     2     7   ar
     8     7     8    1
     9     8     9   am
    10     9    10    2
    11     9    11    1
    12    11    12   ar
    13    12    13   ar
    14    13    14   ar
    15    14    15    1
    16    15    16    1
    17    16    17   ar
    18    17    18    2
    19    17    19   ar
    20    19    20   ar
    21    20    21   ar
    22    21    22   ar
    23    22    23   ar
    24    23    24   ar
    25    24    25   ar
    26    20    25   ar
    27    25    26   ar
    28    16    26   ar
    29    26    27    2
    30    14    28   ar
    31    28    29   ar
    32    11    29   ar
    33     1    30    1
    34     1    31    1
    35     3    32    1
    36     4    33    1
    37     5    34    1
    38     6    35    1
    39     8    36    1
    40    12    37    1
    41    13    38    1
    42    15    39    1
    43    15    40    1
    44    19    41    1
    45    21    42    1
    46    22    43    1
    47    23    44    1
    48    24    45    1
    49    28    46    1
    50    29    47    1
