REMARK  8 active torsions:
REMARK  status: ('A' for Active; 'I' for Inactive)
REMARK    1  A    between atoms: C2_2  and  S1_3 
REMARK    2  A    between atoms: S1_3  and  C3_4 
REMARK    3  A    between atoms: C3_4  and  S3_6 
REMARK    4  A    between atoms: S3_6  and  C4_7 
REMARK    5  A    between atoms: C4_7  and  C5_8 
REMARK    6  A    between atoms: C5_8  and  C6_10 
REMARK    7  A    between atoms: C9_13  and  C10_14 
REMARK    8  A    between atoms: C10_14  and  N1_15 
REMARK       I    between atoms: N1_15  and  C12_17 
ROOT
ATOM      1  C6  NON d   1      10.828  -7.974   0.115  0.00  0.00     0.011 A 
ATOM      2  C7  NON d   1      11.949  -7.307   0.625  0.00  0.00     0.016 A 
ATOM      3  C8  NON d   1      13.197  -7.944   0.724  0.00  0.00     0.010 A 
ATOM      4  C9  NON d   1      13.411  -9.237   0.225  0.00  0.00    -0.040 A 
ATOM      5  C14 NON d   1      12.269  -9.915  -0.250  0.00  0.00     0.010 A 
ATOM      6  C15 NON d   1      10.993  -9.300  -0.296  0.00  0.00     0.016 A 
ENDROOT
BRANCH   1   7
ATOM      7  C5  NON d   1       9.536  -7.210   0.040  0.00  0.00     0.169 C 
ATOM      8  O1  NON d   1       9.593  -5.978   0.083  0.00  0.00    -0.291 OA
BRANCH   7   9
ATOM      9  C4  NON d   1       8.223  -7.978  -0.062  0.00  0.00     0.164 C 
BRANCH   9  10
ATOM     10  S3  NON d   1       6.774  -6.901  -0.345  0.00  0.00    -0.104 SA
BRANCH  10  11
ATOM     11  C3  NON d   1       6.260  -6.319   1.249  0.00  0.00     0.104 C 
ATOM     12  S2  NON d   1       7.119  -6.486   2.678  0.00  0.00    -0.065 SA
BRANCH  11  13
ATOM     13  S1  NON d   1       4.608  -5.644   1.172  0.00  0.00    -0.112 SA
BRANCH  13  14
ATOM     14  C2  NON d   1       4.684  -4.208   2.291  0.00  0.00     0.076 C 
ATOM     15  C1  NON d   1       3.342  -3.451   2.301  0.00  0.00     0.016 C 
ENDBRANCH  13  14
ENDBRANCH  11  13
ENDBRANCH  10  11
ENDBRANCH   9  10
ENDBRANCH   7   9
ENDBRANCH   1   7
BRANCH   4  16
ATOM     16  C10 NON d   1      14.759  -9.972   0.293  0.00  0.00     0.163 C 
BRANCH  16  17
ATOM     17  N1  NON d   1      16.004  -9.240   0.000  0.00  0.00    -0.353 N 
ATOM     18  C11 NON d   1      16.004  -7.700   0.000  0.00  0.00     0.152 C 
ATOM     19  C12 NON d   1      17.338 -10.010   0.000  0.00  0.00     0.215 C 
ATOM     20  C13 NON d   1      18.672  -9.240   0.000  0.00  0.00     0.117 C 
ATOM     21  O2  NON d   1      17.298 -11.242   0.086  0.00  0.00    -0.274 OA
ENDBRANCH  16  17
ENDBRANCH   4  16
TORSDOF 8
