REMARK  7 active torsions:
REMARK  status: ('A' for Active; 'I' for Inactive)
REMARK    1  A    between atoms: C2_2  and  C3_3 
REMARK    2  A    between atoms: C3_3  and  C4_4 
REMARK    3  A    between atoms: C4_4  and  S2_6 
REMARK    4  A    between atoms: S2_6  and  C5_7 
REMARK    5  A    between atoms: C5_7  and  C6_8 
REMARK    6  A    between atoms: C6_8  and  C7_10 
REMARK    7  A    between atoms: C10_13  and  O2_14 
ROOT
ATOM      1  C6  NON d   1       9.464  -7.027  -0.105  0.00  0.00     0.169 C 
ATOM      2  O1  NON d   1       9.506  -5.801  -0.190  0.00  0.00    -0.291 OA
ENDROOT
BRANCH   1   3
ATOM      3  C5  NON d   1       8.166  -7.827  -0.057  0.00  0.00     0.163 C 
BRANCH   3   4
ATOM      4  S2  NON d   1       6.742  -6.771   0.334  0.00  0.00    -0.115 SA
BRANCH   4   5
ATOM      5  C4  NON d   1       5.324  -7.812   0.090  0.00  0.00     0.045 C 
ATOM      6  S1  NON d   1       5.373  -9.460  -0.210  0.00  0.00    -0.077 SA
BRANCH   5   7
ATOM      7  C3  NON d   1       4.023  -7.002   0.186  0.00  0.00     0.057 C 
BRANCH   7   8
ATOM      8  C2  NON d   1       2.667  -7.700   0.037  0.00  0.00     0.001 C 
ATOM      9  C1  NON d   1       2.334  -8.635   1.214  0.00  0.00     0.005 C 
ENDBRANCH   7   8
ENDBRANCH   5   7
ENDBRANCH   4   5
ENDBRANCH   3   4
ENDBRANCH   1   3
BRANCH   1  10
ATOM     10  C7  NON d   1      10.761  -7.779  -0.092  0.00  0.00     0.011 A 
ATOM     11  C8  NON d   1      11.957  -7.045  -0.079  0.00  0.00     0.018 A 
ATOM     12  C9  NON d   1      13.200  -7.691  -0.052  0.00  0.00     0.037 A 
ATOM     13  C10 NON d   1      13.261  -9.082  -0.031  0.00  0.00     0.068 A 
ATOM     14  C12 NON d   1      12.072  -9.816  -0.063  0.00  0.00     0.037 A 
ATOM     15  C13 NON d   1      10.827  -9.175  -0.096  0.00  0.00     0.018 A 
BRANCH  13  16
ATOM     16  O2  NON d   1      14.398  -9.839   0.022  0.00  0.00    -0.356 OA
ATOM     17  C11 NON d   1      15.633  -9.142   0.131  0.00  0.00     0.210 C 
ENDBRANCH  13  16
ENDBRANCH   1  10
TORSDOF 7
