REMARK  6 active torsions:
REMARK  status: ('A' for Active; 'I' for Inactive)
REMARK    1  A    between atoms: C3_3  and  C2_2 
REMARK    2  A    between atoms: C5_5  and  C3_3 
REMARK    3  A    between atoms: C16_22  and  C17_23 
REMARK    4  A    between atoms: C17_23  and  C18_24 
REMARK    5  A    between atoms: C18_24  and  S3_25 
REMARK    6  A    between atoms: C23_35  and  O7_36 
ROOT
ATOM      1  C5  NON d   1       1.572   0.044  -0.986  0.00  0.00     0.117 C 
ATOM      2  N1  NON d   1       1.910   1.064   0.040  0.00  0.00    -0.352 N 
ATOM      3  C6  NON d   1       2.129   0.710   1.370  0.00  0.00     0.241 C 
ATOM      4  O1  NON d   1       1.548   1.335   2.257  0.00  0.00    -0.271 OA
ATOM      5  C7  NON d   1       3.164  -0.405   1.690  0.00  0.00     0.186 C 
ATOM      6  C8  NON d   1       4.198   0.194   2.677  0.00  0.00     0.120 C 
ATOM      7  S1  NON d   1       5.870  -0.606   2.581  0.00  0.00    -0.095 SA
ATOM      8  S2  NON d   1       6.719   0.190   0.862  0.00  0.00    -0.097 SA
ATOM      9  C9  NON d   1       8.444  -0.442   0.875  0.00  0.00     0.090 C 
ATOM     10  C10 NON d   1       8.897  -1.220  -0.376  0.00  0.00     0.038 C 
ATOM     11  C11 NON d   1       8.711  -2.710  -0.501  0.00  0.00    -0.027 C 
ATOM     12  C12 NON d   1       7.633  -3.512  -0.540  0.00  0.00     0.002 C 
ATOM     13  C13 NON d   1       6.156  -3.245  -0.348  0.00  0.00     0.163 C 
ATOM     14  C14 NON d   1       5.294  -4.525  -0.449  0.00  0.00     0.139 C 
ATOM     15  C15 NON d   1       4.497  -4.691   0.838  0.00  0.00     0.221 C 
ATOM     16  O2  NON d   1       4.929  -4.484   1.966  0.00  0.00    -0.274 OA
ATOM     17  N2  NON d   1       3.175  -4.979   0.613  0.00  0.00    -0.348 N 
ATOM     18  C16 NON d   1       2.166  -4.217   1.338  0.00  0.00     0.177 C 
ATOM     19  C20 NON d   1       2.481  -2.744   0.950  0.00  0.00     0.241 C 
ATOM     20  O4  NON d   1       2.644  -2.511  -0.249  0.00  0.00    -0.271 OA
ATOM     21  N3  NON d   1       2.657  -1.781   1.948  0.00  0.00    -0.345 N 
ATOM     22  O5  NON d   1       5.693  -2.031  -1.022  0.00  0.00    -0.311 OA
ATOM     23  C21 NON d   1       4.752  -1.873  -2.008  0.00  0.00     0.262 C 
ATOM     24  O6  NON d   1       4.482  -2.684  -2.875  0.00  0.00    -0.265 OA
ATOM     25  C22 NON d   1       4.069  -0.514  -1.775  0.00  0.00     0.144 C 
ATOM     26  C23 NON d   1       2.619  -0.151  -2.195  0.00  0.00     0.150 C 
ATOM     27  H11 NON d   1       1.380   1.926  -0.045  0.00  0.00     0.163 HD
ATOM     28  H24 NON d   1       2.989  -5.970   0.469  0.00  0.00     0.163 HD
ATOM     29  H33 NON d   1       2.713  -2.121   2.896  0.00  0.00     0.163 HD
ENDROOT
BRANCH  18  30
ATOM     30  C17 NON d   1       0.743  -4.653   0.903  0.00  0.00     0.047 C 
BRANCH  30  31
ATOM     31  C18 NON d   1       0.412  -4.857  -0.596  0.00  0.00     0.111 C 
BRANCH  31  32
ATOM     32  S3  NON d   1       1.273  -6.251  -1.404  0.00  0.00     0.010 S 
ATOM     33  C19 NON d   1      -0.054  -6.857  -2.472  0.00  0.00     0.127 C 
ATOM     34  O3  NON d   1       1.555  -7.289  -0.357  0.00  0.00    -0.258 OA
ENDBRANCH  31  32
ENDBRANCH  30  31
ENDBRANCH  18  30
BRANCH   1  35
ATOM     35  C3  NON d   1       0.048   0.062  -1.396  0.00  0.00     0.006 C 
ATOM     36  C4  NON d   1      -0.713   1.378  -1.202  0.00  0.00     0.012 C 
BRANCH  35  37
ATOM     37  C2  NON d   1      -0.751  -1.083  -0.695  0.00  0.00     0.002 C 
ATOM     38  C1  NON d   1      -0.875  -1.012   0.825  0.00  0.00     0.005 C 
ENDBRANCH  35  37
ENDBRANCH   1  35
BRANCH  26  39
ATOM     39  O7  NON d   1       2.617   1.065  -2.964  0.00  0.00    -0.393 OA
ATOM     40  H37 NON d   1       3.520   1.429  -2.989  0.00  0.00     0.210 HD
ENDBRANCH  26  39
TORSDOF 6
