@<TRIPOS>MOLECULE
*****
 37 39 0 0 0
SMALL
USER_CHARGES

@<TRIPOS>ATOM
      1 O1         -7.5106    1.0551   -0.0016 O.2     1  NONAME1    -0.2687
      2 C1         -7.0416    2.1850   -0.0044 C.2     1  NONAME1     0.2593
      3 C2         -5.5746    2.4344   -0.0015 C.2     1  NONAME1     0.0027
      4 C3         -4.6843    1.4273   -0.0025 C.2     1  NONAME1    -0.0496
      5 C4         -3.2157    1.5996   -0.0006 C.ar    1  NONAME1    -0.0242
      6 C5         -2.6125    2.8621    0.0026 C.ar    1  NONAME1    -0.0546
      7 C6         -1.2292    2.9899    0.0076 C.ar    1  NONAME1    -0.0605
      8 C7         -0.4190    1.8559    0.0092 C.ar    1  NONAME1    -0.0508
      9 C8         -0.9662    0.5731    0.0028 C.ar    1  NONAME1     0.0243
     10 C9         -0.1547   -0.6976    0.0023 C.2     1  NONAME1     0.2092
     11 O2         -0.7934   -1.7519    0.0034 O.2     1  NONAME1    -0.2851
     12 C10         1.3070   -0.7699    0.0003 C.ar    1  NONAME1     0.0881
     13 C11         2.3561    0.1354   -0.0082 C.ar    1  NONAME1    -0.0255
     14 C12         3.5924   -0.5686   -0.0048 C.ar    1  NONAME1     0.0004
     15 C13         4.9409   -0.1647   -0.0058 C.ar    1  NONAME1    -0.0526
     16 C14         5.9432   -1.1385   -0.0027 C.ar    1  NONAME1    -0.0611
     17 C15         5.6130   -2.4927   -0.0001 C.ar    1  NONAME1    -0.0598
     18 C16         4.2772   -2.9137    0.0010 C.ar    1  NONAME1    -0.0378
     19 C17         3.2886   -1.9227   -0.0002 C.ar    1  NONAME1     0.0470
     20 N1          1.9181   -2.0181    0.0024 N.ar    1  NONAME1    -0.3516
     21 C18        -2.3779    0.4658   -0.0013 C.ar    1  NONAME1    -0.0437
     22 N2         -7.7525    3.3627   -0.0109 N.am    1  NONAME1    -0.1940
     23 O3         -9.1570    3.2660   -0.0137 O.3     1  NONAME1    -0.2949
     24 H1         -5.2719    3.4707    0.0008 H       1  NONAME1     0.0670
     25 H2         -5.0471    0.3990   -0.0047 H       1  NONAME1     0.0625
     26 H3         -3.1936    3.7779    0.0022 H       1  NONAME1     0.0623
     27 H4         -0.7759    3.9783    0.0112 H       1  NONAME1     0.0618
     28 H5          0.6385    2.0423    0.0172 H       1  NONAME1     0.0625
     29 H6          2.3222    1.2099   -0.0148 H       1  NONAME1     0.0646
     30 H7          5.2010    0.8896   -0.0078 H       1  NONAME1     0.0624
     31 H8          6.9867   -0.8338   -0.0025 H       1  NONAME1     0.0618
     32 H9          6.4075   -3.2352    0.0022 H       1  NONAME1     0.0618
     33 H10         4.0257   -3.9691    0.0038 H       1  NONAME1     0.0638
     34 H11         1.3947   -2.8843    0.0038 H       1  NONAME1     0.1660
     35 H12        -2.8320   -0.5263   -0.0047 H       1  NONAME1     0.0630
     36 H13        -7.3314    4.2833   -0.0077 H       1  NONAME1     0.1825
     37 H14        -9.4568    4.1909    0.0125 H       1  NONAME1     0.2414
@<TRIPOS>BOND
     1     1     2    2
     2     2     3    1
     3     3     4    2
     4     4     5    1
     5     5     6   ar
     6     6     7   ar
     7     7     8   ar
     8     8     9   ar
     9     9    10    1
    10    10    11    2
    11    10    12    1
    12    12    13   ar
    13    13    14   ar
    14    14    15   ar
    15    15    16   ar
    16    16    17   ar
    17    17    18   ar
    18    18    19   ar
    19    14    19   ar
    20    19    20   ar
    21    12    20   ar
    22     9    21   ar
    23     5    21   ar
    24     2    22   am
    25    22    23    1
    26     3    24    1
    27     4    25    1
    28     6    26    1
    29     7    27    1
    30     8    28    1
    31    13    29    1
    32    15    30    1
    33    16    31    1
    34    17    32    1
    35    18    33    1
    36    20    34    1
    37    21    35    1
    38    22    36    1
    39    23    37    1
