@<TRIPOS>MOLECULE
*****
 46 47 0 0 0
SMALL
USER_CHARGES

@<TRIPOS>ATOM
      1 C1         10.4171   -6.1540   -2.6805 C.3     1  NONAME1    -0.0540
      2 C2         10.0757   -5.2058   -1.5161 C.3     1  NONAME1     0.0347
      3 C3         10.6035   -3.7609   -1.0788 C.3     1  NONAME1    -0.0421
      4 C4         10.1726   -3.0249    0.2070 C.3     1  NONAME1    -0.0524
      5 C5          9.0630   -1.9810    0.0309 C.3     1  NONAME1    -0.0526
      6 C6          7.7057   -2.6246   -0.1795 C.3     1  NONAME1    -0.0460
      7 C7          6.5216   -1.6811   -0.3171 C.3     1  NONAME1     0.0105
      8 C8          6.0886   -1.0085    0.9678 C.2     1  NONAME1     0.1632
      9 O1          6.7829   -0.9819    1.9796 O.2     1  NONAME1    -0.2921
     10 C9          4.7637   -0.3139    0.9695 C.ar    1  NONAME1     0.0180
     11 C10         4.4423    0.5113    2.0490 C.ar    1  NONAME1    -0.0507
     12 C11         3.2155    1.1789    2.0813 C.ar    1  NONAME1    -0.0534
     13 C12         2.2864    1.0202    1.0394 C.ar    1  NONAME1    -0.0178
     14 C13         1.0448    1.6767    1.0547 C.ar    1  NONAME1    -0.0540
     15 C14         0.1304    1.4936    0.0164 C.ar    1  NONAME1    -0.0612
     16 C15         0.4423    0.6546   -1.0490 C.ar    1  NONAME1    -0.0612
     17 C16         1.6719    0.0012   -1.0837 C.ar    1  NONAME1    -0.0540
     18 C17         2.6019    0.1790   -0.0478 C.ar    1  NONAME1    -0.0172
     19 C18         3.8436   -0.4731   -0.0755 C.ar    1  NONAME1    -0.0435
     20 C19         8.8091   -5.4457   -0.6737 C.2     1  NONAME1     0.2383
     21 O2          8.8411   -5.7437    0.5196 O.2     1  NONAME1    -0.2734
     22 N1          7.6414   -5.5344   -1.3986 N.am    1  NONAME1    -0.1973
     23 O3          6.5287   -6.0535   -0.6954 O.3     1  NONAME1    -0.2952
     24 H1         10.8526   -6.9469   -2.0317 H       1  NONAME1     0.0237
     25 H2         10.7585   -7.1023   -3.8449 H       1  NONAME1     0.0237
     26 H3          9.3809   -6.4399   -2.9300 H       1  NONAME1     0.0237
     27 H4         11.3424   -4.9658   -2.3585 H       1  NONAME1     0.0392
     28 H5         11.6855   -3.8888   -0.9001 H       1  NONAME1     0.0272
     29 H6         10.4902   -3.0773   -1.9297 H       1  NONAME1     0.0272
     30 H7          9.9582   -3.7082    1.0328 H       1  NONAME1     0.0265
     31 H8         11.0516   -2.4555    0.5454 H       1  NONAME1     0.0265
     32 H9          9.3009   -1.3224   -0.8123 H       1  NONAME1     0.0265
     33 H10         9.0455   -1.3491    0.9249 H       1  NONAME1     0.0265
     34 H11         7.7523   -3.1558   -1.1307 H       1  NONAME1     0.0269
     35 H12         7.5037   -3.3418    0.6248 H       1  NONAME1     0.0269
     36 H13         6.7307   -0.9175   -1.0722 H       1  NONAME1     0.0345
     37 H14         5.7022   -2.3163   -0.6652 H       1  NONAME1     0.0345
     38 H15         5.1454    0.6425    2.8697 H       1  NONAME1     0.0625
     39 H16         2.9910    1.8197    2.9300 H       1  NONAME1     0.0624
     40 H17         0.7824    2.3334    1.8801 H       1  NONAME1     0.0624
     41 H18        -0.8280    2.0051    0.0430 H       1  NONAME1     0.0618
     42 H19        -0.2722    0.5045   -1.8548 H       1  NONAME1     0.0618
     43 H20         1.8968   -0.6520   -1.9235 H       1  NONAME1     0.0624
     44 H21         4.0616   -1.1108   -0.9256 H       1  NONAME1     0.0631
     45 H22         7.6024   -5.5973   -2.4089 H       1  NONAME1     0.1822
     46 H23         6.9219   -6.2845    0.1764 H       1  NONAME1     0.2414
@<TRIPOS>BOND
     1     1     2    1
     2     2     3    1
     3     3     4    1
     4     4     5    1
     5     5     6    1
     6     6     7    1
     7     7     8    1
     8     8     9    2
     9     8    10    1
    10    10    11   ar
    11    11    12   ar
    12    12    13   ar
    13    13    14   ar
    14    14    15   ar
    15    15    16   ar
    16    16    17   ar
    17    17    18   ar
    18    13    18   ar
    19    18    19   ar
    20    10    19   ar
    21     2    20    1
    22    20    21    2
    23    20    22   am
    24    22    23    1
    25     1    24    1
    26     1    25    1
    27     1    26    1
    28     2    27    1
    29     3    28    1
    30     3    29    1
    31     4    30    1
    32     4    31    1
    33     5    32    1
    34     5    33    1
    35     6    34    1
    36     6    35    1
    37     7    36    1
    38     7    37    1
    39    11    38    1
    40    12    39    1
    41    14    40    1
    42    15    41    1
    43    16    42    1
    44    17    43    1
    45    19    44    1
    46    22    45    1
    47    23    46    1
