REMARK  13 active torsions:
REMARK  status: ('A' for Active; 'I' for Inactive)
REMARK    1  A    between atoms: O1_2  and  C2_3 
REMARK    2  A    between atoms: C5_6  and  S1_7 
REMARK    3  A    between atoms: S1_7  and  N1_10 
REMARK    4  A    between atoms: N1_10  and  C6_11 
REMARK    5  A    between atoms: C9_14  and  O4_15 
REMARK    6  A    between atoms: O4_15  and  C10_16 
REMARK    7  A    between atoms: C10_16  and  C11_17 
REMARK    8  A    between atoms: C11_17  and  C12_18 
REMARK    9  A    between atoms: C12_18  and  C13_19 
REMARK   10  A    between atoms: C13_19  and  C14_20 
REMARK   11  A    between atoms: C14_20  and  C15_21 
REMARK   12  A    between atoms: C15_21  and  C16_22 
REMARK       I    between atoms: C16_22  and  N2_24 
REMARK   13  A    between atoms: N2_24  and  O6_25 
ROOT
ATOM      1  C6  NON d   1      -2.963   5.439   0.430  0.00  0.00     0.023 A 
ATOM      2  C7  NON d   1      -1.915   6.370   0.386  0.00  0.00     0.027 A 
ATOM      3  C8  NON d   1      -0.564   5.943   0.303  0.00  0.00     0.038 A 
ATOM      4  C9  NON d   1      -0.254   4.582   0.256  0.00  0.00     0.068 A 
ATOM      5  C17 NON d   1      -1.311   3.667   0.263  0.00  0.00     0.038 A 
ATOM      6  C18 NON d   1      -2.646   4.086   0.347  0.00  0.00     0.027 A 
ENDROOT
BRANCH   1   7
ATOM      7  N1  NON d   1      -4.346   5.848   0.606  0.00  0.00    -0.181 NA
ATOM      8  H6  NON d   1      -4.403   6.810   0.954  0.00  0.00     0.146 HD
BRANCH   7   9
ATOM      9  S1  NON d   1      -5.365   5.795  -0.770  0.00  0.00     0.245 S 
ATOM     10  O2  NON d   1      -4.779   4.957  -1.792  0.00  0.00    -0.206 OA
ATOM     11  O3  NON d   1      -5.699   7.181  -1.034  0.00  0.00    -0.206 OA
BRANCH   9  12
ATOM     12  C5  NON d   1      -6.888   4.977  -0.244  0.00  0.00     0.075 A 
ATOM     13  C4  NON d   1      -8.083   5.701  -0.134  0.00  0.00     0.027 A 
ATOM     14  C3  NON d   1      -9.319   5.024  -0.021  0.00  0.00     0.038 A 
ATOM     15  C2  NON d   1      -9.393   3.624  -0.029  0.00  0.00     0.068 A 
ATOM     16  C20 NON d   1      -8.191   2.911  -0.096  0.00  0.00     0.038 A 
ATOM     17  C19 NON d   1      -6.947   3.580  -0.211  0.00  0.00     0.027 A 
BRANCH  15  18
ATOM     18  O1  NON d   1     -10.669   3.080   0.000  0.00  0.00    -0.356 OA
ATOM     19  C1  NON d   1     -10.669   1.540   0.000  0.00  0.00     0.210 C 
ENDBRANCH  15  18
ENDBRANCH   9  12
ENDBRANCH   7   9
ENDBRANCH   1   7
BRANCH   4  20
ATOM     20  O4  NON d   1       0.993   4.011   0.212  0.00  0.00    -0.351 OA
BRANCH  20  21
ATOM     21  C10 NON d   1       2.141   4.859   0.106  0.00  0.00     0.175 C 
BRANCH  21  22
ATOM     22  C11 NON d   1       3.412   4.012  -0.141  0.00  0.00     0.027 C 
BRANCH  22  23
ATOM     23  C12 NON d   1       3.960   3.328   1.123  0.00  0.00     0.002 C 
BRANCH  23  24
ATOM     24  C13 NON d   1       5.242   2.498   0.900  0.00  0.00     0.001 C 
BRANCH  24  25
ATOM     25  C14 NON d   1       6.578   3.239   1.103  0.00  0.00     0.009 C 
BRANCH  25  26
ATOM     26  C15 NON d   1       6.962   4.154  -0.056  0.00  0.00     0.105 C 
BRANCH  26  27
ATOM     27  C16 NON d   1       8.359   4.747   0.058  0.00  0.00     0.240 C 
ATOM     28  O5  NON d   1       9.080   4.623   1.039  0.00  0.00    -0.271 OA
ATOM     29  N2  NON d   1       8.674   5.501  -1.066  0.00  0.00    -0.237 N 
ATOM     30  H21 NON d   1       8.239   5.265  -1.954  0.00  0.00     0.197 HD
BRANCH  29  31
ATOM     31  O6  NON d   1      10.020   5.916  -1.160  0.00  0.00    -0.287 OA
ATOM     32  H22 NON d   1       9.995   6.805  -0.759  0.00  0.00     0.244 HD
ENDBRANCH  29  31
ENDBRANCH  26  27
ENDBRANCH  25  26
ENDBRANCH  24  25
ENDBRANCH  23  24
ENDBRANCH  22  23
ENDBRANCH  21  22
ENDBRANCH  20  21
ENDBRANCH   4  20
TORSDOF 13
