REMARK  10 active torsions:
REMARK  status: ('A' for Active; 'I' for Inactive)
REMARK    1  A    between atoms: C2_2  and  C3_3 
REMARK    2  A    between atoms: C9_11  and  C10_12 
REMARK    3  A    between atoms: C10_12  and  C11_13 
REMARK    4  A    between atoms: C11_13  and  N3_14 
REMARK    5  A    between atoms: N3_14  and  C12_15 
REMARK    6  A    between atoms: N3_14  and  C22_28 
REMARK    7  A    between atoms: C12_15  and  C13_16 
REMARK    8  A    between atoms: C16_19  and  C17_20 
REMARK    9  A    between atoms: C18_21  and  C19_22 
REMARK       I    between atoms: C19_22  and  N4_24 
REMARK   10  A    between atoms: N4_24  and  O2_25 
ROOT
ATOM      1  N3  NON d   1       7.128   1.524   0.000  0.00  0.00    -0.063 N 
ATOM      2  H14 NON d   1       5.794   2.294   0.000  0.00  0.00     0.280 HD
ENDROOT
BRANCH   1   3
ATOM      3  C11 NON d   1       5.997   0.490   0.127  0.00  0.00     0.240 C 
BRANCH   3   4
ATOM      4  C10 NON d   1       5.135   0.480  -1.170  0.00  0.00     0.070 C 
BRANCH   4   5
ATOM      5  C9  NON d   1       3.746  -0.073  -1.048  0.00  0.00    -0.001 A 
ATOM      6  C8  NON d   1       3.200  -0.898  -0.072  0.00  0.00     0.066 A 
ATOM      7  C7  NON d   1       3.663  -1.530   1.124  0.00  0.00     0.032 A 
ATOM      8  N2  NON d   1       1.863  -1.144  -0.434  0.00  0.00    -0.244 N 
ATOM      9  C6  NON d   1       2.830  -2.298   1.854  0.00  0.00     0.004 A 
ATOM     10  C5  NON d   1       1.456  -2.527   1.449  0.00  0.00     0.019 A 
ATOM     11  C4  NON d   1       1.016  -1.957   0.322  0.00  0.00     0.119 A 
ATOM     12  N1  NON d   1       1.550  -0.502  -1.567  0.00  0.00    -0.172 NA
ATOM     13  C3  NON d   1       2.649   0.124  -1.976  0.00  0.00     0.063 A 
BRANCH  13  14
ATOM     14  C2  NON d   1       2.508   0.834  -3.293  0.00  0.00     0.057 C 
ATOM     15  C1  NON d   1       3.620   1.763  -3.736  0.00  0.00     0.011 C 
ENDBRANCH  13  14
ENDBRANCH   4   5
ENDBRANCH   3   4
ENDBRANCH   1   3
BRANCH   1  16
ATOM     16  C12 NON d   1       7.501   3.091   0.281  0.00  0.00     0.273 C 
BRANCH  16  17
ATOM     17  C13 NON d   1       8.868   3.838   0.153  0.00  0.00    -0.033 C 
ATOM     18  C14 NON d   1       8.836   5.218  -0.174  0.00  0.00     0.009 C 
ATOM     19  C15 NON d   1      10.008   6.025  -0.262  0.00  0.00     0.012 C 
ATOM     20  C16 NON d   1      11.277   5.475  -0.080  0.00  0.00    -0.036 C 
ATOM     21  C20 NON d   1      11.320   4.138   0.293  0.00  0.00     0.012 C 
ATOM     22  C21 NON d   1      10.155   3.373   0.474  0.00  0.00     0.009 C 
BRANCH  20  23
ATOM     23  C17 NON d   1      12.524   6.276  -0.133  0.00  0.00     0.017 C 
ATOM     24  C18 NON d   1      13.731   5.715  -0.341  0.00  0.00     0.077 C 
BRANCH  24  25
ATOM     25  C19 NON d   1      15.020   6.453  -0.243  0.00  0.00     0.264 C 
ATOM     26  O1  NON d   1      15.077   7.662  -0.063  0.00  0.00    -0.266 OA
ATOM     27  N4  NON d   1      16.098   5.596  -0.346  0.00  0.00    -0.234 N 
ATOM     28  H21 NON d   1      15.999   4.657  -0.716  0.00  0.00     0.197 HD
BRANCH  27  29
ATOM     29  O2  NON d   1      17.365   6.184  -0.544  0.00  0.00    -0.287 OA
ATOM     30  H22 NON d   1      17.662   6.345   0.372  0.00  0.00     0.244 HD
ENDBRANCH  27  29
ENDBRANCH  24  25
ENDBRANCH  20  23
ENDBRANCH  16  17
ENDBRANCH   1  16
BRANCH   1  31
ATOM     31  C22 NON d   1       8.461   0.754   0.000  0.00  0.00     0.180 C 
ATOM     32  C23 NON d   1       8.787  -0.222   1.146  0.00  0.00     0.039 C 
ATOM     33  C24 NON d   1       8.680   0.139  -1.394  0.00  0.00     0.039 C 
ENDBRANCH   1  31
TORSDOF 10
