@<TRIPOS>MOLECULE
*****
 62 63 0 0 0
SMALL
USER_CHARGES

@<TRIPOS>ATOM
      1 C1         -6.4688    2.1361    1.1537 C.3     1  NONAME1    -0.0253
      2 C2         -5.4955    2.3981   -0.0087 C.3     1  NONAME1     0.1068
      3 C3         -5.4724    1.1765   -0.9314 C.3     1  NONAME1    -0.0253
      4 C4         -6.0232    3.6449   -0.7486 C.3     1  NONAME1    -0.0253
      5 O1         -4.1621    2.5433    0.5802 O.3     1  NONAME1    -0.4444
      6 C5         -3.2007    3.2041   -0.1161 C.2     1  NONAME1     0.4050
      7 O2         -3.3561    3.6887   -1.2307 O.2     1  NONAME1    -0.2261
      8 N1         -2.0016    3.2823    0.5762 N.am    1  NONAME1    -0.2511
      9 C6         -1.0886    4.3432    0.3495 C.ar    1  NONAME1     0.0371
     10 C7         -1.6244    5.6091    0.0660 C.ar    1  NONAME1    -0.0403
     11 C8         -0.8038    6.7041   -0.1281 C.ar    1  NONAME1    -0.0593
     12 C9          0.5712    6.5366   -0.0630 C.ar    1  NONAME1    -0.0509
     13 C10         1.1647    5.2854    0.2181 C.ar    1  NONAME1     0.0217
     14 C11         2.6357    5.2502    0.2262 C.ar    1  NONAME1     0.1680
     15 C12         3.5664    6.2570    0.1334 C.ar    1  NONAME1     0.0176
     16 C13         4.8360    5.6359    0.1696 C.ar    1  NONAME1     0.1682
     17 C14         6.0930    6.3962    0.1139 C.2     1  NONAME1     0.2658
     18 O3          6.0667    7.6236    0.0242 O.2     1  NONAME1    -0.2684
     19 N2          7.2970    5.7130    0.1725 N.am    1  NONAME1    -0.3100
     20 C15         8.5297    6.4881    0.0855 C.3     1  NONAME1     0.0119
     21 C16         9.8141    5.6890    0.2761 C.3     1  NONAME1    -0.0374
     22 C17        11.0998    6.5243    0.0812 C.3     1  NONAME1    -0.0516
     23 C18        11.5986    7.3047    1.3135 C.3     1  NONAME1    -0.0526
     24 C19        11.0073    8.7123    1.4561 C.3     1  NONAME1    -0.0447
     25 C20        11.4239    9.4168    2.7523 C.3     1  NONAME1     0.0259
     26 C21        12.7753   10.1193    2.7141 C.2     1  NONAME1     0.2354
     27 O4         13.5507   10.0571    1.7672 O.2     1  NONAME1    -0.2737
     28 N3         12.9895   10.8655    3.8626 N.am    1  NONAME1    -0.1975
     29 O5         14.2901   11.3955    4.0241 O.3     1  NONAME1    -0.2952
     30 N4          4.7015    4.3016    0.2677 N.ar    1  NONAME1    -0.0730
     31 O6          3.3104    4.0634    0.3049 O.2     1  NONAME1    -0.3539
     32 C22         0.3101    4.1860    0.4596 C.ar    1  NONAME1    -0.0296
     33 H1         -6.4954    2.9918    1.8387 H       1  NONAME1     0.0268
     34 H2         -7.4891    1.9645    0.7885 H       1  NONAME1     0.0268
     35 H3         -6.1658    1.2664    1.7447 H       1  NONAME1     0.0268
     36 H4         -5.3321    0.2575   -0.3507 H       1  NONAME1     0.0268
     37 H5         -6.4020    1.0815   -1.5017 H       1  NONAME1     0.0268
     38 H6         -4.6353    1.2274   -1.6351 H       1  NONAME1     0.0268
     39 H7         -5.5762    3.7593   -1.7410 H       1  NONAME1     0.0268
     40 H8         -5.8178    4.5594   -0.1814 H       1  NONAME1     0.0268
     41 H9         -7.1042    3.5809   -0.9203 H       1  NONAME1     0.0268
     42 H10        -1.7484    2.5022    1.1633 H       1  NONAME1     0.1582
     43 H11        -2.7001    5.7667    0.0235 H       1  NONAME1     0.0636
     44 H12        -1.2333    7.6808   -0.3321 H       1  NONAME1     0.0618
     45 H13         1.1790    7.4198   -0.2461 H       1  NONAME1     0.0625
     46 H14         3.3848    7.3176    0.0519 H       1  NONAME1     0.0679
     47 H15         7.2846    4.7010    0.1312 H       1  NONAME1     0.1490
     48 H16         8.4602    7.2700    0.8456 H       1  NONAME1     0.0462
     49 H17         8.5359    6.9815   -0.8940 H       1  NONAME1     0.0462
     50 H18         9.8230    4.8817   -0.4679 H       1  NONAME1     0.0280
     51 H19         9.8214    5.2017    1.2575 H       1  NONAME1     0.0280
     52 H20        11.0008    7.1928   -0.7826 H       1  NONAME1     0.0266
     53 H21        11.8952    5.8123   -0.1777 H       1  NONAME1     0.0266
     54 H22        11.4176    6.7183    2.2212 H       1  NONAME1     0.0265
     55 H23        12.6881    7.4096    1.2249 H       1  NONAME1     0.0265
     56 H24        11.2787    9.3206    0.5852 H       1  NONAME1     0.0270
     57 H25         9.9174    8.6420    1.4662 H       1  NONAME1     0.0270
     58 H26        11.4252    8.7101    3.5903 H       1  NONAME1     0.0359
     59 H27        10.6761   10.1895    2.9723 H       1  NONAME1     0.0359
     60 H28        12.5207   10.6111    4.7264 H       1  NONAME1     0.1822
     61 H29        14.2293   12.2426    3.5427 H       1  NONAME1     0.2414
     62 H30         0.7333    3.2094    0.6802 H       1  NONAME1     0.0643
@<TRIPOS>BOND
     1     1     2    1
     2     2     3    1
     3     2     4    1
     4     2     5    1
     5     5     6    1
     6     6     7    2
     7     6     8   am
     8     8     9    1
     9     9    10   ar
    10    10    11   ar
    11    11    12   ar
    12    12    13   ar
    13    13    14    1
    14    14    15   ar
    15    15    16   ar
    16    16    17    1
    17    17    18    2
    18    17    19   am
    19    19    20    1
    20    20    21    1
    21    21    22    1
    22    22    23    1
    23    23    24    1
    24    24    25    1
    25    25    26    1
    26    26    27    2
    27    26    28   am
    28    28    29    1
    29    16    30   ar
    30    30    31   ar
    31    14    31   ar
    32    13    32   ar
    33     9    32   ar
    34     1    33    1
    35     1    34    1
    36     1    35    1
    37     3    36    1
    38     3    37    1
    39     3    38    1
    40     4    39    1
    41     4    40    1
    42     4    41    1
    43     8    42    1
    44    10    43    1
    45    11    44    1
    46    12    45    1
    47    15    46    1
    48    19    47    1
    49    20    48    1
    50    20    49    1
    51    21    50    1
    52    21    51    1
    53    22    52    1
    54    22    53    1
    55    23    54    1
    56    23    55    1
    57    24    56    1
    58    24    57    1
    59    25    58    1
    60    25    59    1
    61    28    60    1
    62    29    61    1
    63    32    62    1
