REMARK  13 active torsions:
REMARK  status: ('A' for Active; 'I' for Inactive)
REMARK    1  A    between atoms: C1_2  and  C2_3 
REMARK       I    between atoms: C1_2  and  N3_29 
REMARK    2  A    between atoms: C2_3  and  C3_4 
REMARK    3  A    between atoms: C3_4  and  C4_5 
REMARK    4  A    between atoms: C4_5  and  C5_6 
REMARK    5  A    between atoms: C5_6  and  C6_7 
REMARK    6  A    between atoms: C7_8  and  C6_7 
REMARK    7  A    between atoms: C7_8  and  N1_9 
REMARK    8  A    between atoms: C7_8  and  C16_20 
REMARK       I    between atoms: N1_9  and  C8_10 
REMARK    9  A    between atoms: C8_10  and  O3_12 
REMARK   10  A    between atoms: O3_12  and  C9_13 
REMARK   11  A    between atoms: C9_13  and  C10_14 
REMARK       I    between atoms: C16_20  and  N2_22 
REMARK   12  A    between atoms: N2_22  and  C17_23 
REMARK   13  A    between atoms: N3_29  and  O5_30 
ROOT
ATOM      1  C7  NON d   1       2.667  -4.620   0.000  0.00  0.00     0.179 C 
ENDROOT
BRANCH   1   2
ATOM      2  C6  NON d   1       4.175  -5.124   0.169  0.00  0.00     0.035 C 
BRANCH   2   3
ATOM      3  C5  NON d   1       4.655  -5.944  -1.122  0.00  0.00     0.002 C 
BRANCH   3   4
ATOM      4  C4  NON d   1       3.877  -7.253  -1.456  0.00  0.00     0.001 C 
BRANCH   4   5
ATOM      5  C3  NON d   1       4.292  -8.043  -2.706  0.00  0.00     0.009 C 
BRANCH   5   6
ATOM      6  C2  NON d   1       5.366  -9.102  -2.478  0.00  0.00     0.105 C 
BRANCH   6   7
ATOM      7  C1  NON d   1       6.787  -8.592  -2.585  0.00  0.00     0.240 C 
ATOM      8  O1  NON d   1       7.086  -7.475  -2.991  0.00  0.00    -0.271 OA
ATOM      9  N3  NON d   1       7.706  -9.569  -2.252  0.00  0.00    -0.237 N 
ATOM     10  H26 NON d   1       7.449 -10.353  -1.662  0.00  0.00     0.197 HD
BRANCH   9  11
ATOM     11  O5  NON d   1       9.044  -9.136  -2.140  0.00  0.00    -0.287 OA
ATOM     12  H27 NON d   1       9.292  -8.996  -3.074  0.00  0.00     0.244 HD
ENDBRANCH   9  11
ENDBRANCH   6   7
ENDBRANCH   5   6
ENDBRANCH   4   5
ENDBRANCH   3   4
ENDBRANCH   2   3
ENDBRANCH   1   2
BRANCH   1  13
ATOM     13  N1  NON d   1       1.408  -4.938   0.725  0.00  0.00    -0.324 N 
ATOM     14  C8  NON d   1       0.248  -4.983  -0.039  0.00  0.00     0.361 C 
ATOM     15  O2  NON d   1       0.242  -4.643  -1.214  0.00  0.00    -0.238 OA
ATOM     16  H12 NON d   1       1.393  -5.267   1.682  0.00  0.00     0.165 HD
BRANCH  14  17
ATOM     17  O3  NON d   1      -0.869  -5.261   0.694  0.00  0.00    -0.299 OA
BRANCH  17  18
ATOM     18  C9  NON d   1      -2.063  -4.663   0.139  0.00  0.00     0.219 C 
BRANCH  18  19
ATOM     19  C10 NON d   1      -3.356  -5.451   0.234  0.00  0.00    -0.034 A 
ATOM     20  C11 NON d   1      -3.408  -6.847   0.219  0.00  0.00     0.009 A 
ATOM     21  C12 NON d   1      -4.644  -7.510   0.172  0.00  0.00     0.001 A 
ATOM     22  C13 NON d   1      -5.837  -6.789   0.129  0.00  0.00     0.000 A 
ATOM     23  C14 NON d   1      -5.804  -5.399   0.138  0.00  0.00     0.001 A 
ATOM     24  C15 NON d   1      -4.573  -4.738   0.185  0.00  0.00     0.009 A 
ENDBRANCH  18  19
ENDBRANCH  17  18
ENDBRANCH  14  17
ENDBRANCH   1  13
BRANCH   1  25
ATOM     25  C16 NON d   1       2.667  -3.080   0.000  0.00  0.00     0.245 C 
ATOM     26  O4  NON d   1       3.737  -2.527  -0.300  0.00  0.00    -0.271 OA
ATOM     27  N2  NON d   1       1.535  -2.313   0.176  0.00  0.00    -0.325 N 
ATOM     28  H20 NON d   1       0.653  -2.793   0.118  0.00  0.00     0.169 HD
BRANCH  27  29
ATOM     29  C17 NON d   1       1.472  -0.896   0.184  0.00  0.00     0.034 A 
ATOM     30  C18 NON d   1       0.208  -0.301   0.113  0.00  0.00     0.029 A 
ATOM     31  C19 NON d   1       0.072   1.095   0.080  0.00  0.00     0.002 A 
ATOM     32  C20 NON d   1       1.198   1.912   0.133  0.00  0.00     0.000 A 
ATOM     33  C21 NON d   1       2.459   1.335   0.225  0.00  0.00     0.002 A 
ATOM     34  C22 NON d   1       2.592  -0.057   0.260  0.00  0.00     0.029 A 
ENDBRANCH  27  29
ENDBRANCH   1  25
TORSDOF 13
