@<TRIPOS>MOLECULE
*****
 74 75 0 0 0
SMALL
USER_CHARGES

@<TRIPOS>ATOM
      1 C1          3.4942    7.9484    0.4757 C.3     1  NONAME1    -0.0605
      2 C2          4.8383    8.4372   -0.0731 C.3     1  NONAME1    -0.0197
      3 C3          5.0656    9.8920    0.3674 C.3     1  NONAME1    -0.0605
      4 C4          5.9974    7.4392    0.3090 C.3     1  NONAME1     0.1017
      5 N1          7.2968    8.0933    0.0450 N.am    1  NONAME1    -0.3035
      6 C5          8.4340    7.5810    0.6128 C.2     1  NONAME1     0.2182
      7 O1          8.5518    7.6058    1.8370 O.2     1  NONAME1    -0.2754
      8 C6          9.5747    7.2915   -0.3576 C.3     1  NONAME1     0.0514
      9 C7          9.0676    6.9561   -1.7617 C.3     1  NONAME1    -0.0524
     10 C8         10.5888    6.2825    0.2768 C.3     1  NONAME1     0.0374
     11 C9         12.0586    6.5925   -0.1206 C.3     1  NONAME1    -0.0155
     12 C10        12.5770    7.7617    0.6937 C.2     1  NONAME1    -0.0862
     13 C11        13.7757    8.3624    0.6230 C.2     1  NONAME1    -0.0874
     14 C12        14.9014    8.0484   -0.3192 C.3     1  NONAME1    -0.0245
     15 C13        16.0245    9.0835   -0.2374 C.3     1  NONAME1     0.0526
     16 C14        17.0020    8.9807    0.9377 C.2     1  NONAME1     0.3563
     17 O2         17.7672    9.9820    1.0593 O.co2   1  NONAME1    -0.2464
     18 O3         16.9557    7.9308    1.6326 O.co2   1  NONAME1    -0.2464
     19 N2         10.2271    4.8574    0.2076 N.am    1  NONAME1    -0.3099
     20 C15        10.0539    4.0972   -0.9194 C.2     1  NONAME1     0.2339
     21 O4         10.3349    4.5023   -2.0474 O.2     1  NONAME1    -0.2738
     22 C16         9.5746    2.6409   -0.6694 C.3     1  NONAME1     0.1033
     23 C17        10.7841    1.7227   -0.3785 C.3     1  NONAME1    -0.0007
     24 C18        11.8768    1.6456   -1.4324 C.ar    1  NONAME1    -0.0451
     25 C19        13.1469    1.1754   -1.0637 C.ar    1  NONAME1    -0.0585
     26 C20        14.2105    1.1885   -1.9733 C.ar    1  NONAME1    -0.0615
     27 C21        14.0233    1.6761   -3.2640 C.ar    1  NONAME1    -0.0617
     28 C22        12.7596    2.0949   -3.6610 C.ar    1  NONAME1    -0.0615
     29 C23        11.6894    2.0397   -2.7651 C.ar    1  NONAME1    -0.0585
     30 N3          8.5728    2.6255    0.4504 N.am    1  NONAME1    -0.3022
     31 C24         7.2863    2.9783    0.0752 C.2     1  NONAME1     0.2337
     32 O5          6.7355    2.3921   -0.8632 O.2     1  NONAME1    -0.2738
     33 C25         6.5232    4.0783    0.8770 C.3     1  NONAME1     0.0966
     34 C26         7.3413    4.7756    1.9302 C.3     1  NONAME1    -0.0381
     35 N4          5.8770    4.8934   -0.1730 N.am    1  NONAME1    -0.3027
     36 C27         5.8224    6.1802   -0.5921 C.2     1  NONAME1     0.2342
     37 O6          5.5805    6.3127   -1.8006 O.2     1  NONAME1    -0.2738
     38 H1          2.7315    8.7330    0.4125 H       1  NONAME1     0.0233
     39 H2          3.1278    7.0938   -0.1015 H       1  NONAME1     0.0233
     40 H3          3.5774    7.6462    1.5244 H       1  NONAME1     0.0233
     41 H4          4.7450    8.4831   -1.1670 H       1  NONAME1     0.0318
     42 H5          5.8963   10.3483   -0.1837 H       1  NONAME1     0.0233
     43 H6          5.2714    9.9617    1.4389 H       1  NONAME1     0.0233
     44 H7          4.1888   10.5097    0.1426 H       1  NONAME1     0.0233
     45 H8          5.9350    7.1684    1.3656 H       1  NONAME1     0.0597
     46 H9          7.2471    9.0151    0.4536 H       1  NONAME1     0.1495
     47 H10        10.0834    8.2609   -0.4497 H       1  NONAME1     0.0410
     48 H11         8.4679    7.7748   -2.1739 H       1  NONAME1     0.0238
     49 H12         9.8921    6.8056   -2.4596 H       1  NONAME1     0.0238
     50 H13         8.4168    6.0724   -1.7593 H       1  NONAME1     0.0238
     51 H14        10.5534    6.4336    1.3644 H       1  NONAME1     0.0508
     52 H15        12.1284    6.8033   -1.1931 H       1  NONAME1     0.0325
     53 H16        12.6847    5.7174    0.0924 H       1  NONAME1     0.0325
     54 H17        11.9222    8.1353    1.4796 H       1  NONAME1     0.0570
     55 H18        13.9831    9.1469    1.3534 H       1  NONAME1     0.0569
     56 H19        14.5061    8.0586   -1.3429 H       1  NONAME1     0.0312
     57 H20        15.2863    7.0424   -0.1194 H       1  NONAME1     0.0312
     58 H21        15.6016   10.0975   -0.2415 H       1  NONAME1     0.0382
     59 H22        16.6375    8.9967   -1.1435 H       1  NONAME1     0.0382
     60 H23        10.1744    4.3642    1.0903 H       1  NONAME1     0.1491
     61 H24         9.0601    2.3017   -1.5763 H       1  NONAME1     0.0598
     62 H25        11.2437    2.0490    0.5648 H       1  NONAME1     0.0336
     63 H26        10.4193    0.7006   -0.2096 H       1  NONAME1     0.0336
     64 H27        13.3287    0.8158   -0.0533 H       1  NONAME1     0.0620
     65 H28        15.1948    0.8447   -1.6660 H       1  NONAME1     0.0618
     66 H29        14.8577    1.7334   -3.9577 H       1  NONAME1     0.0618
     67 H30        12.6000    2.4892   -4.6618 H       1  NONAME1     0.0618
     68 H31        10.7219    2.3730   -3.1328 H       1  NONAME1     0.0620
     69 H32         8.5100    1.6621    0.7609 H       1  NONAME1     0.1495
     70 H33         5.7046    3.5507    1.3820 H       1  NONAME1     0.0592
     71 H34         7.7729    4.0602    2.6384 H       1  NONAME1     0.0252
     72 H35         6.7489    5.4909    2.5038 H       1  NONAME1     0.0252
     73 H36         8.1724    5.2932    1.4756 H       1  NONAME1     0.0252
     74 H37         5.6433    4.3088   -0.9768 H       1  NONAME1     0.1495
@<TRIPOS>BOND
     1     1     2    1
     2     2     3    1
     3     4     2    1
     4     4     5    1
     5     5     6   am
     6     6     7    2
     7     8     6    1
     8     8     9    1
     9     8    10    1
    10    10    11    1
    11    11    12    1
    12    12    13    2
    13    13    14    1
    14    14    15    1
    15    15    16    1
    16    16    17   ar
    17    16    18   ar
    18    10    19    1
    19    19    20   am
    20    20    21    2
    21    22    20    1
    22    22    23    1
    23    23    24    1
    24    24    25   ar
    25    25    26   ar
    26    26    27   ar
    27    27    28   ar
    28    28    29   ar
    29    24    29   ar
    30    22    30    1
    31    30    31   am
    32    31    32    2
    33    33    31    1
    34    33    34    1
    35    33    35    1
    36    35    36   am
    37     4    36    1
    38    36    37    2
    39     1    38    1
    40     1    39    1
    41     1    40    1
    42     2    41    1
    43     3    42    1
    44     3    43    1
    45     3    44    1
    46     4    45    1
    47     5    46    1
    48     8    47    1
    49     9    48    1
    50     9    49    1
    51     9    50    1
    52    10    51    1
    53    11    52    1
    54    11    53    1
    55    12    54    1
    56    13    55    1
    57    14    56    1
    58    14    57    1
    59    15    58    1
    60    15    59    1
    61    19    60    1
    62    22    61    1
    63    23    62    1
    64    23    63    1
    65    25    64    1
    66    26    65    1
    67    27    66    1
    68    28    67    1
    69    29    68    1
    70    30    69    1
    71    33    70    1
    72    34    71    1
    73    34    72    1
    74    34    73    1
    75    35    74    1
