REMARK  8 active torsions:
REMARK  status: ('A' for Active; 'I' for Inactive)
REMARK    1  A    between atoms: C1_2  and  C2_3 
REMARK       I    between atoms: C1_2  and  N1_17 
REMARK    2  A    between atoms: N1_17  and  C16_18 
REMARK    3  A    between atoms: C16_18  and  C17_19 
REMARK    4  A    between atoms: C17_19  and  C18_20 
REMARK    5  A    between atoms: C18_20  and  C19_21 
REMARK    6  A    between atoms: C19_21  and  C20_22 
REMARK    7  A    between atoms: C20_22  and  C21_23 
REMARK       I    between atoms: C21_23  and  N2_25 
REMARK    8  A    between atoms: N2_25  and  O3_26 
ROOT
ATOM      1  O1  NON d   1       5.980   0.166  -1.326  0.00  0.00    -0.269 OA
ATOM      2  C1  NON d   1       6.135   1.088  -0.531  0.00  0.00     0.242 C 
ATOM      3  N1  NON d   1       7.274   1.282   0.197  0.00  0.00    -0.358 N 
ATOM      4  H10 NON d   1       7.229   1.901   0.997  0.00  0.00     0.162 HD
ENDROOT
BRANCH   2   5
ATOM      5  C2  NON d   1       4.985   1.981  -0.242  0.00  0.00     0.087 C 
ATOM      6  C3  NON d   1       4.894   3.316  -0.101  0.00  0.00    -0.009 A 
ATOM      7  C4  NON d   1       3.556   3.976   0.036  0.00  0.00    -0.014 A 
ATOM      8  C15 NON d   1       5.927   4.388  -0.114  0.00  0.00    -0.014 A 
ATOM      9  C5  NON d   1       2.257   3.486   0.040  0.00  0.00     0.013 A 
ATOM     10  C9  NON d   1       3.802   5.365   0.111  0.00  0.00    -0.014 A 
ATOM     11  C6  NON d   1       1.199   4.400   0.104  0.00  0.00     0.001 A 
ATOM     12  C7  NON d   1       1.444   5.780   0.168  0.00  0.00     0.001 A 
ATOM     13  C8  NON d   1       2.752   6.271   0.176  0.00  0.00     0.013 A 
ATOM     14  C10 NON d   1       5.234   5.612   0.049  0.00  0.00    -0.014 A 
ATOM     15  C11 NON d   1       5.916   6.823   0.107  0.00  0.00     0.013 A 
ATOM     16  C12 NON d   1       7.305   6.816  -0.008  0.00  0.00     0.001 A 
ATOM     17  C13 NON d   1       7.992   5.613  -0.197  0.00  0.00     0.001 A 
ATOM     18  C14 NON d   1       7.301   4.399  -0.261  0.00  0.00     0.013 A 
ENDBRANCH   2   5
BRANCH   3  19
ATOM     19  C16 NON d   1       8.422   0.398   0.067  0.00  0.00     0.123 C 
BRANCH  19  20
ATOM     20  C17 NON d   1       9.756   1.149   0.126  0.00  0.00     0.020 C 
BRANCH  20  21
ATOM     21  C18 NON d   1      10.112   1.845  -1.195  0.00  0.00     0.002 C 
BRANCH  21  22
ATOM     22  C19 NON d   1      11.256   2.862  -1.061  0.00  0.00     0.009 C 
BRANCH  22  23
ATOM     23  C20 NON d   1      12.651   2.272  -1.268  0.00  0.00     0.105 C 
BRANCH  23  24
ATOM     24  C21 NON d   1      13.218   1.497  -0.090  0.00  0.00     0.240 C 
ATOM     25  O2  NON d   1      12.797   1.603   1.054  0.00  0.00    -0.271 OA
ATOM     26  N2  NON d   1      14.322   0.751  -0.466  0.00  0.00    -0.237 N 
ATOM     27  H21 NON d   1      14.405   0.434  -1.426  0.00  0.00     0.197 HD
BRANCH  26  28
ATOM     28  O3  NON d   1      14.780  -0.174   0.500  0.00  0.00    -0.287 OA
ATOM     29  H22 NON d   1      15.485   0.327   0.951  0.00  0.00     0.244 HD
ENDBRANCH  26  28
ENDBRANCH  23  24
ENDBRANCH  22  23
ENDBRANCH  21  22
ENDBRANCH  20  21
ENDBRANCH  19  20
ENDBRANCH   3  19
TORSDOF 8
