@<TRIPOS>MOLECULE
*****
 53 57 0 0 0
SMALL
USER_CHARGES

@<TRIPOS>ATOM
      1 N1         10.6753  -12.6188   -0.0180 N.pl3   1  NONAME1    -0.3565
      2 C1         10.3642  -14.0017   -0.1433 C.ar    1  NONAME1     0.0461
      3 C2         11.3964  -14.9491   -0.1362 C.ar    1  NONAME1    -0.0392
      4 C3         11.0992  -16.3124   -0.0904 C.ar    1  NONAME1    -0.0599
      5 C4          9.7737  -16.7319   -0.0121 C.ar    1  NONAME1    -0.0599
      6 C5          8.7393  -15.7930    0.0221 C.ar    1  NONAME1    -0.0387
      7 C6          9.0221  -14.4264   -0.0341 C.ar    1  NONAME1     0.0545
      8 N2          8.0388  -13.4050   -0.0160 N.am    1  NONAME1    -0.2800
      9 C7          6.6745  -13.5614    0.1302 C.2     1  NONAME1     0.2483
     10 O1          6.1075  -14.6356    0.3163 O.2     1  NONAME1    -0.2699
     11 C8          5.8215  -12.3278    0.0511 C.ar    1  NONAME1     0.0370
     12 C9          4.4383  -12.5242   -0.0564 C.ar    1  NONAME1    -0.0493
     13 C10         3.5607  -11.4402   -0.1135 C.ar    1  NONAME1    -0.0564
     14 C11         4.0309  -10.1178   -0.0559 C.ar    1  NONAME1    -0.0303
     15 C12         2.9884   -9.0159   -0.1395 C.3     1  NONAME1     0.0370
     16 N3          3.4700   -7.6911    0.2120 N.pl3   1  NONAME1    -0.3093
     17 C13         2.4631   -6.7228    0.1861 C.ar    1  NONAME1     0.2160
     18 N4          1.1788   -7.0914    0.2848 N.ar    1  NONAME1    -0.2229
     19 C14         0.2521   -6.1242    0.2461 C.ar    1  NONAME1     0.0333
     20 C15         0.5621   -4.7965    0.1278 C.ar    1  NONAME1    -0.0159
     21 C16         1.9057   -4.4930    0.0415 C.ar    1  NONAME1     0.0942
     22 C17         2.3562   -3.0985   -0.0501 C.ar    1  NONAME1     0.0929
     23 C18         1.5899   -1.9441   -0.1381 C.ar    1  NONAME1     0.0574
     24 N5          2.3459   -0.8127   -0.1893 N.ar    1  NONAME1    -0.2181
     25 C19         3.5935   -1.2170   -0.1288 C.ar    1  NONAME1     0.2352
     26 N6          4.7194   -0.4438   -0.1397 N.ar    1  NONAME1    -0.2202
     27 C20         5.8480   -1.0743   -0.0628 C.ar    1  NONAME1     0.0328
     28 C21         6.0304   -2.5444    0.0329 C.ar    1  NONAME1    -0.0269
     29 C22         4.8977   -3.2592    0.0407 C.ar    1  NONAME1     0.0147
     30 N7          3.6623   -2.6156   -0.0412 N.ar    1  NONAME1    -0.2822
     31 N8          2.8584   -5.4484    0.0450 N.ar    1  NONAME1    -0.2130
     32 C23         5.4144   -9.9189    0.0451 C.ar    1  NONAME1    -0.0564
     33 C24         6.3031  -11.0123    0.1007 C.ar    1  NONAME1    -0.0493
     34 H1         11.6243  -12.4334   -0.3377 H       1  NONAME1     0.1424
     35 H2         10.6143  -12.3681    0.9696 H       1  NONAME1     0.1424
     36 H3         12.4353  -14.6397   -0.1665 H       1  NONAME1     0.0636
     37 H4         11.9001  -17.0468   -0.1041 H       1  NONAME1     0.0618
     38 H5          9.5377  -17.7917    0.0286 H       1  NONAME1     0.0618
     39 H6          7.7223  -16.1641    0.0883 H       1  NONAME1     0.0637
     40 H7          8.4359  -12.4874   -0.1756 H       1  NONAME1     0.1552
     41 H8          4.0283  -13.5325   -0.0921 H       1  NONAME1     0.0625
     42 H9          2.4932  -11.6414   -0.1931 H       1  NONAME1     0.0621
     43 H10         2.1842   -9.3071    0.5503 H       1  NONAME1     0.0512
     44 H11         2.5906   -9.0122   -1.1629 H       1  NONAME1     0.0512
     45 H12         4.2230   -7.3314   -0.3586 H       1  NONAME1     0.1492
     46 H13        -0.7777   -6.4602    0.3202 H       1  NONAME1     0.0831
     47 H14        -0.2213   -4.0527    0.1151 H       1  NONAME1     0.0655
     48 H15         0.5105   -1.8649   -0.1651 H       1  NONAME1     0.0852
     49 H16         6.7821   -0.4879   -0.0661 H       1  NONAME1     0.0831
     50 H17         7.0243   -2.9620    0.0931 H       1  NONAME1     0.0647
     51 H18         4.9100   -4.3362    0.1125 H       1  NONAME1     0.0814
     52 H19         5.8247   -8.9136    0.1010 H       1  NONAME1     0.0621
     53 H20         7.3617  -10.7982    0.2043 H       1  NONAME1     0.0625
@<TRIPOS>BOND
     1     1     2    1
     2     2     3   ar
     3     3     4   ar
     4     4     5   ar
     5     5     6   ar
     6     6     7   ar
     7     2     7   ar
     8     7     8    1
     9     8     9   am
    10     9    10    2
    11     9    11    1
    12    11    12   ar
    13    12    13   ar
    14    13    14   ar
    15    14    15    1
    16    16    15    1
    17    16    17    1
    18    17    18   ar
    19    18    19   ar
    20    19    20   ar
    21    20    21   ar
    22    21    22    1
    23    22    23   ar
    24    23    24   ar
    25    24    25   ar
    26    25    26   ar
    27    26    27   ar
    28    27    28   ar
    29    28    29   ar
    30    29    30   ar
    31    22    30   ar
    32    25    30   ar
    33    21    31   ar
    34    17    31   ar
    35    14    32   ar
    36    32    33   ar
    37    11    33   ar
    38     1    34    1
    39     1    35    1
    40     3    36    1
    41     4    37    1
    42     5    38    1
    43     6    39    1
    44     8    40    1
    45    12    41    1
    46    13    42    1
    47    15    43    1
    48    15    44    1
    49    16    45    1
    50    19    46    1
    51    20    47    1
    52    23    48    1
    53    27    49    1
    54    28    50    1
    55    29    51    1
    56    32    52    1
    57    33    53    1
