REMARK  6 active torsions:
REMARK  status: ('A' for Active; 'I' for Inactive)
REMARK    1  A    between atoms: C1_2  and  C2_3 
REMARK       I    between atoms: C1_2  and  N3_22 
REMARK    2  A    between atoms: C3_4  and  C4_5 
REMARK    3  A    between atoms: C8_10  and  C9_11 
REMARK    4  A    between atoms: C9_11  and  C10_12 
REMARK    5  A    between atoms: C10_12  and  C11_13 
REMARK    6  A    between atoms: N3_22  and  O2_23 
ROOT
ATOM      1  C4  NON d   1       6.082   3.293   0.018  0.00  0.00    -0.034 A 
ATOM      2  C5  NON d   1       6.003   1.888   0.048  0.00  0.00     0.014 A 
ATOM      3  C6  NON d   1       4.777   1.204   0.062  0.00  0.00     0.033 A 
ATOM      4  C7  NON d   1       3.625   1.986   0.045  0.00  0.00     0.062 A 
ATOM      5  N1  NON d   1       2.292   1.667   0.042  0.00  0.00    -0.343 N 
ATOM      6  C8  NON d   1       1.564   2.833  -0.014  0.00  0.00     0.105 A 
ATOM      7  N2  NON d   1       2.370   3.877  -0.014  0.00  0.00    -0.233 NA
ATOM      8  C17 NON d   1       3.649   3.372   0.015  0.00  0.00     0.086 A 
ATOM      9  C18 NON d   1       4.887   4.037   0.005  0.00  0.00     0.045 A 
ATOM     10  H5  NON d   1       1.914   0.730   0.032  0.00  0.00     0.167 HD
ENDROOT
BRANCH   1  11
ATOM     11  C3  NON d   1       7.364   4.032   0.004  0.00  0.00     0.017 C 
ATOM     12  C2  NON d   1       8.593   3.490   0.008  0.00  0.00     0.077 C 
BRANCH  12  13
ATOM     13  C1  NON d   1       9.811   4.354   0.016  0.00  0.00     0.264 C 
ATOM     14  O1  NON d   1       9.749   5.574  -0.054  0.00  0.00    -0.266 OA
ATOM     15  N3  NON d   1      10.961   3.607   0.115  0.00  0.00    -0.234 N 
ATOM     16  H16 NON d   1      10.985   2.595   0.130  0.00  0.00     0.197 HD
BRANCH  15  17
ATOM     17  O2  NON d   1      12.183   4.303   0.178  0.00  0.00    -0.287 OA
ATOM     18  H17 NON d   1      12.803   3.729  -0.305  0.00  0.00     0.244 HD
ENDBRANCH  15  17
ENDBRANCH  12  13
ENDBRANCH   1  11
BRANCH   6  19
ATOM     19  C9  NON d   1       0.069   2.904  -0.098  0.00  0.00     0.083 C 
BRANCH  19  20
ATOM     20  C10 NON d   1      -0.684   1.573   0.009  0.00  0.00     0.046 C 
BRANCH  20  21
ATOM     21  C11 NON d   1      -0.600   0.592  -1.144  0.00  0.00    -0.058 A 
ATOM     22  C12 NON d   1      -1.279  -0.632  -1.016  0.00  0.00     0.007 A 
ATOM     23  C13 NON d   1      -1.241  -1.587  -2.034  0.00  0.00     0.001 A 
ATOM     24  C14 NON d   1      -0.517  -1.336  -3.196  0.00  0.00     0.000 A 
ATOM     25  C15 NON d   1       0.154  -0.126  -3.344  0.00  0.00     0.001 A 
ATOM     26  C16 NON d   1       0.104   0.836  -2.331  0.00  0.00     0.007 A 
ENDBRANCH  20  21
ENDBRANCH  19  20
ENDBRANCH   6  19
TORSDOF 6
