@<TRIPOS>MOLECULE
*****
 66 68 0 0 0
SMALL
USER_CHARGES

@<TRIPOS>ATOM
      1 C1          6.4768   -2.3257   -1.1641 C.3     1  NONAME1    -0.0218
      2 C2          7.1277   -1.5557    0.0000 C.3     1  NONAME1    -0.0263
      3 C3          7.2153   -1.8459    1.5303 C.3     1  NONAME1    -0.0218
      4 N1          7.1277   -0.0157    0.0000 N.4     1  NONAME1     0.2405
      5 C4          5.8914    0.9748    0.2988 C.3     1  NONAME1    -0.0272
      6 C5          4.9693    0.9992   -0.9543 C.3     1  NONAME1     0.0151
      7 C6          3.6204    1.6483   -0.9114 C.ar    1  NONAME1    -0.0113
      8 C7          2.6639    1.4916   -1.9286 C.ar    1  NONAME1     0.0518
      9 C8          2.6867    0.7938   -3.2827 C.3     1  NONAME1     0.1003
     10 C9          2.0713   -0.6041   -3.2159 C.3     1  NONAME1    -0.0308
     11 C10         1.9942    1.6336   -4.3656 C.3     1  NONAME1    -0.0308
     12 O1          4.0623    0.6491   -3.6470 O.3     1  NONAME1    -0.3831
     13 N2          1.5258    2.1380   -1.5083 N.ar    1  NONAME1    -0.3554
     14 C11         1.7439    2.7915   -0.3242 C.ar    1  NONAME1     0.0470
     15 C12         0.8747    3.6083    0.4006 C.ar    1  NONAME1    -0.0378
     16 C13         1.3461    4.1873    1.5700 C.ar    1  NONAME1    -0.0598
     17 C14         2.6441    3.9475    2.0036 C.ar    1  NONAME1    -0.0611
     18 C15         3.5014    3.1142    1.2725 C.ar    1  NONAME1    -0.0523
     19 C16         3.0510    2.5196    0.0757 C.ar    1  NONAME1     0.0034
     20 C17         8.4614    0.7543    0.0000 C.3     1  NONAME1    -0.0057
     21 C18         8.5372    2.2702   -0.1556 C.ar    1  NONAME1    -0.0029
     22 C19         9.5103    2.9937    0.5553 C.ar    1  NONAME1    -0.0530
     23 C20         9.5317    4.4026    0.5487 C.ar    1  NONAME1    -0.0542
     24 C21         8.5560    5.1312   -0.1363 C.ar    1  NONAME1    -0.0249
     25 C22         8.5152    6.6017   -0.0542 C.2     1  NONAME1    -0.0496
     26 C23         7.3658    7.2952    0.0462 C.2     1  NONAME1     0.0027
     27 C24         7.3619    8.7851    0.0997 C.2     1  NONAME1     0.2593
     28 O2          8.3753    9.4594   -0.0274 O.2     1  NONAME1    -0.2687
     29 N3          6.0979    9.2943    0.2893 N.am    1  NONAME1    -0.1940
     30 O3          5.9920   10.6741    0.5543 O.3     1  NONAME1    -0.2949
     31 C25         7.6742    4.4208   -0.9502 C.ar    1  NONAME1    -0.0542
     32 C26         7.7186    3.0195   -1.0099 C.ar    1  NONAME1    -0.0530
     33 H1          7.4345   -2.4988   -1.7208 H       1  NONAME1     0.0284
     34 H2          5.8259   -3.0957   -2.3281 H       1  NONAME1     0.0284
     35 H3          6.0509   -1.4557   -1.6963 H       1  NONAME1     0.0284
     36 H4          7.1277   -3.0957    0.0000 H       1  NONAME1     0.0846
     37 H5          7.2125   -0.9440    2.1528 H       1  NONAME1     0.0284
     38 H6          8.1673   -2.3517    1.7411 H       1  NONAME1     0.0284
     39 H7          6.3840   -2.4682    1.8740 H       1  NONAME1     0.0284
     40 H8          5.7940   -0.7857    0.0000 H       1  NONAME1     0.2039
     41 H9          6.2524    1.9480    0.6163 H       1  NONAME1     0.0818
     42 H10         5.3763    0.5520    1.1734 H       1  NONAME1     0.0818
     43 H11         5.5170    1.3842   -1.8136 H       1  NONAME1     0.0366
     44 H12         4.7191   -0.0323   -1.2237 H       1  NONAME1     0.0366
     45 H13         1.0291   -0.5802   -2.8794 H       1  NONAME1     0.0261
     46 H14         2.0993   -1.0839   -4.2012 H       1  NONAME1     0.0261
     47 H15         2.6372   -1.2564   -2.5405 H       1  NONAME1     0.0261
     48 H16         2.3618    2.6645   -4.3598 H       1  NONAME1     0.0261
     49 H17         0.9065    1.6592   -4.2320 H       1  NONAME1     0.0261
     50 H18         2.1991    1.2349   -5.3671 H       1  NONAME1     0.0261
     51 H19         4.0784    0.3567   -4.5756 H       1  NONAME1     0.2107
     52 H20         0.6518    2.1709   -2.0142 H       1  NONAME1     0.1657
     53 H21        -0.1450    3.7983    0.0551 H       1  NONAME1     0.0638
     54 H22         0.6947    4.8383    2.1478 H       1  NONAME1     0.0618
     55 H23         2.9956    4.4149    2.9202 H       1  NONAME1     0.0618
     56 H24         4.5082    2.9677    1.6441 H       1  NONAME1     0.0624
     57 H25         9.0476    0.2999   -0.8066 H       1  NONAME1     0.0867
     58 H26         8.9267    0.4734    0.9514 H       1  NONAME1     0.0867
     59 H27        10.2748    2.4762    1.1336 H       1  NONAME1     0.0622
     60 H28        10.3065    4.9231    1.1099 H       1  NONAME1     0.0624
     61 H29         9.4710    7.1182   -0.0550 H       1  NONAME1     0.0625
     62 H30         6.4037    6.7987    0.0838 H       1  NONAME1     0.0670
     63 H31         5.3079    8.7295    0.5762 H       1  NONAME1     0.1825
     64 H32         6.2685   11.0681   -0.2955 H       1  NONAME1     0.2414
     65 H33         6.9407    4.9476   -1.5596 H       1  NONAME1     0.0624
     66 H34         7.0597    2.5438   -1.7217 H       1  NONAME1     0.0622
@<TRIPOS>BOND
     1     1     2    1
     2     2     3    1
     3     2     4    1
     4     4     5    1
     5     5     6    1
     6     6     7    1
     7     7     8   ar
     8     8     9    1
     9     9    10    1
    10     9    11    1
    11     9    12    1
    12     8    13   ar
    13    13    14   ar
    14    14    15   ar
    15    15    16   ar
    16    16    17   ar
    17    17    18   ar
    18    18    19   ar
    19     7    19   ar
    20    14    19   ar
    21     4    20    1
    22    20    21    1
    23    21    22   ar
    24    22    23   ar
    25    23    24   ar
    26    24    25    1
    27    25    26    2
    28    26    27    1
    29    27    28    2
    30    27    29   am
    31    29    30    1
    32    24    31   ar
    33    31    32   ar
    34    21    32   ar
    35     1    33    1
    36     1    34    1
    37     1    35    1
    38     2    36    1
    39     3    37    1
    40     3    38    1
    41     3    39    1
    42     4    40    1
    43     5    41    1
    44     5    42    1
    45     6    43    1
    46     6    44    1
    47    10    45    1
    48    10    46    1
    49    10    47    1
    50    11    48    1
    51    11    49    1
    52    11    50    1
    53    12    51    1
    54    13    52    1
    55    15    53    1
    56    16    54    1
    57    17    55    1
    58    18    56    1
    59    20    57    1
    60    20    58    1
    61    22    59    1
    62    23    60    1
    63    25    61    1
    64    26    62    1
    65    29    63    1
    66    30    64    1
    67    31    65    1
    68    32    66    1
