@<TRIPOS>MOLECULE
*****
 64 68 0 0 0
SMALL
USER_CHARGES

@<TRIPOS>ATOM
      1 C1          4.0010   -5.3900    0.0000 C.3     1  NONAME1    -0.0380
      2 C2          4.0010   -6.9300    0.0000 C.ar    1  NONAME1    -0.0291
      3 C3          5.1933   -7.6416   -0.1520 C.ar    1  NONAME1    -0.0553
      4 C4          5.1904   -9.0374   -0.1499 C.ar    1  NONAME1    -0.0401
      5 C5          4.0074   -9.7679   -0.0050 C.ar    1  NONAME1     0.0354
      6 N1          3.9623  -11.1985    0.0081 N.am    1  NONAME1    -0.2814
      7 C6          5.0514  -12.0336   -0.2188 C.2     1  NONAME1     0.2483
      8 O1          6.1743  -11.6398   -0.5311 O.2     1  NONAME1    -0.2699
      9 C7          4.8984  -13.5241   -0.0854 C.ar    1  NONAME1     0.0371
     10 C8          6.1004  -14.2479   -0.0451 C.ar    1  NONAME1    -0.0489
     11 C9          6.1163  -15.6395    0.0477 C.ar    1  NONAME1    -0.0489
     12 C10         4.9278  -16.3768    0.1086 C.ar    1  NONAME1     0.0371
     13 C11         5.0958  -17.8646    0.2527 C.2     1  NONAME1     0.2483
     14 O2          6.2140  -18.2619    0.5749 O.2     1  NONAME1    -0.2699
     15 N2          4.0056  -18.6880    0.0323 N.am    1  NONAME1    -0.2800
     16 C12         4.0250  -20.1156    0.0300 C.ar    1  NONAME1     0.0545
     17 C13         5.1982  -20.8772    0.0735 C.ar    1  NONAME1    -0.0387
     18 C14         5.1568  -22.2737   -0.0071 C.ar    1  NONAME1    -0.0599
     19 C15         3.9396  -22.9274   -0.1484 C.ar    1  NONAME1    -0.0599
     20 C16         2.7590  -22.1883   -0.1892 C.ar    1  NONAME1    -0.0392
     21 C17         2.7883  -20.7898   -0.0611 C.ar    1  NONAME1     0.0461
     22 N3          1.5661  -20.0688   -0.0809 N.pl3   1  NONAME1    -0.3565
     23 C18         3.7146  -15.6711    0.0676 C.ar    1  NONAME1    -0.0489
     24 C19         3.6976  -14.2506   -0.0270 C.ar    1  NONAME1    -0.0489
     25 C20         2.8095   -9.0457    0.1472 C.ar    1  NONAME1    -0.0190
     26 C21         2.7765   -7.6247    0.1483 C.ar    1  NONAME1     0.0383
     27 N4          1.4939   -7.0085    0.2725 N.pl3   1  NONAME1    -0.2833
     28 C22         1.1482   -5.6541    0.4198 C.ar    1  NONAME1     0.2195
     29 N5          0.2323   -5.1794   -0.4417 N.ar    1  NONAME1    -0.2221
     30 C23         0.0189   -3.8384   -0.4473 C.ar    1  NONAME1     0.0404
     31 C24         0.6653   -2.9338    0.3729 C.ar    1  NONAME1     0.0199
     32 C25         0.5574   -1.4774    0.2318 C.ar    1  NONAME1     0.0031
     33 C26        -0.6682   -0.8023    0.2136 C.ar    1  NONAME1    -0.0511
     34 C27        -0.7081    0.5855    0.0524 C.ar    1  NONAME1    -0.0430
     35 C28         0.4854    1.2705   -0.0925 C.ar    1  NONAME1     0.0276
     36 N6          1.6909    0.6664   -0.0852 N.ar    1  NONAME1    -0.2627
     37 C29         1.6964   -0.6796    0.0725 C.ar    1  NONAME1     0.0353
     38 C30         1.4894   -3.5479    1.2949 C.ar    1  NONAME1     0.0404
     39 N7          1.7312   -4.8798    1.3475 N.ar    1  NONAME1    -0.2221
     40 H1          4.8629   -5.2932    0.6908 H       1  NONAME1     0.0278
     41 H2          4.0010   -3.8500    0.0000 H       1  NONAME1     0.0278
     42 H3          4.3348   -5.3055   -1.0543 H       1  NONAME1     0.0278
     43 H4          6.1389   -7.1145   -0.2655 H       1  NONAME1     0.0621
     44 H5          6.1577   -9.5168   -0.2514 H       1  NONAME1     0.0636
     45 H6          3.0639  -11.6126    0.2080 H       1  NONAME1     0.1551
     46 H7          7.0591  -13.7313   -0.0875 H       1  NONAME1     0.0625
     47 H8          7.0831  -16.1419    0.0739 H       1  NONAME1     0.0625
     48 H9          3.1093  -18.2954   -0.2164 H       1  NONAME1     0.1552
     49 H10         6.1794  -20.4186    0.1393 H       1  NONAME1     0.0637
     50 H11         6.0830  -22.8422    0.0233 H       1  NONAME1     0.0618
     51 H12         3.9093  -24.0116   -0.2281 H       1  NONAME1     0.0618
     52 H13         1.8159  -22.7153   -0.2987 H       1  NONAME1     0.0636
     53 H14         1.5351  -19.4243    0.7060 H       1  NONAME1     0.1424
     54 H15         0.7624  -20.6945   -0.0462 H       1  NONAME1     0.1424
     55 H16         2.7641  -16.1933    0.1219 H       1  NONAME1     0.0625
     56 H17         2.7375  -13.7472   -0.0668 H       1  NONAME1     0.0625
     57 H18         1.8714   -9.5819    0.2692 H       1  NONAME1     0.0655
     58 H19         0.8730   -7.3538   -0.4530 H       1  NONAME1     0.1550
     59 H20        -0.6884   -3.5043   -1.2031 H       1  NONAME1     0.0837
     60 H21        -1.6043   -1.3435    0.3349 H       1  NONAME1     0.0625
     61 H22        -1.6510    1.1219    0.0414 H       1  NONAME1     0.0633
     62 H23         0.5060    2.3487   -0.2219 H       1  NONAME1     0.0829
     63 H24         2.6923   -1.1166    0.0478 H       1  NONAME1     0.0836
     64 H25         2.0447   -2.9683    2.0296 H       1  NONAME1     0.0837
@<TRIPOS>BOND
     1     1     2    1
     2     2     3   ar
     3     3     4   ar
     4     4     5   ar
     5     5     6    1
     6     6     7   am
     7     7     8    2
     8     7     9    1
     9     9    10   ar
    10    10    11   ar
    11    11    12   ar
    12    12    13    1
    13    13    14    2
    14    13    15   am
    15    15    16    1
    16    16    17   ar
    17    17    18   ar
    18    18    19   ar
    19    19    20   ar
    20    20    21   ar
    21    16    21   ar
    22    21    22    1
    23    12    23   ar
    24    23    24   ar
    25     9    24   ar
    26     5    25   ar
    27    25    26   ar
    28     2    26   ar
    29    26    27    1
    30    27    28    1
    31    28    29   ar
    32    29    30   ar
    33    30    31   ar
    34    31    32    1
    35    32    33   ar
    36    33    34   ar
    37    34    35   ar
    38    35    36   ar
    39    36    37   ar
    40    32    37   ar
    41    31    38   ar
    42    38    39   ar
    43    28    39   ar
    44     1    40    1
    45     1    41    1
    46     1    42    1
    47     3    43    1
    48     4    44    1
    49     6    45    1
    50    10    46    1
    51    11    47    1
    52    15    48    1
    53    17    49    1
    54    18    50    1
    55    19    51    1
    56    20    52    1
    57    22    53    1
    58    22    54    1
    59    23    55    1
    60    24    56    1
    61    25    57    1
    62    27    58    1
    63    30    59    1
    64    33    60    1
    65    34    61    1
    66    35    62    1
    67    37    63    1
    68    38    64    1
