@<TRIPOS>MOLECULE
*****
 63 66 0 0 0
SMALL
USER_CHARGES

@<TRIPOS>ATOM
      1 C1          0.0019   15.1857   -0.2349 C.3     1  NONAME1     0.0043
      2 N1          1.3337   15.7100    0.0000 N.am    1  NONAME1    -0.2916
      3 C2          1.3337   17.2500    0.0000 C.3     1  NONAME1     0.0043
      4 C3          2.4201   15.0273    0.5587 C.2     1  NONAME1     0.3049
      5 O1          3.1843   15.6327    1.3147 O.2     1  NONAME1    -0.2524
      6 N2          2.7264   13.7393    0.1100 N.am    1  NONAME1    -0.2769
      7 C4          4.0914   13.2347    0.2503 C.3     1  NONAME1     0.0415
      8 C5          5.3803   14.0250    0.1016 C.ar    1  NONAME1    -0.0300
      9 C6          5.5066   15.2866   -0.4731 C.ar    1  NONAME1    -0.0564
     10 C7          6.7729   15.8830   -0.6120 C.ar    1  NONAME1    -0.0493
     11 C8          7.9543   15.2219   -0.2253 C.ar    1  NONAME1     0.0370
     12 C9          9.2606   15.9479   -0.4054 C.2     1  NONAME1     0.2483
     13 O2          9.2119   17.1094   -0.8096 O.2     1  NONAME1    -0.2699
     14 N3         10.4327   15.2558   -0.1363 N.am    1  NONAME1    -0.2800
     15 C10        11.7508   15.7856   -0.1138 C.ar    1  NONAME1     0.0545
     16 C11        12.0229   17.1583   -0.1522 C.ar    1  NONAME1    -0.0387
     17 C12        13.3315   17.6327   -0.0245 C.ar    1  NONAME1    -0.0599
     18 C13        14.3823   16.7421    0.1654 C.ar    1  NONAME1    -0.0599
     19 C14        14.1297   15.3716    0.2017 C.ar    1  NONAME1    -0.0392
     20 C15        12.8306   14.8795    0.0093 C.ar    1  NONAME1     0.0461
     21 N4         12.6120   13.4798    0.0620 N.pl3   1  NONAME1    -0.3565
     22 C16         7.8394   13.9405    0.3130 C.ar    1  NONAME1    -0.0493
     23 C17         6.5716   13.3576    0.4700 C.ar    1  NONAME1    -0.0564
     24 C18         1.7089   12.7659   -0.3288 C.3     1  NONAME1     0.0415
     25 C19         1.7467   11.2457   -0.1102 C.ar    1  NONAME1    -0.0300
     26 C20         2.8568   10.4011   -0.0444 C.ar    1  NONAME1    -0.0565
     27 C21         2.7238    8.9996    0.0309 C.ar    1  NONAME1    -0.0532
     28 C22         1.4765    8.3641    0.0274 C.ar    1  NONAME1    -0.0113
     29 C23         1.3870    6.8817    0.0577 C.ar    1  NONAME1     0.0193
     30 C24         2.4115    5.9429    0.0751 C.ar    1  NONAME1    -0.0469
     31 C25         1.9509    4.5930    0.0831 C.ar    1  NONAME1    -0.0541
     32 C26         0.5796    4.5233    0.0735 C.ar    1  NONAME1    -0.0237
     33 S1         -0.1364    6.0705    0.0601 S.2     1  NONAME1    -0.0967
     34 C27         0.3578    9.2008   -0.0316 C.ar    1  NONAME1    -0.0532
     35 C28         0.4914   10.5989   -0.1032 C.ar    1  NONAME1    -0.0565
     36 H1         -0.6954   16.0073   -0.4316 H       1  NONAME1     0.0429
     37 H2         -0.0029   14.5431   -1.1164 H       1  NONAME1     0.0429
     38 H3         -0.3480   14.6590    0.6571 H       1  NONAME1     0.0429
     39 H4          2.4025   17.3460   -0.2690 H       1  NONAME1     0.0429
     40 H5          1.3337   18.7900    0.0000 H       1  NONAME1     0.0429
     41 H6          1.2234   17.3310    1.0990 H       1  NONAME1     0.0429
     42 H7          4.1213   12.6877    1.1997 H       1  NONAME1     0.0514
     43 H8          4.2004   12.5565   -0.6002 H       1  NONAME1     0.0514
     44 H9          4.6329   15.8412   -0.8033 H       1  NONAME1     0.0621
     45 H10         6.8262   16.8890   -1.0271 H       1  NONAME1     0.0625
     46 H11        10.3947   14.2781    0.1083 H       1  NONAME1     0.1552
     47 H12        11.2303   17.8938   -0.2451 H       1  NONAME1     0.0637
     48 H13        13.5192   18.7033   -0.0492 H       1  NONAME1     0.0618
     49 H14        15.3957   17.1149    0.2884 H       1  NONAME1     0.0618
     50 H15        14.9616   14.6905    0.3580 H       1  NONAME1     0.0636
     51 H16        11.9713   13.1951   -0.6747 H       1  NONAME1     0.1424
     52 H17        13.4828   12.9579   -0.0138 H       1  NONAME1     0.1424
     53 H18         8.6988   13.3641    0.6341 H       1  NONAME1     0.0625
     54 H19         6.5168   12.3510    0.8849 H       1  NONAME1     0.0621
     55 H20         1.5566   12.9386   -1.4000 H       1  NONAME1     0.0514
     56 H21         0.8101   13.0436    0.2166 H       1  NONAME1     0.0514
     57 H22         3.8779   10.7520   -0.0639 H       1  NONAME1     0.0621
     58 H23         3.6402    8.4161    0.0740 H       1  NONAME1     0.0624
     59 H24         3.4631    6.1990    0.0760 H       1  NONAME1     0.0629
     60 H25         2.5938    3.7208    0.0926 H       1  NONAME1     0.0623
     61 H26        -0.0380    3.6355    0.0741 H       1  NONAME1     0.0693
     62 H27        -0.6503    8.7940   -0.0422 H       1  NONAME1     0.0624
     63 H28        -0.4250   11.1852   -0.1751 H       1  NONAME1     0.0621
@<TRIPOS>BOND
     1     1     2    1
     2     2     3    1
     3     2     4   am
     4     4     5    2
     5     4     6   am
     6     6     7    1
     7     7     8    1
     8     8     9   ar
     9     9    10   ar
    10    10    11   ar
    11    11    12    1
    12    12    13    2
    13    12    14   am
    14    14    15    1
    15    15    16   ar
    16    16    17   ar
    17    17    18   ar
    18    18    19   ar
    19    19    20   ar
    20    15    20   ar
    21    20    21    1
    22    11    22   ar
    23    22    23   ar
    24     8    23   ar
    25     6    24    1
    26    24    25    1
    27    25    26   ar
    28    26    27   ar
    29    27    28   ar
    30    28    29    1
    31    29    30   ar
    32    30    31   ar
    33    31    32   ar
    34    32    33   ar
    35    29    33   ar
    36    28    34   ar
    37    34    35   ar
    38    25    35   ar
    39     1    36    1
    40     1    37    1
    41     1    38    1
    42     3    39    1
    43     3    40    1
    44     3    41    1
    45     7    42    1
    46     7    43    1
    47     9    44    1
    48    10    45    1
    49    14    46    1
    50    16    47    1
    51    17    48    1
    52    18    49    1
    53    19    50    1
    54    21    51    1
    55    21    52    1
    56    22    53    1
    57    23    54    1
    58    24    55    1
    59    24    56    1
    60    26    57    1
    61    27    58    1
    62    30    59    1
    63    31    60    1
    64    32    61    1
    65    34    62    1
    66    35    63    1
