REMARK  3 active torsions:
REMARK  status: ('A' for Active; 'I' for Inactive)
REMARK    1  A    between atoms: C2_2  and  C5_5 
REMARK    2  A    between atoms: C8_8  and  C9_9 
REMARK       I    between atoms: C9_9  and  N1_11 
REMARK    3  A    between atoms: N1_11  and  O2_12 
ROOT
ATOM      1  C5  NON d   1       1.334   2.310   0.000  0.00  0.00    -0.051 A 
ATOM      2  C6  NON d   1       1.716   1.601   1.158  0.00  0.00     0.009 A 
ATOM      3  C7  NON d   1       1.711   0.207   1.178  0.00  0.00     0.017 A 
ATOM      4  C8  NON d   1       1.260  -0.506   0.063  0.00  0.00     0.034 A 
ATOM      5  C10 NON d   1       0.871   0.179  -1.095  0.00  0.00     0.017 A 
ATOM      6  C11 NON d   1       0.932   1.575  -1.134  0.00  0.00     0.009 A 
ENDROOT
BRANCH   4   7
ATOM      7  C9  NON d   1       1.211  -1.986   0.147  0.00  0.00     0.275 C 
ATOM      8  O1  NON d   1       2.028  -2.616   0.815  0.00  0.00    -0.265 OA
ATOM      9  N1  NON d   1       0.161  -2.595  -0.501  0.00  0.00    -0.233 N 
ATOM     10  H12 NON d   1      -0.696  -2.093  -0.706  0.00  0.00     0.197 HD
BRANCH   9  11
ATOM     11  O2  NON d   1       0.012  -3.975  -0.205  0.00  0.00    -0.287 OA
ATOM     12  H13 NON d   1       0.791  -4.148   0.372  0.00  0.00     0.244 HD
ENDBRANCH   9  11
ENDBRANCH   4   7
BRANCH   1  13
ATOM     13  C2  NON d   1       1.334   3.850   0.000  0.00  0.00    -0.024 C 
ATOM     14  C1  NON d   1       1.334   5.390   0.000  0.00  0.00     0.019 C 
ATOM     15  C3  NON d   1      -0.206   3.850   0.000  0.00  0.00     0.019 C 
ATOM     16  C4  NON d   1       2.874   3.850   0.000  0.00  0.00     0.019 C 
ENDBRANCH   1  13
TORSDOF 3
