REMARK  9 active torsions:
REMARK  status: ('A' for Active; 'I' for Inactive)
REMARK    1  A    between atoms: C1_2  and  C2_3 
REMARK       I    between atoms: C1_2  and  N4_38 
REMARK    2  A    between atoms: C3_4  and  C4_5 
REMARK    3  A    between atoms: C8_9  and  C9_10 
REMARK    4  A    between atoms: C14_17  and  N3_18 
REMARK    5  A    between atoms: N3_18  and  C15_19 
REMARK    6  A    between atoms: C18_22  and  O2_23 
REMARK    7  A    between atoms: O2_23  and  C19_24 
REMARK    8  A    between atoms: C19_24  and  C20_25 
REMARK    9  A    between atoms: N4_38  and  O3_39 
ROOT
ATOM      1  C9  NON d   1       1.574  -2.560  -0.016  0.00  0.00    -0.025 A 
ATOM      2  C10 NON d   1       1.674  -1.161   0.030  0.00  0.00     0.014 A 
ATOM      3  C11 NON d   1       2.903  -0.497   0.051  0.00  0.00     0.033 A 
ATOM      4  C12 NON d   1       4.100  -1.178   0.044  0.00  0.00     0.072 A 
ATOM      5  N1  NON d   1       5.204  -0.435   0.073  0.00  0.00    -0.241 NA
ATOM      6  C13 NON d   1       6.357  -1.096   0.072  0.00  0.00     0.236 A 
ATOM      7  N2  NON d   1       6.497  -2.421   0.060  0.00  0.00    -0.224 NA
ATOM      8  C14 NON d   1       5.379  -3.172   0.041  0.00  0.00     0.142 A 
ATOM      9  C28 NON d   1       4.088  -2.578   0.011  0.00  0.00     0.040 A 
ATOM     10  C29 NON d   1       2.812  -3.247  -0.038  0.00  0.00     0.030 A 
ENDROOT
BRANCH   8  11
ATOM     11  N3  NON d   1       5.509  -4.589  -0.002  0.00  0.00    -0.340 N 
ATOM     12  H9  NON d   1       4.768  -5.020   0.540  0.00  0.00     0.167 HD
BRANCH  11  13
ATOM     13  C15 NON d   1       6.669  -5.409   0.024  0.00  0.00     0.035 A 
ATOM     14  C16 NON d   1       7.977  -4.946  -0.104  0.00  0.00     0.032 A 
ATOM     15  C17 NON d   1       9.068  -5.829  -0.100  0.00  0.00     0.041 A 
ATOM     16  C18 NON d   1       8.901  -7.217  -0.017  0.00  0.00     0.091 A 
ATOM     17  C26 NON d   1       7.590  -7.702   0.051  0.00  0.00     0.069 A 
ATOM     18 Cl1  NON d   1       7.146  -9.372   0.118  0.00  0.00    -0.081 Cl
ATOM     19  C27 NON d   1       6.500  -6.802   0.064  0.00  0.00     0.056 A 
BRANCH  16  20
ATOM     20  O2  NON d   1      10.107  -7.864  -0.024  0.00  0.00    -0.345 OA
BRANCH  20  21
ATOM     21  C19 NON d   1      10.170  -9.285   0.010  0.00  0.00     0.214 C 
BRANCH  21  22
ATOM     22  C20 NON d   1      11.599  -9.799  -0.009  0.00  0.00    -0.031 A 
ATOM     23  C21 NON d   1      12.720  -8.955  -0.001  0.00  0.00     0.009 A 
ATOM     24  C22 NON d   1      14.016  -9.485  -0.011  0.00  0.00     0.004 A 
ATOM     25  C23 NON d   1      14.206 -10.866  -0.027  0.00  0.00     0.042 A 
ATOM     26  C24 NON d   1      13.100 -11.705  -0.033  0.00  0.00     0.117 A 
ATOM     27  F1  NON d   1      13.278 -13.032  -0.049  0.00  0.00    -0.206 F 
ATOM     28  C25 NON d   1      11.808 -11.188  -0.023  0.00  0.00     0.051 A 
ENDBRANCH  21  22
ENDBRANCH  20  21
ENDBRANCH  16  20
ENDBRANCH  11  13
ENDBRANCH   8  11
BRANCH   1  29
ATOM     29  C8  NON d   1       0.232  -3.243  -0.031  0.00  0.00    -0.025 A 
ATOM     30  C7  NON d   1      -0.970  -2.502  -0.048  0.00  0.00     0.012 A 
ATOM     31  C6  NON d   1      -2.228  -3.106  -0.048  0.00  0.00     0.002 A 
ATOM     32  C5  NON d   1      -2.336  -4.488  -0.037  0.00  0.00     0.011 A 
ATOM     33  C4  NON d   1      -1.188  -5.283  -0.021  0.00  0.00    -0.035 A 
ATOM     34  C30 NON d   1       0.077  -4.648  -0.019  0.00  0.00     0.023 A 
BRANCH  33  35
ATOM     35  C3  NON d   1      -1.250  -6.759  -0.038  0.00  0.00     0.017 C 
ATOM     36  C2  NON d   1      -2.367  -7.496   0.080  0.00  0.00     0.077 C 
BRANCH  36  37
ATOM     37  C1  NON d   1      -2.294  -8.979   0.027  0.00  0.00     0.264 C 
ATOM     38  O1  NON d   1      -1.223  -9.577  -0.014  0.00  0.00    -0.266 OA
ATOM     39  N4  NON d   1      -3.483  -9.651  -0.035  0.00  0.00    -0.234 N 
ATOM     40  H21 NON d   1      -3.431 -10.648   0.154  0.00  0.00     0.197 HD
BRANCH  39  41
ATOM     41  O3  NON d   1      -4.681  -9.008   0.335  0.00  0.00    -0.287 OA
ATOM     42  H22 NON d   1      -5.116  -8.881  -0.530  0.00  0.00     0.244 HD
ENDBRANCH  39  41
ENDBRANCH  36  37
ENDBRANCH  33  35
ENDBRANCH   1  29
TORSDOF 9
