REMARK  5 active torsions:
REMARK  status: ('A' for Active; 'I' for Inactive)
REMARK    1  A    between atoms: N1_1  and  C1_2 
REMARK    2  A    between atoms: C6_7  and  N2_8 
REMARK       I    between atoms: N2_8  and  C7_9 
REMARK    3  A    between atoms: C7_9  and  C8_11 
REMARK    4  A    between atoms: C11_14  and  C12_15 
REMARK    5  A    between atoms: C12_15  and  C13_16 
ROOT
ATOM      1  C8  NON d   1      -2.455  -5.354  -0.076  0.00  0.00     0.032 A 
ATOM      2  C9  NON d   1      -3.095  -4.125   0.118  0.00  0.00     0.017 A 
ATOM      3  C10 NON d   1      -2.363  -2.941   0.164  0.00  0.00     0.008 A 
ATOM      4  C11 NON d   1      -0.964  -2.930   0.018  0.00  0.00    -0.057 A 
ATOM      5  C22 NON d   1      -0.328  -4.151  -0.218  0.00  0.00     0.008 A 
ATOM      6  C23 NON d   1      -1.063  -5.359  -0.244  0.00  0.00     0.017 A 
ENDROOT
BRANCH   1   7
ATOM      7  C7  NON d   1      -3.342  -6.559  -0.162  0.00  0.00     0.256 C 
ATOM      8  N2  NON d   1      -2.754  -7.801  -0.024  0.00  0.00    -0.321 N 
ATOM      9  H7  NON d   1      -1.771  -7.863   0.202  0.00  0.00     0.169 HD
ATOM     10  O1  NON d   1      -4.540  -6.364  -0.348  0.00  0.00    -0.267 OA
BRANCH   8  11
ATOM     11  C6  NON d   1      -3.412  -9.060  -0.030  0.00  0.00     0.056 A 
ATOM     12  C5  NON d   1      -4.802  -9.214  -0.074  0.00  0.00     0.031 A 
ATOM     13  C4  NON d   1      -5.382 -10.484  -0.006  0.00  0.00     0.002 A 
ATOM     14  C3  NON d   1      -4.580 -11.613   0.122  0.00  0.00     0.002 A 
ATOM     15  C2  NON d   1      -3.192 -11.477   0.162  0.00  0.00     0.025 A 
ATOM     16  C1  NON d   1      -2.598 -10.212   0.049  0.00  0.00     0.033 A 
BRANCH  16  17
ATOM     17  N1  NON d   1      -1.185 -10.093   0.069  0.00  0.00    -0.301 NA
ATOM     18  H1  NON d   1      -0.733 -11.004   0.035  0.00  0.00     0.124 HD
ATOM     19  H2  NON d   1      -0.878  -9.529  -0.718  0.00  0.00     0.124 HD
ENDBRANCH  16  17
ENDBRANCH   8  11
ENDBRANCH   1   7
BRANCH   4  20
ATOM     20  C12 NON d   1      -0.323  -1.560   0.038  0.00  0.00     0.051 C 
BRANCH  20  21
ATOM     21  C13 NON d   1       1.148  -1.252   0.309  0.00  0.00     0.069 C 
ATOM     22  C14 NON d   1       2.008  -2.126   1.238  0.00  0.00     0.052 C 
ATOM     23  C15 NON d   1       3.400  -1.855   0.731  0.00  0.00    -0.043 A 
ATOM     24  C16 NON d   1       4.610  -2.130   1.346  0.00  0.00     0.008 A 
ATOM     25  C20 NON d   1       3.393  -1.270  -0.534  0.00  0.00     0.016 A 
ATOM     26  C17 NON d   1       5.792  -1.766   0.687  0.00  0.00     0.001 A 
ATOM     27  C18 NON d   1       5.759  -1.142  -0.573  0.00  0.00     0.001 A 
ATOM     28  C19 NON d   1       4.541  -0.893  -1.204  0.00  0.00     0.015 A 
ATOM     29  C21 NON d   1       2.005  -1.063  -0.925  0.00  0.00     0.164 C 
ATOM     30  O2  NON d   1       1.653  -0.690  -2.028  0.00  0.00    -0.292 OA
ENDBRANCH  20  21
ENDBRANCH   4  20
TORSDOF 5
