REMARK  6 active torsions:
REMARK  status: ('A' for Active; 'I' for Inactive)
REMARK    1  A    between atoms: C1_2  and  C2_3 
REMARK       I    between atoms: C1_2  and  N3_22 
REMARK    2  A    between atoms: C3_4  and  C4_5 
REMARK    3  A    between atoms: C8_10  and  C9_11 
REMARK    4  A    between atoms: C9_11  and  C10_12 
REMARK    5  A    between atoms: C10_12  and  C11_13 
REMARK    6  A    between atoms: N3_22  and  O2_23 
ROOT
ATOM      1  C4  NON d   1       6.092   3.448  -0.003  0.00  0.00    -0.034 A 
ATOM      2  C5  NON d   1       6.003   2.045   0.051  0.00  0.00     0.014 A 
ATOM      3  C6  NON d   1       4.767   1.378   0.079  0.00  0.00     0.035 A 
ATOM      4  C7  NON d   1       3.597   2.140   0.046  0.00  0.00     0.085 A 
ATOM      5  N1  NON d   1       2.293   1.730   0.057  0.00  0.00    -0.233 NA
ATOM      6  C8  NON d   1       1.569   2.823  -0.033  0.00  0.00     0.105 A 
ATOM      7  N2  NON d   1       2.377   3.939  -0.054  0.00  0.00    -0.343 N 
ATOM      8  C17 NON d   1       3.686   3.523  -0.019  0.00  0.00     0.063 A 
ATOM      9  C18 NON d   1       4.906   4.210  -0.038  0.00  0.00     0.043 A 
ATOM     10  H14 NON d   1       2.063   4.896  -0.110  0.00  0.00     0.167 HD
ENDROOT
BRANCH   1  11
ATOM     11  C3  NON d   1       7.384   4.170  -0.018  0.00  0.00     0.017 C 
ATOM     12  C2  NON d   1       8.601   3.602  -0.020  0.00  0.00     0.077 C 
BRANCH  12  13
ATOM     13  C1  NON d   1       9.843   4.428  -0.015  0.00  0.00     0.264 C 
ATOM     14  O1  NON d   1       9.819   5.652  -0.060  0.00  0.00    -0.266 OA
ATOM     15  N3  NON d   1      10.968   3.638   0.038  0.00  0.00    -0.234 N 
ATOM     16  H16 NON d   1      10.933   2.647   0.240  0.00  0.00     0.197 HD
BRANCH  15  17
ATOM     17  O2  NON d   1      12.200   4.276   0.290  0.00  0.00    -0.287 OA
ATOM     18  H17 NON d   1      12.753   3.964  -0.449  0.00  0.00     0.244 HD
ENDBRANCH  15  17
ENDBRANCH  12  13
ENDBRANCH   1  11
BRANCH   6  19
ATOM     19  C9  NON d   1       0.079   2.918  -0.130  0.00  0.00     0.083 C 
BRANCH  19  20
ATOM     20  C10 NON d   1      -0.645   1.568  -0.007  0.00  0.00     0.046 C 
BRANCH  20  21
ATOM     21  C11 NON d   1      -0.616   0.613  -1.181  0.00  0.00    -0.058 A 
ATOM     22  C12 NON d   1      -1.382  -0.562  -1.091  0.00  0.00     0.007 A 
ATOM     23  C13 NON d   1      -1.375  -1.508  -2.118  0.00  0.00     0.001 A 
ATOM     24  C14 NON d   1      -0.600  -1.296  -3.255  0.00  0.00     0.000 A 
ATOM     25  C15 NON d   1       0.165  -0.139  -3.361  0.00  0.00     0.001 A 
ATOM     26  C16 NON d   1       0.155   0.809  -2.334  0.00  0.00     0.007 A 
ENDBRANCH  20  21
ENDBRANCH  19  20
ENDBRANCH   6  19
TORSDOF 6
