REMARK  8 active torsions:
REMARK  status: ('A' for Active; 'I' for Inactive)
REMARK    1  A    between atoms: C1_2  and  C2_3 
REMARK       I    between atoms: C1_2  and  N3_25 
REMARK    2  A    between atoms: C2_3  and  C3_4 
REMARK    3  A    between atoms: C6_7  and  C7_8 
REMARK    4  A    between atoms: C9_11  and  N1_12 
REMARK       I    between atoms: N1_12  and  C10_13 
REMARK    5  A    between atoms: C10_13  and  C11_15 
REMARK    6  A    between atoms: C11_15  and  O3_16 
REMARK    7  A    between atoms: O3_16  and  C12_17 
REMARK    8  A    between atoms: N3_25  and  O4_26 
ROOT
ATOM      1  C7  NON d   1      -2.029  -3.970   0.029  0.00  0.00     0.083 A 
ATOM      2  C8  NON d   1      -1.564  -2.669   0.060  0.00  0.00     0.086 A 
ATOM      3  S1  NON d   1       0.141  -2.656   0.079  0.00  0.00    -0.061 SA
ATOM      4  C9  NON d   1       0.152  -4.361   0.052  0.00  0.00     0.173 A 
ATOM      5  N2  NON d   1      -1.029  -4.937   0.011  0.00  0.00    -0.223 NA
ENDROOT
BRANCH   1   6
ATOM      6  C6  NON d   1      -3.495  -4.310   0.015  0.00  0.00     0.034 A 
ATOM      7  C5  NON d   1      -4.513  -3.380   0.033  0.00  0.00     0.022 A 
ATOM      8  C4  NON d   1      -5.798  -3.988   0.014  0.00  0.00     0.016 A 
ATOM      9  C3  NON d   1      -5.743  -5.372  -0.022  0.00  0.00    -0.008 A 
ATOM     10  S2  NON d   1      -4.114  -5.901  -0.025  0.00  0.00    -0.092 SA
BRANCH   9  11
ATOM     11  C2  NON d   1      -6.966  -6.257  -0.070  0.00  0.00     0.151 C 
BRANCH  11  12
ATOM     12  C1  NON d   1      -6.813  -7.769  -0.056  0.00  0.00     0.245 C 
ATOM     13  O1  NON d   1      -5.761  -8.400  -0.078  0.00  0.00    -0.271 OA
ATOM     14  N3  NON d   1      -7.998  -8.471   0.018  0.00  0.00    -0.237 N 
ATOM     15  H14 NON d   1      -7.931  -9.458  -0.217  0.00  0.00     0.197 HD
BRANCH  14  16
ATOM     16  O4  NON d   1      -9.189  -7.812  -0.346  0.00  0.00    -0.287 OA
ATOM     17  H15 NON d   1      -9.651  -7.737   0.511  0.00  0.00     0.244 HD
ENDBRANCH  14  16
ENDBRANCH  11  12
ENDBRANCH   9  11
ENDBRANCH   1   6
BRANCH   4  18
ATOM     18  N1  NON d   1       1.320  -5.090   0.033  0.00  0.00    -0.304 N 
ATOM     19  C10 NON d   1       2.602  -4.585   0.166  0.00  0.00     0.247 C 
ATOM     20  O2  NON d   1       2.894  -3.416   0.409  0.00  0.00    -0.271 OA
ATOM     21  H6  NON d   1       1.164  -6.085  -0.049  0.00  0.00     0.171 HD
BRANCH  19  22
ATOM     22  C11 NON d   1       3.688  -5.656   0.001  0.00  0.00     0.278 C 
BRANCH  22  23
ATOM     23  O3  NON d   1       4.919  -4.988  -0.254  0.00  0.00    -0.342 OA
BRANCH  23  24
ATOM     24  C12 NON d   1       6.082  -5.689  -0.148  0.00  0.00     0.069 A 
ATOM     25  C13 NON d   1       7.234  -4.895  -0.136  0.00  0.00     0.037 A 
ATOM     26  C14 NON d   1       8.500  -5.474  -0.043  0.00  0.00     0.003 A 
ATOM     27  C15 NON d   1       8.620  -6.859   0.030  0.00  0.00     0.000 A 
ATOM     28  C16 NON d   1       7.475  -7.657   0.011  0.00  0.00     0.003 A 
ATOM     29  C17 NON d   1       6.205  -7.074  -0.079  0.00  0.00     0.037 A 
ENDBRANCH  23  24
ENDBRANCH  22  23
ENDBRANCH  19  22
ENDBRANCH   4  18
TORSDOF 8
