@<TRIPOS>MOLECULE
*****
 37 39 0 0 0
SMALL
USER_CHARGES

@<TRIPOS>ATOM
      1 O1          8.8522    2.1423    0.8621 O.2     1  NONAME1    -0.2751
      2 C1          8.7611    3.2363    0.3167 C.2     1  NONAME1     0.2215
      3 C2          9.9594    4.1236   -0.0169 C.3     1  NONAME1     0.0494
      4 C3         11.3477    3.5138   -0.0085 C.ar    1  NONAME1    -0.0384
      5 C4         12.4520    4.3813    0.1023 C.ar    1  NONAME1    -0.0554
      6 C5         13.7587    3.8887    0.0723 C.ar    1  NONAME1    -0.0262
      7 C6         13.9719    2.5253   -0.0718 C.ar    1  NONAME1     0.1234
      8 F1         15.2240    2.0502   -0.0949 F       1  NONAME1    -0.2055
      9 C7         12.9036    1.6497   -0.2021 C.ar    1  NONAME1    -0.0262
     10 C8         11.5963    2.1443   -0.1876 C.ar    1  NONAME1    -0.0554
     11 N1          7.5623    3.8552   -0.0252 N.am    1  NONAME1    -0.2852
     12 C9          6.2735    3.2792    0.0102 C.ar    1  NONAME1     0.0345
     13 C10         6.0505    1.9095    0.1004 C.ar    1  NONAME1    -0.0399
     14 C11         4.7475    1.3901    0.1063 C.ar    1  NONAME1    -0.0517
     15 C12         3.6314    2.2537    0.0387 C.ar    1  NONAME1    -0.0100
     16 C13         2.2219    1.9719    0.0556 C.ar    1  NONAME1    -0.0347
     17 C14         1.4345    3.1045   -0.0116 C.ar    1  NONAME1     0.0770
     18 C15        -0.0231    3.1669    0.0202 C.2     1  NONAME1     0.2731
     19 O2         -0.7428    2.1972    0.2363 O.2     1  NONAME1    -0.2675
     20 N2         -0.5655    4.4148   -0.2125 N.am    1  NONAME1    -0.1930
     21 O3         -1.9643    4.5652   -0.2344 O.3     1  NONAME1    -0.2949
     22 S1          2.4012    4.5111   -0.1294 S.2     1  NONAME1    -0.0835
     23 C16         3.8715    3.6229   -0.0608 C.ar    1  NONAME1     0.0218
     24 C17         5.1804    4.1481   -0.0910 C.ar    1  NONAME1    -0.0261
     25 H1          9.7996    4.5494   -1.0158 H       1  NONAME1     0.0407
     26 H2          9.9362    4.9472    0.7095 H       1  NONAME1     0.0407
     27 H3         12.3008    5.4539    0.2091 H       1  NONAME1     0.0621
     28 H4         14.6083    4.5582    0.1583 H       1  NONAME1     0.0646
     29 H5         13.0891    0.5866   -0.3161 H       1  NONAME1     0.0646
     30 H6         10.7824    1.4330   -0.3074 H       1  NONAME1     0.0621
     31 H7          7.6019    4.8465   -0.2259 H       1  NONAME1     0.1548
     32 H8          6.8734    1.2028    0.1451 H       1  NONAME1     0.0636
     33 H9          4.6043    0.3136    0.1684 H       1  NONAME1     0.0624
     34 H10         1.8076    0.9727    0.1257 H       1  NONAME1     0.0636
     35 H11        -0.0030    5.2325   -0.4121 H       1  NONAME1     0.1825
     36 H12        -2.2709    3.8430    0.3523 H       1  NONAME1     0.2414
     37 H13         5.3220    5.2233   -0.1631 H       1  NONAME1     0.0647
@<TRIPOS>BOND
     1     1     2    2
     2     2     3    1
     3     3     4    1
     4     4     5   ar
     5     5     6   ar
     6     6     7   ar
     7     7     8    1
     8     7     9   ar
     9     9    10   ar
    10     4    10   ar
    11     2    11   am
    12    11    12    1
    13    12    13   ar
    14    13    14   ar
    15    14    15   ar
    16    15    16   ar
    17    16    17   ar
    18    17    18    1
    19    18    19    2
    20    18    20   am
    21    20    21    1
    22    17    22   ar
    23    22    23   ar
    24    15    23   ar
    25    23    24   ar
    26    12    24   ar
    27     3    25    1
    28     3    26    1
    29     5    27    1
    30     6    28    1
    31     9    29    1
    32    10    30    1
    33    11    31    1
    34    13    32    1
    35    14    33    1
    36    16    34    1
    37    20    35    1
    38    21    36    1
    39    24    37    1
