@<TRIPOS>MOLECULE
*****
 13 13 0 0 0
SMALL
USER_CHARGES

@<TRIPOS>ATOM
      1 O1          1.4132    3.6160    0.0000 O.3     1  NONAME1    -0.5021
      2 C1          1.4213    2.2345    0.0000 C.ar    1  NONAME1     0.1816
      3 C2          2.5562    1.5135    0.0000 C.ar    1  NONAME1    -0.0134
      4 C3          2.5280    0.0680    0.0000 C.ar    1  NONAME1    -0.0421
      5 C4          1.3566   -0.5782    0.0000 C.ar    1  NONAME1     0.0052
      6 N1          0.1813    0.1248    0.0000 N.ar    1  NONAME1    -0.3261
      7 C5          0.1005    1.5010    0.0000 C.ar    1  NONAME1     0.2904
      8 O2         -0.9820    2.0783    0.0000 O.2     1  NONAME1    -0.2639
      9 H1          2.3297    3.9326    0.0000 H       1  NONAME1     0.2923
     10 H2          3.5311    1.9876    0.0000 H       1  NONAME1     0.0656
     11 H3          3.4688   -0.4724    0.0000 H       1  NONAME1     0.0633
     12 H4          1.2818   -1.6607   -0.0000 H       1  NONAME1     0.0808
     13 H5         -0.7080   -0.3591   -0.0000 H       1  NONAME1     0.1684
@<TRIPOS>BOND
     1     1     2    1
     2     2     3   ar
     3     3     4   ar
     4     4     5   ar
     5     5     6   ar
     6     6     7   ar
     7     2     7   ar
     8     7     8    2
     9     1     9    1
    10     3    10    1
    11     4    11    1
    12     5    12    1
    13     6    13    1
