@<TRIPOS>MOLECULE
*****
 71 76 0 0 0
SMALL
USER_CHARGES

@<TRIPOS>ATOM
      1 N1        -10.1960   -7.2178    0.0189 N.pl3   1  NONAME1    -0.3565
      2 C1        -11.4697   -6.5936   -0.0050 C.ar    1  NONAME1     0.0461
      3 C2        -12.6126   -7.3674   -0.2566 C.ar    1  NONAME1    -0.0392
      4 C3        -13.8765   -6.7785   -0.2683 C.ar    1  NONAME1    -0.0599
      5 C4        -14.0003   -5.4069   -0.0624 C.ar    1  NONAME1    -0.0599
      6 C5        -12.8634   -4.6178    0.1459 C.ar    1  NONAME1    -0.0387
      7 C6        -11.5912   -5.1948    0.1665 C.ar    1  NONAME1     0.0545
      8 N2        -10.3862   -4.4571    0.3276 N.am    1  NONAME1    -0.2800
      9 C7        -10.2600   -3.1219    0.6701 C.2     1  NONAME1     0.2483
     10 O1        -11.1862   -2.3676    0.9428 O.2     1  NONAME1    -0.2699
     11 C8         -8.8654   -2.5626    0.7328 C.ar    1  NONAME1     0.0370
     12 C9         -8.6507   -1.4159    1.5114 C.ar    1  NONAME1    -0.0493
     13 C10        -7.4293   -0.7192    1.4733 C.ar    1  NONAME1    -0.0567
     14 C11        -6.4055   -1.1016    0.5801 C.ar    1  NONAME1    -0.0267
     15 C12        -5.3347    0.0000    0.0000 C.3     1  NONAME1     0.1371
     16 C13        -4.9785    1.3003    0.7661 C.2     1  NONAME1     0.2336
     17 O2         -5.3065    1.5424    1.9216 O.2     1  NONAME1    -0.2743
     18 N3         -4.2284    2.1588   -0.0353 N.am    1  NONAME1    -0.2845
     19 C14        -4.1680    3.5600    0.0601 C.ar    1  NONAME1     0.0371
     20 C15        -3.0770    4.1996   -0.5431 C.ar    1  NONAME1    -0.0368
     21 C16        -3.0210    5.5922   -0.6155 C.ar    1  NONAME1    -0.0145
     22 C17        -4.0867    6.3487   -0.1391 C.ar    1  NONAME1     0.1622
     23 C18        -5.1924    5.7130    0.4355 C.ar    1  NONAME1     0.1638
     24 C19        -5.2126    4.3237    0.5858 C.ar    1  NONAME1     0.0049
     25 O3         -6.3166    6.3990    0.8240 O.3     1  NONAME1    -0.4849
     26 C20        -6.3722    7.6820    0.1866 C.3     1  NONAME1     0.1237
     27 C21        -5.0484    8.4077    0.3600 C.3     1  NONAME1     0.1237
     28 O4         -3.9926    7.7063   -0.3080 O.3     1  NONAME1    -0.4849
     29 C22        -4.0010   -0.7700    0.0000 C.2     1  NONAME1     0.2336
     30 O5         -3.8698   -1.5857   -0.9295 O.2     1  NONAME1    -0.2743
     31 N4         -2.9106   -0.4369    0.7892 N.am    1  NONAME1    -0.2845
     32 C23        -1.6189   -1.0079    0.5809 C.ar    1  NONAME1     0.0371
     33 C24        -1.4476   -2.3248    0.1288 C.ar    1  NONAME1    -0.0368
     34 C25        -0.1767   -2.8383   -0.1417 C.ar    1  NONAME1    -0.0145
     35 C26         0.9431   -2.0394    0.0409 C.ar    1  NONAME1     0.1622
     36 C27         0.7908   -0.7227    0.4873 C.ar    1  NONAME1     0.1638
     37 C28        -0.4819   -0.2186    0.7942 C.ar    1  NONAME1     0.0049
     38 O6          1.8538    0.1361    0.6341 O.3     1  NONAME1    -0.4849
     39 C29         3.0295   -0.3617   -0.0229 C.3     1  NONAME1     0.1237
     40 C30         3.2350   -1.8360    0.2820 C.3     1  NONAME1     0.1237
     41 O7          2.1555   -2.6095   -0.2491 O.3     1  NONAME1    -0.4849
     42 C31        -6.6072   -2.3068   -0.1348 C.ar    1  NONAME1    -0.0567
     43 C32        -7.8093   -3.0391   -0.0451 C.ar    1  NONAME1    -0.0493
     44 H1        -10.2680   -8.2315   -0.0484 H       1  NONAME1     0.1424
     45 H2         -9.6944   -6.9599    0.8661 H       1  NONAME1     0.1424
     46 H3        -12.5321   -8.4399   -0.4192 H       1  NONAME1     0.0636
     47 H4        -14.7624   -7.3878   -0.4381 H       1  NONAME1     0.0618
     48 H5        -14.9826   -4.9432   -0.0761 H       1  NONAME1     0.0618
     49 H6        -13.0058   -3.5492    0.2672 H       1  NONAME1     0.0637
     50 H7         -9.5527   -5.0108    0.1877 H       1  NONAME1     0.1552
     51 H8         -9.4722   -1.0022    2.0963 H       1  NONAME1     0.0625
     52 H9         -7.3758    0.2190    2.0261 H       1  NONAME1     0.0621
     53 H10        -6.6684    0.7700    0.0000 H       1  NONAME1     0.0539
     54 H11        -3.6467    1.7451   -0.7583 H       1  NONAME1     0.1548
     55 H12        -2.2509    3.6245   -0.9571 H       1  NONAME1     0.0637
     56 H13        -2.1630    6.0834   -1.0678 H       1  NONAME1     0.0656
     57 H14        -6.0891    3.8556    1.0234 H       1  NONAME1     0.0674
     58 H15        -6.6168    7.5401   -0.8752 H       1  NONAME1     0.0731
     59 H16        -7.1845    8.2522    0.6472 H       1  NONAME1     0.0731
     60 H17        -5.1058    9.4103   -0.0760 H       1  NONAME1     0.0731
     61 H18        -4.7829    8.5071    1.4190 H       1  NONAME1     0.0731
     62 H19        -2.9299    0.4126    1.3450 H       1  NONAME1     0.1548
     63 H20        -2.2982   -2.9871   -0.0132 H       1  NONAME1     0.0637
     64 H21        -0.0671   -3.8601   -0.4939 H       1  NONAME1     0.0656
     65 H22        -0.5679    0.8104    1.1301 H       1  NONAME1     0.0674
     66 H23         2.9293   -0.1878   -1.1020 H       1  NONAME1     0.0731
     67 H24         3.8841    0.2197    0.3371 H       1  NONAME1     0.0731
     68 H25         4.1596   -2.1964   -0.1804 H       1  NONAME1     0.0731
     69 H26         3.2986   -2.0200    1.3614 H       1  NONAME1     0.0731
     70 H27        -5.8758   -2.6609   -0.8589 H       1  NONAME1     0.0621
     71 H28        -7.9235   -3.9128   -0.6815 H       1  NONAME1     0.0625
@<TRIPOS>BOND
     1     1     2    1
     2     2     3   ar
     3     3     4   ar
     4     4     5   ar
     5     5     6   ar
     6     6     7   ar
     7     2     7   ar
     8     7     8    1
     9     8     9   am
    10     9    10    2
    11     9    11    1
    12    11    12   ar
    13    12    13   ar
    14    13    14   ar
    15    14    15    1
    16    15    16    1
    17    16    17    2
    18    16    18   am
    19    18    19    1
    20    19    20   ar
    21    20    21   ar
    22    21    22   ar
    23    22    23   ar
    24    23    24   ar
    25    19    24   ar
    26    23    25    1
    27    25    26    1
    28    26    27    1
    29    27    28    1
    30    22    28    1
    31    15    29    1
    32    29    30    2
    33    29    31   am
    34    31    32    1
    35    32    33   ar
    36    33    34   ar
    37    34    35   ar
    38    35    36   ar
    39    36    37   ar
    40    32    37   ar
    41    36    38    1
    42    38    39    1
    43    39    40    1
    44    40    41    1
    45    35    41    1
    46    14    42   ar
    47    42    43   ar
    48    11    43   ar
    49     1    44    1
    50     1    45    1
    51     3    46    1
    52     4    47    1
    53     5    48    1
    54     6    49    1
    55     8    50    1
    56    12    51    1
    57    13    52    1
    58    15    53    1
    59    18    54    1
    60    20    55    1
    61    21    56    1
    62    24    57    1
    63    26    58    1
    64    26    59    1
    65    27    60    1
    66    27    61    1
    67    31    62    1
    68    33    63    1
    69    34    64    1
    70    37    65    1
    71    39    66    1
    72    39    67    1
    73    40    68    1
    74    40    69    1
    75    42    70    1
    76    43    71    1
