REMARK  8 active torsions:
REMARK  status: ('A' for Active; 'I' for Inactive)
REMARK    1  A    between atoms: O1_2  and  C2_3 
REMARK    2  A    between atoms: C5_6  and  C6_7 
REMARK    3  A    between atoms: C6_7  and  C7_8 
REMARK    4  A    between atoms: C7_8  and  C8_11 
REMARK    5  A    between atoms: N1_9  and  N2_10 
REMARK       I    between atoms: C8_11  and  N3_13 
REMARK    6  A    between atoms: N3_13  and  C9_14 
REMARK    7  A    between atoms: C9_14  and  C10_15 
REMARK    8  A    between atoms: C10_15  and  S1_16 
ROOT
ATOM      1  C7  NON d   1       1.406   6.772   0.057  0.00  0.00     0.120 C 
ATOM      2  N1  NON d   1       1.824   5.624  -0.419  0.00  0.00    -0.203 NA
ENDROOT
BRANCH   1   3
ATOM      3  C6  NON d   1       0.035   7.372   0.296  0.00  0.00     0.105 C 
BRANCH   3   4
ATOM      4  C5  NON d   1      -1.280   6.637   0.152  0.00  0.00    -0.051 C 
ATOM      5  C4  NON d   1      -2.385   7.346  -0.335  0.00  0.00     0.010 C 
ATOM      6  C3  NON d   1      -3.636   6.737  -0.460  0.00  0.00     0.039 C 
ATOM      7  C2  NON d   1      -3.837   5.391  -0.122  0.00  0.00     0.085 C 
ATOM      8  C12 NON d   1      -2.747   4.679   0.392  0.00  0.00     0.044 C 
ATOM      9  C11 NON d   1      -1.508   5.327   0.587  0.00  0.00     0.029 C 
ATOM     10 Br1  NON d   1      -2.726   2.813   0.762  0.00  0.00    -0.048 Br
BRANCH   7  11
ATOM     11  O1  NON d   1      -5.111   4.992  -0.410  0.00  0.00    -0.355 OA
ATOM     12  C1  NON d   1      -5.670   3.862   0.236  0.00  0.00     0.210 C 
ENDBRANCH   7  11
ENDBRANCH   3   4
ENDBRANCH   1   3
BRANCH   1  13
ATOM     13  C8  NON d   1       2.561   7.756   0.363  0.00  0.00     0.267 C 
ATOM     14  O2  NON d   1       2.331   8.926   0.627  0.00  0.00    -0.266 OA
ATOM     15  N3  NON d   1       3.813   7.194   0.240  0.00  0.00    -0.355 N 
ATOM     16  H10 NON d   1       3.809   6.265  -0.181  0.00  0.00     0.162 HD
BRANCH  15  17
ATOM     17  C9  NON d   1       5.003   8.005   0.101  0.00  0.00     0.133 C 
BRANCH  17  18
ATOM     18  C10 NON d   1       6.287   7.190   0.236  0.00  0.00     0.090 C 
BRANCH  18  19
ATOM     19  S1  NON d   1       6.413   5.909  -1.057  0.00  0.00    -0.181 SA
ATOM     20  H15 NON d   1       7.619   5.446  -0.697  0.00  0.00     0.101 HD
ENDBRANCH  18  19
ENDBRANCH  17  18
ENDBRANCH  15  17
ENDBRANCH   1  13
BRANCH   2  21
ATOM     21  N2  NON d   1       0.945   4.696  -0.815  0.00  0.00    -0.226 NA
ATOM     22  H8  NON d   1       0.435   4.975  -1.657  0.00  0.00     0.145 HD
ATOM     23  H9  NON d   1       1.429   3.827  -1.056  0.00  0.00     0.145 HD
ENDBRANCH   2  21
TORSDOF 8
