REMARK  5 active torsions:
REMARK  status: ('A' for Active; 'I' for Inactive)
REMARK    1  A    between atoms: N1_1  and  C1_2 
REMARK    2  A    between atoms: C6_7  and  N2_8 
REMARK       I    between atoms: N2_8  and  C7_9 
REMARK    3  A    between atoms: C7_9  and  C8_11 
REMARK    4  A    between atoms: C11_14  and  C12_15 
REMARK    5  A    between atoms: C12_15  and  N3_16 
ROOT
ATOM      1  C8  NON d   1      -2.534  -5.302   0.188  0.00  0.00     0.032 A 
ATOM      2  C9  NON d   1      -3.059  -4.069  -0.217  0.00  0.00     0.017 A 
ATOM      3  C10 NON d   1      -2.234  -2.950  -0.353  0.00  0.00     0.010 A 
ATOM      4  C11 NON d   1      -0.857  -3.021  -0.081  0.00  0.00    -0.040 A 
ATOM      5  C21 NON d   1      -0.352  -4.236   0.398  0.00  0.00     0.010 A 
ATOM      6  C22 NON d   1      -1.177  -5.368   0.527  0.00  0.00     0.017 A 
ENDROOT
BRANCH   1   7
ATOM      7  C7  NON d   1      -3.468  -6.476   0.197  0.00  0.00     0.256 C 
ATOM      8  N2  NON d   1      -2.887  -7.729   0.156  0.00  0.00    -0.321 N 
ATOM      9  H7  NON d   1      -1.882  -7.812   0.211  0.00  0.00     0.169 HD
ATOM     10  O1  NON d   1      -4.674  -6.247   0.194  0.00  0.00    -0.267 OA
BRANCH   8  11
ATOM     11  C6  NON d   1      -3.540  -8.986   0.086  0.00  0.00     0.056 A 
ATOM     12  C5  NON d   1      -4.928  -9.143   0.059  0.00  0.00     0.031 A 
ATOM     13  C4  NON d   1      -5.497 -10.420   0.051  0.00  0.00     0.002 A 
ATOM     14  C3  NON d   1      -4.686 -11.550   0.088  0.00  0.00     0.002 A 
ATOM     15  C2  NON d   1      -3.299 -11.409   0.103  0.00  0.00     0.025 A 
ATOM     16  C1  NON d   1      -2.716 -10.135   0.059  0.00  0.00     0.033 A 
BRANCH  16  17
ATOM     17  N1  NON d   1      -1.304 -10.013   0.038  0.00  0.00    -0.301 NA
ATOM     18  H1  NON d   1      -0.842 -10.916  -0.029  0.00  0.00     0.124 HD
ATOM     19  H2  NON d   1      -1.013  -9.421  -0.738  0.00  0.00     0.124 HD
ENDBRANCH  16  17
ENDBRANCH   8  11
ENDBRANCH   1   7
BRANCH   4  20
ATOM     20  C12 NON d   1      -0.030  -1.792  -0.401  0.00  0.00     0.165 C 
BRANCH  20  21
ATOM     21  N3  NON d   1       1.369  -1.747  -0.011  0.00  0.00    -0.340 N 
ATOM     22  C13 NON d   1       1.951  -0.466   0.378  0.00  0.00     0.166 C 
ATOM     23  C14 NON d   1       3.417  -0.696   0.245  0.00  0.00    -0.025 A 
ATOM     24  C15 NON d   1       4.480   0.142   0.533  0.00  0.00     0.010 A 
ATOM     25  C19 NON d   1       3.644  -1.955  -0.300  0.00  0.00     0.040 A 
ATOM     26  C16 NON d   1       5.776  -0.328   0.288  0.00  0.00     0.001 A 
ATOM     27  C17 NON d   1       5.992  -1.615  -0.240  0.00  0.00     0.001 A 
ATOM     28  C18 NON d   1       4.913  -2.444  -0.550  0.00  0.00     0.017 A 
ATOM     29  C20 NON d   1       2.342  -2.570  -0.576  0.00  0.00     0.255 C 
ATOM     30  O2  NON d   1       2.205  -3.590  -1.227  0.00  0.00    -0.267 OA
ENDBRANCH  20  21
ENDBRANCH   4  20
TORSDOF 5
