REMARK  8 active torsions:
REMARK  status: ('A' for Active; 'I' for Inactive)
REMARK    1  A    between atoms: C2_2  and  P1_3 
REMARK    2  A    between atoms: P1_3  and  C3_5 
REMARK    3  A    between atoms: P1_3  and  C5_7 
REMARK    4  A    between atoms: C5_7  and  C6_8 
REMARK    5  A    between atoms: C9_11  and  C10_12 
REMARK       I    between atoms: C10_12  and  N1_14 
REMARK    6  A    between atoms: N1_14  and  C11_15 
REMARK    7  A    between atoms: C13_17  and  C14_18 
REMARK    8  A    between atoms: C20_25  and  N2_26 
ROOT
ATOM      1  C10 NON d   1       0.465  10.440  -0.206  0.00  0.00     0.256 C 
ATOM      2  O2  NON d   1      -0.368  11.180  -0.729  0.00  0.00    -0.267 OA
ATOM      3  N1  NON d   1       0.234   9.114   0.130  0.00  0.00    -0.321 N 
ATOM      4  H15 NON d   1       1.037   8.550   0.368  0.00  0.00     0.169 HD
ENDROOT
BRANCH   3   5
ATOM      5  C11 NON d   1      -1.033   8.426   0.086  0.00  0.00     0.057 A 
ATOM      6  C12 NON d   1      -0.982   7.008   0.057  0.00  0.00     0.044 A 
ATOM      7  C13 NON d   1      -2.144   6.198   0.012  0.00  0.00    -0.017 A 
ATOM      8  C18 NON d   1      -3.381   6.852   0.023  0.00  0.00     0.014 A 
ATOM      9  C19 NON d   1      -3.456   8.241   0.089  0.00  0.00     0.026 A 
ATOM     10  C20 NON d   1      -2.309   9.045   0.091  0.00  0.00     0.033 A 
BRANCH   7  11
ATOM     11  C14 NON d   1      -2.059   4.710  -0.021  0.00  0.00     0.015 A 
ATOM     12  C15 NON d   1      -0.943   3.886  -0.012  0.00  0.00     0.020 A 
ATOM     13  C16 NON d   1      -1.262   2.493  -0.032  0.00  0.00     0.008 A 
ATOM     14  C17 NON d   1      -2.615   2.273  -0.064  0.00  0.00     0.050 A 
ATOM     15  S1  NON d   1      -3.490   3.734  -0.076  0.00  0.00    -0.101 SA
ENDBRANCH   7  11
BRANCH  10  16
ATOM     16  N2  NON d   1      -2.520  10.409   0.392  0.00  0.00    -0.301 NA
ATOM     17  H22 NON d   1      -1.754  10.976   0.010  0.00  0.00     0.124 HD
ATOM     18  H23 NON d   1      -3.399  10.761   0.031  0.00  0.00     0.124 HD
ENDBRANCH  10  16
ENDBRANCH   3   5
BRANCH   1  19
ATOM     19  C9  NON d   1       1.809  11.051   0.062  0.00  0.00     0.032 A 
ATOM     20  C8  NON d   1       3.054  10.434  -0.107  0.00  0.00     0.017 A 
ATOM     21  C7  NON d   1       4.256  11.201  -0.054  0.00  0.00     0.008 A 
ATOM     22  C6  NON d   1       4.236  12.591   0.181  0.00  0.00    -0.051 A 
ATOM     23  C22 NON d   1       2.975  13.152   0.459  0.00  0.00     0.008 A 
ATOM     24  C21 NON d   1       1.792  12.411   0.380  0.00  0.00     0.017 A 
BRANCH  22  25
ATOM     25  C5  NON d   1       5.534  13.515   0.000  0.00  0.00     0.112 C 
BRANCH  25  26
ATOM     26  P1  NON d   1       5.534  15.055   0.000  0.00  0.00     0.082 P 
ATOM     27  O1  NON d   1       4.283  15.101  -0.879  0.00  0.00    -0.322 OA
BRANCH  26  28
ATOM     28  C2  NON d   1       5.534  16.595   0.000  0.00  0.00     0.069 C 
ATOM     29  C1  NON d   1       4.375  17.365   0.660  0.00  0.00     0.013 C 
ENDBRANCH  26  28
BRANCH  26  30
ATOM     30  C3  NON d   1       5.522  15.055   1.540  0.00  0.00     0.069 C 
ATOM     31  C4  NON d   1       5.514  16.389   2.310  0.00  0.00     0.013 C 
ENDBRANCH  26  30
ENDBRANCH  25  26
ENDBRANCH  22  25
ENDBRANCH   1  19
TORSDOF 8
