REMARK  7 active torsions:
REMARK  status: ('A' for Active; 'I' for Inactive)
REMARK    1  A    between atoms: N1_1  and  C1_2 
REMARK    2  A    between atoms: C6_7  and  N2_8 
REMARK       I    between atoms: N2_8  and  C7_9 
REMARK    3  A    between atoms: C7_9  and  C8_11 
REMARK    4  A    between atoms: C9_12  and  C10_13 
REMARK    5  A    between atoms: C13_16  and  N3_17 
REMARK    6  A    between atoms: N3_17  and  S1_18 
REMARK    7  A    between atoms: S1_18  and  C14_21 
ROOT
ATOM      1  C10 NON d   1       3.084 -10.164  -0.187  0.00  0.00    -0.036 A 
ATOM      2  C11 NON d   1       2.482  -8.899  -0.170  0.00  0.00     0.014 A 
ATOM      3  C12 NON d   1       3.243  -7.726  -0.226  0.00  0.00     0.033 A 
ATOM      4  C13 NON d   1       4.641  -7.761  -0.291  0.00  0.00     0.070 A 
ATOM      5  C26 NON d   1       5.239  -9.031  -0.327  0.00  0.00     0.033 A 
ATOM      6  C27 NON d   1       4.478 -10.216  -0.269  0.00  0.00     0.014 A 
ENDROOT
BRANCH   4   7
ATOM      7  N3  NON d   1       5.388  -6.627  -0.351  0.00  0.00    -0.160 NA
BRANCH   7   8
ATOM      8  S1  NON d   1       5.473  -5.653   0.928  0.00  0.00     0.284 S 
ATOM      9  O2  NON d   1       6.780  -5.612   1.578  0.00  0.00    -0.198 OA
ATOM     10  O3  NON d   1       4.361  -5.720   1.880  0.00  0.00    -0.198 OA
BRANCH   8  11
ATOM     11  C14 NON d   1       5.263  -3.954   0.280  0.00  0.00     0.095 A 
ATOM     12  C15 NON d   1       3.918  -3.541   0.121  0.00  0.00     0.026 A 
ATOM     13  C16 NON d   1       3.586  -2.232  -0.214  0.00  0.00     0.004 A 
ATOM     14  C17 NON d   1       4.583  -1.278  -0.382  0.00  0.00     0.038 A 
ATOM     15  C18 NON d   1       5.904  -1.707  -0.236  0.00  0.00     0.088 A 
ATOM     16  O4  NON d   1       6.972  -0.877  -0.355  0.00  0.00    -0.309 OA
ATOM     17  C25 NON d   1       6.303  -3.016   0.058  0.00  0.00     0.034 A 
ATOM     18  C19 NON d   1       8.082  -1.635  -0.183  0.00  0.00     0.087 A 
ATOM     19  C20 NON d   1       9.386  -1.140  -0.230  0.00  0.00     0.038 A 
ATOM     20  C24 NON d   1       7.741  -2.968   0.034  0.00  0.00     0.012 A 
ATOM     21  C21 NON d   1      10.417  -2.068  -0.076  0.00  0.00     0.003 A 
ATOM     22  C22 NON d   1      10.133  -3.421   0.103  0.00  0.00     0.001 A 
ATOM     23  C23 NON d   1       8.807  -3.882   0.157  0.00  0.00     0.015 A 
ENDBRANCH   8  11
ENDBRANCH   7   8
ENDBRANCH   4   7
BRANCH   1  24
ATOM     24  C9  NON d   1       2.191 -11.338  -0.154  0.00  0.00     0.017 C 
ATOM     25  C8  NON d   1       2.498 -12.645  -0.085  0.00  0.00     0.075 C 
BRANCH  25  26
ATOM     26  C7  NON d   1       1.365 -13.624  -0.125  0.00  0.00     0.245 C 
ATOM     27  N2  NON d   1       1.765 -14.939  -0.016  0.00  0.00    -0.322 N 
ATOM     28  H7  NON d   1       2.742 -15.137   0.150  0.00  0.00     0.169 HD
ATOM     29  O1  NON d   1       0.212 -13.231  -0.270  0.00  0.00    -0.268 OA
BRANCH  27  30
ATOM     30  C6  NON d   1       0.930 -16.089  -0.021  0.00  0.00     0.056 A 
ATOM     31  C5  NON d   1      -0.468 -16.025  -0.051  0.00  0.00     0.031 A 
ATOM     32  C4  NON d   1      -1.240 -17.187   0.025  0.00  0.00     0.002 A 
ATOM     33  C3  NON d   1      -0.624 -18.427   0.150  0.00  0.00     0.002 A 
ATOM     34  C2  NON d   1       0.769 -18.510   0.172  0.00  0.00     0.025 A 
ATOM     35  C1  NON d   1       1.555 -17.356   0.031  0.00  0.00     0.033 A 
BRANCH  35  36
ATOM     36  N1  NON d   1       2.966 -17.475   0.064  0.00  0.00    -0.301 NA
ATOM     37  H1  NON d   1       3.269 -18.441  -0.045  0.00  0.00     0.124 HD
ATOM     38  H2  NON d   1       3.394 -16.893  -0.651  0.00  0.00     0.124 HD
ENDBRANCH  35  36
ENDBRANCH  27  30
ENDBRANCH  25  26
ENDBRANCH   1  24
TORSDOF 7
