REMARK  9 active torsions:
REMARK  status: ('A' for Active; 'I' for Inactive)
REMARK    1  A    between atoms: O1_2  and  C2_3 
REMARK    2  A    between atoms: C5_6  and  N1_7 
REMARK    3  A    between atoms: N1_7  and  C6_8 
REMARK    4  A    between atoms: C6_8  and  C7_9 
REMARK    5  A    between atoms: C10_12  and  C11_13 
REMARK       I    between atoms: C11_13  and  N2_15 
REMARK    6  A    between atoms: N2_15  and  C12_16 
REMARK    7  A    between atoms: C14_18  and  C15_19 
REMARK    8  A    between atoms: C21_26  and  O3_27 
REMARK    9  A    between atoms: C25_31  and  O4_32 
ROOT
ATOM      1  C7  NON d   1       4.255  12.619   0.050  0.00  0.00    -0.041 A 
ATOM      2  C8  NON d   1       4.149  11.219   0.166  0.00  0.00     0.010 A 
ATOM      3  C9  NON d   1       2.907  10.560   0.081  0.00  0.00     0.017 A 
ATOM      4  C10 NON d   1       1.735  11.294  -0.120  0.00  0.00     0.032 A 
ATOM      5  C22 NON d   1       1.843  12.691  -0.241  0.00  0.00     0.017 A 
ATOM      6  C23 NON d   1       3.079  13.342  -0.166  0.00  0.00     0.010 A 
ENDROOT
BRANCH   4   7
ATOM      7  C11 NON d   1       0.353  10.715  -0.224  0.00  0.00     0.256 C 
ATOM      8  O2  NON d   1      -0.554  11.487  -0.519  0.00  0.00    -0.267 OA
ATOM      9  N2  NON d   1       0.167   9.361  -0.004  0.00  0.00    -0.320 N 
ATOM     10  H11 NON d   1       0.991   8.785   0.077  0.00  0.00     0.169 HD
BRANCH   9  11
ATOM     11  C12 NON d   1      -1.072   8.646   0.042  0.00  0.00     0.069 A 
ATOM     12  C13 NON d   1      -0.975   7.232   0.013  0.00  0.00     0.045 A 
ATOM     13  C14 NON d   1      -2.108   6.384   0.056  0.00  0.00    -0.017 A 
ATOM     14  C19 NON d   1      -3.364   6.997   0.155  0.00  0.00     0.015 A 
ATOM     15  C20 NON d   1      -3.484   8.383   0.206  0.00  0.00     0.040 A 
ATOM     16  C21 NON d   1      -2.357   9.199   0.146  0.00  0.00     0.092 A 
BRANCH  13  17
ATOM     17  C15 NON d   1      -1.967   4.903  -0.004  0.00  0.00     0.015 A 
ATOM     18  C16 NON d   1      -0.819   4.122  -0.008  0.00  0.00     0.020 A 
ATOM     19  C17 NON d   1      -1.082   2.720  -0.074  0.00  0.00     0.008 A 
ATOM     20  C18 NON d   1      -2.428   2.451  -0.119  0.00  0.00     0.050 A 
ATOM     21  S1  NON d   1      -3.358   3.876  -0.091  0.00  0.00    -0.101 SA
ENDBRANCH  13  17
BRANCH  16  22
ATOM     22  O3  NON d   1      -2.657  10.525   0.247  0.00  0.00    -0.358 OA
ATOM     23  H18 NON d   1      -1.891  11.037  -0.087  0.00  0.00     0.217 HD
ENDBRANCH  16  22
ENDBRANCH   9  11
ENDBRANCH   4   7
BRANCH   1  24
ATOM     24  C6  NON d   1       5.632  13.267   0.121  0.00  0.00     0.158 C 
BRANCH  24  25
ATOM     25  N1  NON d   1       5.582  14.725   0.080  0.00  0.00    -0.386 N 
ATOM     26  H6  NON d   1       4.928  15.120   0.752  0.00  0.00     0.160 HD
BRANCH  25  27
ATOM     27  C5  NON d   1       6.745  15.498   0.006  0.00  0.00     0.031 A 
ATOM     28  C4  NON d   1       8.020  14.980  -0.238  0.00  0.00     0.032 A 
ATOM     29  C3  NON d   1       9.131  15.825  -0.366  0.00  0.00     0.042 A 
ATOM     30  C2  NON d   1       8.980  17.210  -0.282  0.00  0.00     0.101 A 
ATOM     31  C25 NON d   1       7.709  17.762  -0.121  0.00  0.00     0.103 A 
ATOM     32  C24 NON d   1       6.614  16.898   0.042  0.00  0.00     0.068 A 
BRANCH  30  33
ATOM     33  O1  NON d   1      10.105  17.978  -0.422  0.00  0.00    -0.353 OA
ATOM     34  C1  NON d   1      10.694  18.230   0.855  0.00  0.00     0.210 C 
ENDBRANCH  30  33
BRANCH  31  35
ATOM     35  O4  NON d   1       7.389  19.093  -0.063  0.00  0.00    -0.353 OA
ATOM     36  C26 NON d   1       8.208  19.975  -0.824  0.00  0.00     0.210 C 
ENDBRANCH  31  35
ENDBRANCH  25  27
ENDBRANCH  24  25
ENDBRANCH   1  24
TORSDOF 9
