REMARK  5 active torsions:
REMARK  status: ('A' for Active; 'I' for Inactive)
REMARK    1  A    between atoms: N1_1  and  C1_2 
REMARK    2  A    between atoms: C6_7  and  N2_8 
REMARK       I    between atoms: N2_8  and  C7_9 
REMARK    3  A    between atoms: C7_9  and  C8_11 
REMARK    4  A    between atoms: C11_14  and  C12_15 
REMARK    5  A    between atoms: C12_15  and  N3_16 
ROOT
ATOM      1  C8  NON d   1       0.115  -7.785   0.203  0.00  0.00     0.032 A 
ATOM      2  C9  NON d   1      -0.955  -6.947  -0.127  0.00  0.00     0.017 A 
ATOM      3  C10 NON d   1      -0.776  -5.565  -0.224  0.00  0.00     0.010 A 
ATOM      4  C11 NON d   1       0.474  -4.962   0.014  0.00  0.00    -0.040 A 
ATOM      5  C21 NON d   1       1.520  -5.794   0.424  0.00  0.00     0.010 A 
ATOM      6  C22 NON d   1       1.348  -7.193   0.507  0.00  0.00     0.017 A 
ENDROOT
BRANCH   4   7
ATOM      7  C12 NON d   1       0.549  -3.470  -0.283  0.00  0.00     0.175 C 
BRANCH   7   8
ATOM      8  N3  NON d   1       1.729  -2.659   0.023  0.00  0.00    -0.261 N 
ATOM      9  C13 NON d   1       1.450  -1.327   0.327  0.00  0.00     0.330 C 
ATOM     10  O2  NON d   1       0.318  -0.866   0.477  0.00  0.00    -0.246 OA
ATOM     11  N4  NON d   1       2.506  -0.466   0.412  0.00  0.00    -0.307 N 
ATOM     12  C14 NON d   1       3.826  -0.835   0.200  0.00  0.00     0.052 A 
ATOM     13  H12 NON d   1       2.268   0.490   0.645  0.00  0.00     0.170 HD
ATOM     14  C15 NON d   1       4.857   0.087   0.386  0.00  0.00     0.030 A 
ATOM     15  C19 NON d   1       4.101  -2.127  -0.219  0.00  0.00     0.059 A 
ATOM     16  C16 NON d   1       6.179  -0.319   0.197  0.00  0.00     0.002 A 
ATOM     17  C17 NON d   1       6.466  -1.632  -0.182  0.00  0.00     0.001 A 
ATOM     18  C18 NON d   1       5.425  -2.538  -0.408  0.00  0.00     0.019 A 
ATOM     19  C20 NON d   1       2.962  -3.008  -0.526  0.00  0.00     0.264 C 
ATOM     20  O3  NON d   1       3.157  -3.961  -1.275  0.00  0.00    -0.267 OA
ENDBRANCH   7   8
ENDBRANCH   4   7
BRANCH   1  21
ATOM     21  C7  NON d   1      -0.147  -9.264   0.186  0.00  0.00     0.256 C 
ATOM     22  N2  NON d   1       0.955 -10.095   0.184  0.00  0.00    -0.321 N 
ATOM     23  H7  NON d   1       1.887  -9.703   0.230  0.00  0.00     0.169 HD
ATOM     24  O1  NON d   1      -1.315  -9.642   0.140  0.00  0.00    -0.267 OA
BRANCH  22  25
ATOM     25  C6  NON d   1       0.975 -11.511   0.139  0.00  0.00     0.056 A 
ATOM     26  C5  NON d   1      -0.163 -12.317   0.077  0.00  0.00     0.031 A 
ATOM     27  C4  NON d   1      -0.041 -13.709   0.042  0.00  0.00     0.002 A 
ATOM     28  C3  NON d   1       1.218 -14.305   0.061  0.00  0.00     0.002 A 
ATOM     29  C2  NON d   1       2.363 -13.509   0.108  0.00  0.00     0.025 A 
ATOM     30  C1  NON d   1       2.252 -12.115   0.175  0.00  0.00     0.033 A 
BRANCH  30  31
ATOM     31  N1  NON d   1       3.414 -11.304   0.052  0.00  0.00    -0.301 NA
ATOM     32  H1  NON d   1       4.248 -11.825   0.319  0.00  0.00     0.124 HD
ATOM     33  H2  NON d   1       3.509 -11.020  -0.923  0.00  0.00     0.124 HD
ENDBRANCH  30  31
ENDBRANCH  22  25
ENDBRANCH   1  21
TORSDOF 5
