@<TRIPOS>MOLECULE
*****
 40 42 0 0 0
SMALL
USER_CHARGES

@<TRIPOS>ATOM
      1 C1          2.4682    4.5050    0.0000 C.3     1  NONAME1     0.0004
      2 N1          3.8019    3.7350    0.0000 N.pl3   1  NONAME1    -0.3360
      3 C2          5.0734    4.4366    0.0311 C.3     1  NONAME1     0.0004
      4 C3          3.7007    2.3476    0.0358 C.ar    1  NONAME1     0.0292
      5 C4          4.8084    1.4983   -0.0998 C.ar    1  NONAME1    -0.0400
      6 C5          4.6774    0.0959   -0.0921 C.ar    1  NONAME1    -0.0502
      7 C6          3.4275   -0.5073    0.0727 C.ar    1  NONAME1     0.0092
      8 C7          3.2742   -1.9634    0.0206 C.ar    1  NONAME1     0.1352
      9 N2          3.8868   -2.7671   -0.8230 N.ar    1  NONAME1    -0.1380
     10 N3          3.3955   -4.0587   -0.7598 N.ar    1  NONAME1    -0.1034
     11 C8          2.4348   -4.2051    0.1344 C.ar    1  NONAME1     0.2917
     12 N4          1.7151   -5.3246    0.4007 N.2     1  NONAME1    -0.0369
     13 C9          0.4965   -5.3431   -0.0300 C.cat   1  NONAME1     0.4689
     14 N5         -0.2167   -6.4751    0.2848 N.2     1  NONAME1    -0.0781
     15 C10        -1.4964   -6.3342    0.4154 C.2     1  NONAME1     0.1023
     16 C11        -2.1784   -5.0077    0.2792 C.3     1  NONAME1     0.1384
     17 C12        -3.6065   -5.1086   -0.1908 C.2     1  NONAME1     0.2519
     18 O1         -4.1119   -6.1365   -0.6338 O.2     1  NONAME1    -0.2725
     19 N6         -4.3336   -3.9459   -0.0533 N.am    1  NONAME1    -0.1966
     20 O2         -5.7100   -4.0443   -0.3587 O.3     1  NONAME1    -0.2952
     21 C13        -1.3367   -4.1311   -0.5949 C.2     1  NONAME1     0.1023
     22 N7         -0.0595   -4.2871   -0.7187 N.2     1  NONAME1    -0.0781
     23 S1          2.2095   -2.7798    1.0970 S.2     1  NONAME1    -0.0083
     24 C14         2.3156    0.3254    0.2176 C.ar    1  NONAME1    -0.0502
     25 C15         2.4545    1.7169    0.1991 C.ar    1  NONAME1    -0.0400
     26 H1          2.8755    5.4523    0.3943 H       1  NONAME1     0.0428
     27 H2          1.1345    5.2750    0.0000 H       1  NONAME1     0.0428
     28 H3          2.4051    4.5725   -1.1031 H       1  NONAME1     0.0428
     29 H4          5.6861    4.0903    0.8716 H       1  NONAME1     0.0428
     30 H5          5.6247    4.2794   -0.9011 H       1  NONAME1     0.0428
     31 H6          4.9458    5.5164    0.1585 H       1  NONAME1     0.0428
     32 H7          5.8043    1.9093   -0.2401 H       1  NONAME1     0.0636
     33 H8          5.5659   -0.5188   -0.2266 H       1  NONAME1     0.0625
     34 H9         -2.1009   -7.2103    0.7038 H       1  NONAME1     0.0988
     35 H10        -2.2043   -4.5630    1.2819 H       1  NONAME1     0.0540
     36 H11        -4.0758   -3.1759    0.5570 H       1  NONAME1     0.1822
     37 H12        -5.8222   -4.9927   -0.5911 H       1  NONAME1     0.2414
     38 H13        -1.8149   -3.2741   -1.0964 H       1  NONAME1     0.0988
     39 H14         1.3149   -0.0873    0.3174 H       1  NONAME1     0.0625
     40 H15         1.5442    2.2974    0.3138 H       1  NONAME1     0.0636
@<TRIPOS>BOND
     1     1     2    1
     2     2     3    1
     3     2     4    1
     4     4     5   ar
     5     5     6   ar
     6     6     7   ar
     7     7     8    1
     8     8     9   ar
     9     9    10   ar
    10    10    11   ar
    11    12    11    1
    12    12    13    2
    13    13    14    1
    14    14    15    2
    15    15    16    1
    16    16    17    1
    17    17    18    2
    18    17    19   am
    19    19    20    1
    20    16    21    1
    21    21    22    2
    22    13    22    1
    23    11    23   ar
    24     8    23   ar
    25     7    24   ar
    26    24    25   ar
    27     4    25   ar
    28     1    26    1
    29     1    27    1
    30     1    28    1
    31     3    29    1
    32     3    30    1
    33     3    31    1
    34     5    32    1
    35     6    33    1
    36    15    34    1
    37    16    35    1
    38    19    36    1
    39    20    37    1
    40    21    38    1
    41    24    39    1
    42    25    40    1
