@<TRIPOS>MOLECULE
*****
 63 67 0 0 0
SMALL
USER_CHARGES

@<TRIPOS>ATOM
      1 C1         -2.0575   -0.3006   -0.2741 C.3     1  NONAME1     0.0124
      2 C2         -0.8599   -0.5491    0.6082 C.2     1  NONAME1     0.2125
      3 O1         -0.9852   -1.2220    1.6332 O.2     1  NONAME1    -0.2759
      4 N1          0.3498   -0.0053    0.2362 N.am    1  NONAME1    -0.3011
      5 C3          0.6270    0.8107   -0.9237 C.3     1  NONAME1     0.0153
      6 C4          2.0928    1.2190   -0.8232 C.3     1  NONAME1    -0.0286
      7 C5          2.7145    0.4022    0.3368 C.3     1  NONAME1     0.0037
      8 C6          3.5754    1.3008    1.2333 C.3     1  NONAME1    -0.0430
      9 C7          4.8424    1.7030    0.5042 C.3     1  NONAME1    -0.0366
     10 C8          5.6904    0.4716    0.2419 C.3     1  NONAME1     0.0135
     11 N2          4.9638   -0.5753   -0.4848 N.pl3   1  NONAME1    -0.3146
     12 C9          5.6750   -1.8096   -0.5750 C.ar    1  NONAME1     0.1213
     13 C10         7.0761   -1.8828   -0.5597 C.ar    1  NONAME1    -0.0210
     14 C11         7.7462   -3.1237   -0.5501 C.ar    1  NONAME1    -0.0449
     15 C12         7.0062   -4.2981   -0.5892 C.ar    1  NONAME1     0.0552
     16 C13         7.5523   -5.6855   -0.5933 C.2     1  NONAME1     0.2498
     17 O2          6.7874   -6.5745   -0.9662 O.2     1  NONAME1    -0.2698
     18 N3          8.8674   -5.8829   -0.2029 N.am    1  NONAME1    -0.2799
     19 C14         9.5578   -7.1317   -0.0642 C.ar    1  NONAME1     0.0551
     20 C15        10.9721   -7.0605   -0.0953 C.ar    1  NONAME1    -0.0305
     21 C16        11.7976   -8.1998    0.0189 C.ar    1  NONAME1    -0.0094
     22 C17        13.2789   -8.0888   -0.0390 C.ar    1  NONAME1     0.0194
     23 C18        14.0802   -6.9586    0.0328 C.ar    1  NONAME1    -0.0469
     24 C19        15.4766   -7.2441   -0.0499 C.ar    1  NONAME1    -0.0541
     25 C20        15.7186   -8.5891   -0.1843 C.ar    1  NONAME1    -0.0237
     26 S1         14.2738   -9.4897   -0.2327 S.2     1  NONAME1    -0.0967
     27 C21        11.1601   -9.4325    0.2029 C.ar    1  NONAME1    -0.0517
     28 C22         9.7705   -9.5201    0.2720 C.ar    1  NONAME1    -0.0386
     29 C23         8.9497   -8.3946    0.1081 C.ar    1  NONAME1     0.0461
     30 N4          7.5864   -8.5696    0.4193 N.pl3   1  NONAME1    -0.3565
     31 C24         5.6283   -4.1492   -0.6587 C.ar    1  NONAME1     0.0418
     32 N5          4.9704   -2.9580   -0.6581 N.ar    1  NONAME1    -0.2396
     33 C25         3.5313   -0.8250   -0.1463 C.3     1  NONAME1     0.0206
     34 C26         1.4834   -0.0820    1.1293 C.3     1  NONAME1     0.0218
     35 H1         -1.8928    0.4698   -1.0270 H       1  NONAME1     0.0323
     36 H2         -2.8864    0.0319    0.3596 H       1  NONAME1     0.0323
     37 H3         -2.3358   -1.2320   -0.7734 H       1  NONAME1     0.0323
     38 H4         -0.0225    1.6935   -0.9025 H       1  NONAME1     0.0465
     39 H5          0.4124    0.2382   -1.8305 H       1  NONAME1     0.0465
     40 H6          2.1321    2.2960   -0.6140 H       1  NONAME1     0.0287
     41 H7          2.6108    1.0703   -1.7766 H       1  NONAME1     0.0287
     42 H8          3.8337    0.7708    2.1596 H       1  NONAME1     0.0272
     43 H9          3.0212    2.1990    1.5320 H       1  NONAME1     0.0272
     44 H10         4.6067    2.2110   -0.4385 H       1  NONAME1     0.0281
     45 H11         5.4099    2.4150    1.1138 H       1  NONAME1     0.0281
     46 H12         6.0608    0.0888    1.2020 H       1  NONAME1     0.0464
     47 H13         6.5519    0.8065   -0.3484 H       1  NONAME1     0.0464
     48 H14         7.6852   -0.9858   -0.5431 H       1  NONAME1     0.0652
     49 H15         8.8292   -3.1215   -0.5276 H       1  NONAME1     0.0627
     50 H16         9.4501   -5.0656   -0.0876 H       1  NONAME1     0.1552
     51 H17        11.4403   -6.0885   -0.2345 H       1  NONAME1     0.0643
     52 H18        13.6947   -5.9545    0.1521 H       1  NONAME1     0.0629
     53 H19        16.2622   -6.4995   -0.0070 H       1  NONAME1     0.0623
     54 H20        16.6756   -9.0883   -0.2615 H       1  NONAME1     0.0693
     55 H21        11.7230  -10.3530    0.3282 H       1  NONAME1     0.0624
     56 H22         9.3218  -10.4928    0.4703 H       1  NONAME1     0.0637
     57 H23         7.0178   -7.8656   -0.0604 H       1  NONAME1     0.1424
     58 H24         7.2384   -9.4916    0.1817 H       1  NONAME1     0.1424
     59 H25         4.9674   -5.0133   -0.7059 H       1  NONAME1     0.0838
     60 H26         3.4930   -1.5711    0.6587 H       1  NONAME1     0.0470
     61 H27         3.0328   -1.2596   -1.0245 H       1  NONAME1     0.0470
     62 H28         1.2609    0.5739    1.9797 H       1  NONAME1     0.0470
     63 H29         1.5803   -1.1002    1.5221 H       1  NONAME1     0.0470
@<TRIPOS>BOND
     1     1     2    1
     2     2     3    2
     3     2     4   am
     4     4     5    1
     5     5     6    1
     6     6     7    1
     7     7     8    1
     8     8     9    1
     9     9    10    1
    10    10    11    1
    11    11    12    1
    12    12    13   ar
    13    13    14   ar
    14    14    15   ar
    15    15    16    1
    16    16    17    2
    17    16    18   am
    18    18    19    1
    19    19    20   ar
    20    20    21   ar
    21    21    22    1
    22    22    23   ar
    23    23    24   ar
    24    24    25   ar
    25    25    26   ar
    26    22    26   ar
    27    21    27   ar
    28    27    28   ar
    29    28    29   ar
    30    19    29   ar
    31    29    30    1
    32    15    31   ar
    33    31    32   ar
    34    12    32   ar
    35    11    33    1
    36     7    33    1
    37     7    34    1
    38     4    34    1
    39     1    35    1
    40     1    36    1
    41     1    37    1
    42     5    38    1
    43     5    39    1
    44     6    40    1
    45     6    41    1
    46     8    42    1
    47     8    43    1
    48     9    44    1
    49     9    45    1
    50    10    46    1
    51    10    47    1
    52    13    48    1
    53    14    49    1
    54    18    50    1
    55    20    51    1
    56    23    52    1
    57    24    53    1
    58    25    54    1
    59    27    55    1
    60    28    56    1
    61    30    57    1
    62    30    58    1
    63    31    59    1
    64    33    60    1
    65    33    61    1
    66    34    62    1
    67    34    63    1
