@<TRIPOS>MOLECULE
*****
 57 58 0 0 0
SMALL
USER_CHARGES

@<TRIPOS>ATOM
      1 O1          7.0863   -7.4749   -2.9914 O.2     1  NONAME1    -0.2737
      2 C1          6.7869   -8.5917   -2.5853 C.2     1  NONAME1     0.2354
      3 C2          5.3661   -9.1016   -2.4785 C.3     1  NONAME1     0.0259
      4 C3          4.2920   -8.0425   -2.7064 C.3     1  NONAME1    -0.0447
      5 C4          3.8774   -7.2528   -1.4562 C.3     1  NONAME1    -0.0525
      6 C5          4.6547   -5.9443   -1.1217 C.3     1  NONAME1    -0.0509
      7 C6          4.1752   -5.1241    0.1691 C.3     1  NONAME1    -0.0259
      8 C7          2.6674   -4.6200    0.0000 C.3     1  NONAME1     0.1028
      9 N1          1.4082   -4.9379    0.7253 N.am    1  NONAME1    -0.2698
     10 C8          0.2477   -4.9833   -0.0391 C.2     1  NONAME1     0.4012
     11 O2          0.2417   -4.6431   -1.2140 O.2     1  NONAME1    -0.2265
     12 O3         -0.8685   -5.2605    0.6936 O.3     1  NONAME1    -0.4456
     13 C9         -2.0635   -4.6627    0.1393 C.3     1  NONAME1     0.1191
     14 C10        -3.3561   -5.4507    0.2338 C.ar    1  NONAME1    -0.0103
     15 C11        -3.4083   -6.8474    0.2187 C.ar    1  NONAME1    -0.0554
     16 C12        -4.6442   -7.5102    0.1723 C.ar    1  NONAME1    -0.0614
     17 C13        -5.8373   -6.7886    0.1286 C.ar    1  NONAME1    -0.0617
     18 C14        -5.8039   -5.3992    0.1383 C.ar    1  NONAME1    -0.0614
     19 C15        -4.5734   -4.7380    0.1852 C.ar    1  NONAME1    -0.0554
     20 C16         2.6674   -3.0800    0.0000 C.2     1  NONAME1     0.2376
     21 O4          3.7374   -2.5268   -0.2999 O.2     1  NONAME1    -0.2734
     22 N2          1.5347   -2.3135    0.1758 N.am    1  NONAME1    -0.2840
     23 C17         1.4725   -0.8962    0.1837 C.ar    1  NONAME1     0.0334
     24 C18         0.2083   -0.3011    0.1125 C.ar    1  NONAME1    -0.0405
     25 C19         0.0722    1.0945    0.0802 C.ar    1  NONAME1    -0.0600
     26 C20         1.1981    1.9118    0.1329 C.ar    1  NONAME1    -0.0616
     27 C21         2.4586    1.3351    0.2254 C.ar    1  NONAME1    -0.0600
     28 C22         2.5921   -0.0574    0.2597 C.ar    1  NONAME1    -0.0405
     29 N3          7.7056   -9.5685   -2.2521 N.am    1  NONAME1    -0.1975
     30 O5          9.0442   -9.1359   -2.1401 O.3     1  NONAME1    -0.2952
     31 H1          5.2575   -9.8722   -3.2548 H       1  NONAME1     0.0359
     32 H2          5.2237   -9.5978   -1.5116 H       1  NONAME1     0.0359
     33 H3          3.3959   -8.5958   -3.0282 H       1  NONAME1     0.0270
     34 H4          4.5405   -7.3679   -3.5314 H       1  NONAME1     0.0270
     35 H5          2.8305   -6.9909   -1.6605 H       1  NONAME1     0.0265
     36 H6          3.8813   -7.9164   -0.5819 H       1  NONAME1     0.0265
     37 H7          4.5876   -5.2777   -1.9905 H       1  NONAME1     0.0266
     38 H8          5.7116   -6.1938   -0.9839 H       1  NONAME1     0.0266
     39 H9          4.2783   -5.7449    1.0701 H       1  NONAME1     0.0288
     40 H10         4.8931   -4.3105    0.3057 H       1  NONAME1     0.0288
     41 H11         2.6674   -6.1600    0.0000 H       1  NONAME1     0.0596
     42 H12         1.3935   -5.2667    1.6819 H       1  NONAME1     0.1528
     43 H13        -1.9528   -4.3847   -0.9158 H       1  NONAME1     0.0749
     44 H14        -2.2007   -3.7346    0.7080 H       1  NONAME1     0.0749
     45 H15        -2.4944   -7.4347    0.2174 H       1  NONAME1     0.0621
     46 H16        -4.6785   -8.5977    0.1498 H       1  NONAME1     0.0618
     47 H17        -6.7920   -7.3086    0.0817 H       1  NONAME1     0.0618
     48 H18        -6.7299   -4.8307    0.0910 H       1  NONAME1     0.0618
     49 H19        -4.5703   -3.6497    0.1536 H       1  NONAME1     0.0621
     50 H20         0.6530   -2.7928    0.1185 H       1  NONAME1     0.1549
     51 H21        -0.6877   -0.9136    0.0600 H       1  NONAME1     0.0636
     52 H22        -0.9172    1.5399    0.0151 H       1  NONAME1     0.0618
     53 H23         1.0937    2.9915    0.0968 H       1  NONAME1     0.0618
     54 H24         3.3472    1.9616    0.2624 H       1  NONAME1     0.0618
     55 H25         3.6010   -0.4493    0.3435 H       1  NONAME1     0.0636
     56 H26         7.4492  -10.3526   -1.6620 H       1  NONAME1     0.1822
     57 H27         9.2924   -8.9962   -3.0744 H       1  NONAME1     0.2414
@<TRIPOS>BOND
     1     1     2    2
     2     2     3    1
     3     3     4    1
     4     4     5    1
     5     5     6    1
     6     6     7    1
     7     8     7    1
     8     8     9    1
     9     9    10   am
    10    10    11    2
    11    10    12    1
    12    12    13    1
    13    13    14    1
    14    14    15   ar
    15    15    16   ar
    16    16    17   ar
    17    17    18   ar
    18    18    19   ar
    19    14    19   ar
    20     8    20    1
    21    20    21    2
    22    20    22   am
    23    22    23    1
    24    23    24   ar
    25    24    25   ar
    26    25    26   ar
    27    26    27   ar
    28    27    28   ar
    29    23    28   ar
    30     2    29   am
    31    29    30    1
    32     3    31    1
    33     3    32    1
    34     4    33    1
    35     4    34    1
    36     5    35    1
    37     5    36    1
    38     6    37    1
    39     6    38    1
    40     7    39    1
    41     7    40    1
    42     8    41    1
    43     9    42    1
    44    13    43    1
    45    13    44    1
    46    15    45    1
    47    16    46    1
    48    17    47    1
    49    18    48    1
    50    19    49    1
    51    22    50    1
    52    24    51    1
    53    25    52    1
    54    26    53    1
    55    27    54    1
    56    28    55    1
    57    29    56    1
    58    30    57    1
