@<TRIPOS>MOLECULE
*****
 49 53 0 0 0
SMALL
USER_CHARGES

@<TRIPOS>ATOM
      1 O1        -10.1696   -9.0262    0.0277 O.2     1  NONAME1    -0.2680
      2 C1         -9.1430   -9.7009    0.0858 C.2     1  NONAME1     0.2694
      3 N1         -9.1932  -11.0757    0.0753 N.am    1  NONAME1    -0.1934
      4 O2        -10.4866  -11.6432   -0.0130 O.3     1  NONAME1    -0.2949
      5 C2         -7.8260   -9.0382    0.1641 C.ar    1  NONAME1     0.0749
      6 C3         -7.7432   -7.6644    0.1392 C.ar    1  NONAME1     0.0448
      7 N2         -6.5772   -6.9679    0.1996 N.ar    1  NONAME1    -0.2220
      8 C4         -5.4317   -7.6624    0.2895 C.ar    1  NONAME1     0.2178
      9 N3         -4.2336   -6.9694    0.3452 N.pl3   1  NONAME1    -0.2987
     10 C5         -4.2272   -5.6029   -0.1601 C.3     1  NONAME1     0.0233
     11 C6         -2.7813   -5.3540   -0.5209 C.3     1  NONAME1     0.0274
     12 C7         -2.0300   -6.6365   -0.3566 C.3     1  NONAME1     0.0274
     13 C8         -3.0060   -7.7020    0.0816 C.3     1  NONAME1     0.0233
     14 C9         -1.6916   -5.4489    0.5107 C.3     1  NONAME1    -0.0126
     15 N4         -0.4059   -4.7400    0.2322 N.4     1  NONAME1     0.2340
     16 C10         0.6708   -5.0566    1.2304 C.3     1  NONAME1     0.0099
     17 C11         1.9482   -4.2368    1.1501 C.ar    1  NONAME1     0.0863
     18 C12         2.8866   -4.4210    2.1619 C.ar    1  NONAME1    -0.0346
     19 C13         4.0705   -3.6966    2.1281 C.ar    1  NONAME1    -0.0506
     20 C14         4.3072   -2.8076    1.0781 C.ar    1  NONAME1     0.0031
     21 C15         5.5072   -2.0777    1.0317 C.ar    1  NONAME1    -0.0173
     22 C16         5.7387   -1.2022   -0.0160 C.ar    1  NONAME1     0.1241
     23 F1          6.8830   -0.5097   -0.0589 F       1  NONAME1    -0.2055
     24 C17         4.7933   -1.0444   -1.0144 C.ar    1  NONAME1    -0.0244
     25 C18         3.5948   -1.7757   -0.9596 C.ar    1  NONAME1    -0.0330
     26 C19         3.3138   -2.6702    0.0763 C.ar    1  NONAME1     0.0717
     27 N5          2.1428   -3.3742    0.1138 N.ar    1  NONAME1    -0.2463
     28 N6         -5.4175   -9.0079    0.3332 N.ar    1  NONAME1    -0.2220
     29 C20        -6.6080   -9.6643    0.2671 C.ar    1  NONAME1     0.0448
     30 H1         -8.4235  -11.7321    0.0854 H       1  NONAME1     0.1825
     31 H2        -11.0671  -10.8499   -0.0372 H       1  NONAME1     0.2414
     32 H3         -8.6376   -7.0484    0.0661 H       1  NONAME1     0.0839
     33 H4         -4.8458   -5.4854   -1.0573 H       1  NONAME1     0.0469
     34 H5         -4.5625   -4.9010    0.6114 H       1  NONAME1     0.0469
     35 H6         -2.6540   -4.7682   -1.4180 H       1  NONAME1     0.0376
     36 H7         -1.3652   -6.9655   -1.1408 H       1  NONAME1     0.0376
     37 H8         -2.6506   -8.2094    0.9849 H       1  NONAME1     0.0469
     38 H9         -3.1218   -8.4337   -0.7265 H       1  NONAME1     0.0469
     39 H10        -2.0156   -5.4651    1.5516 H       1  NONAME1     0.0857
     40 H11        -0.0425   -4.9438   -0.7085 H       1  NONAME1     0.2020
     41 H12        -0.5425   -3.7189    0.2409 H       1  NONAME1     0.2020
     42 H13         0.2230   -4.8986    2.2177 H       1  NONAME1     0.0882
     43 H14         0.9112   -6.1169    1.0987 H       1  NONAME1     0.0882
     44 H15         2.7158   -5.1133    2.9812 H       1  NONAME1     0.0638
     45 H16         4.8070   -3.8323    2.9157 H       1  NONAME1     0.0625
     46 H17         6.2690   -2.1821    1.8008 H       1  NONAME1     0.0653
     47 H18         4.9941   -0.3546   -1.8311 H       1  NONAME1     0.0647
     48 H19         2.8687   -1.6364   -1.7558 H       1  NONAME1     0.0640
     49 H20        -6.5102  -10.7442    0.3006 H       1  NONAME1     0.0839
@<TRIPOS>BOND
     1     1     2    2
     2     2     3   am
     3     3     4    1
     4     2     5    1
     5     5     6   ar
     6     6     7   ar
     7     7     8   ar
     8     8     9    1
     9     9    10    1
    10    11    10    1
    11    11    12    1
    12    12    13    1
    13     9    13    1
    14    12    14    1
    15    11    14    1
    16    14    15    1
    17    15    16    1
    18    16    17    1
    19    17    18   ar
    20    18    19   ar
    21    19    20   ar
    22    20    21   ar
    23    21    22   ar
    24    22    23    1
    25    22    24   ar
    26    24    25   ar
    27    25    26   ar
    28    20    26   ar
    29    26    27   ar
    30    17    27   ar
    31     8    28   ar
    32    28    29   ar
    33     5    29   ar
    34     3    30    1
    35     4    31    1
    36     6    32    1
    37    10    33    1
    38    10    34    1
    39    11    35    1
    40    12    36    1
    41    13    37    1
    42    13    38    1
    43    14    39    1
    44    15    40    1
    45    15    41    1
    46    16    42    1
    47    16    43    1
    48    18    44    1
    49    19    45    1
    50    21    46    1
    51    24    47    1
    52    25    48    1
    53    29    49    1
