REMARK  12 active torsions:
REMARK  status: ('A' for Active; 'I' for Inactive)
REMARK    1  A    between atoms: C2_2  and  O1_3 
REMARK    2  A    between atoms: O1_3  and  P1_4 
REMARK    3  A    between atoms: P1_4  and  C3_6 
REMARK    4  A    between atoms: P1_4  and  O4_30 
REMARK    5  A    between atoms: C3_6  and  N1_7 
REMARK    6  A    between atoms: N1_7  and  C4_8 
REMARK    7  A    between atoms: C4_8  and  C5_9 
REMARK    8  A    between atoms: C8_12  and  C9_13 
REMARK       I    between atoms: C9_13  and  N2_15 
REMARK    9  A    between atoms: N2_15  and  C10_16 
REMARK   10  A    between atoms: C12_18  and  C13_19 
REMARK   11  A    between atoms: C19_26  and  N3_27 
REMARK   12  A    between atoms: O4_30  and  C22_31 
ROOT
ATOM      1  C5  NON d   1       3.900  12.743  -0.096  0.00  0.00    -0.030 A 
ATOM      2  C6  NON d   1       3.951  11.330  -0.123  0.00  0.00     0.010 A 
ATOM      3  C7  NON d   1       2.782  10.533  -0.173  0.00  0.00     0.017 A 
ATOM      4  C8  NON d   1       1.528  11.143  -0.189  0.00  0.00     0.032 A 
ATOM      5  C20 NON d   1       1.472  12.545  -0.112  0.00  0.00     0.017 A 
ATOM      6  C21 NON d   1       2.631  13.330  -0.061  0.00  0.00     0.010 A 
ENDROOT
BRANCH   4   7
ATOM      7  C9  NON d   1       0.216  10.445  -0.384  0.00  0.00     0.256 C 
ATOM      8  O3  NON d   1      -0.661  11.104  -0.944  0.00  0.00    -0.267 OA
ATOM      9  N2  NON d   1       0.053   9.134   0.043  0.00  0.00    -0.321 N 
ATOM     10  H13 NON d   1       0.883   8.611   0.280  0.00  0.00     0.169 HD
BRANCH   9  11
ATOM     11  C10 NON d   1      -1.184   8.399   0.052  0.00  0.00     0.057 A 
ATOM     12  C11 NON d   1      -1.089   6.984   0.045  0.00  0.00     0.044 A 
ATOM     13  C12 NON d   1      -2.229   6.142   0.032  0.00  0.00    -0.017 A 
ATOM     14  C17 NON d   1      -3.482   6.764   0.061  0.00  0.00     0.014 A 
ATOM     15  C18 NON d   1      -3.599   8.150   0.116  0.00  0.00     0.026 A 
ATOM     16  C19 NON d   1      -2.474   8.983   0.081  0.00  0.00     0.033 A 
BRANCH  13  17
ATOM     17  C13 NON d   1      -2.112   4.657   0.001  0.00  0.00     0.015 A 
ATOM     18  C14 NON d   1      -0.979   3.856  -0.016  0.00  0.00     0.020 A 
ATOM     19  C15 NON d   1      -1.269   2.456  -0.036  0.00  0.00     0.008 A 
ATOM     20  C16 NON d   1      -2.619   2.208  -0.039  0.00  0.00     0.050 A 
ATOM     21  S1  NON d   1      -3.522   3.650  -0.020  0.00  0.00    -0.101 SA
ENDBRANCH  13  17
BRANCH  16  22
ATOM     22  N3  NON d   1      -2.712  10.346   0.367  0.00  0.00    -0.301 NA
ATOM     23  H20 NON d   1      -1.981  10.921  -0.064  0.00  0.00     0.124 HD
ATOM     24  H21 NON d   1      -3.614  10.666   0.032  0.00  0.00     0.124 HD
ENDBRANCH  16  22
ENDBRANCH   9  11
ENDBRANCH   4   7
BRANCH   1  25
ATOM     25  C4  NON d   1       5.206  13.556  -0.069  0.00  0.00     0.308 C 
BRANCH  25  26
ATOM     26  N1  NON d   1       5.065  14.986  -0.407  0.00  0.00     0.098 N 
ATOM     27  H8  NON d   1       4.259  15.345   0.094  0.00  0.00     0.317 HD
BRANCH  26  28
ATOM     28  C3  NON d   1       6.203  15.841   0.016  0.00  0.00     0.401 C 
BRANCH  28  29
ATOM     29  P1  NON d   1       7.844  15.646  -1.196  0.00  0.00     0.356 P 
ATOM     30  O2  NON d   1       7.934  14.139  -0.893  0.00  0.00    -0.257 OA
BRANCH  29  31
ATOM     31  O1  NON d   1       7.020  15.434  -2.623  0.00  0.00    -0.313 OA
BRANCH  31  32
ATOM     32  C2  NON d   1       7.781  15.098  -3.769  0.00  0.00     0.174 C 
ATOM     33  C1  NON d   1       7.492  13.664  -4.164  0.00  0.00     0.034 C 
ENDBRANCH  31  32
ENDBRANCH  29  31
BRANCH  29  34
ATOM     34  O4  NON d   1       7.754  17.154  -1.499  0.00  0.00    -0.313 OA
BRANCH  34  35
ATOM     35  C22 NON d   1       8.548  18.029  -0.717  0.00  0.00     0.174 C 
ATOM     36  C23 NON d   1       8.033  19.447  -0.848  0.00  0.00     0.034 C 
ENDBRANCH  34  35
ENDBRANCH  29  34
ENDBRANCH  28  29
ENDBRANCH  26  28
ENDBRANCH  25  26
ENDBRANCH   1  25
TORSDOF 12
