REMARK  12 active torsions:
REMARK  status: ('A' for Active; 'I' for Inactive)
REMARK    1  A    between atoms: C2_2  and  C4_4 
REMARK    2  A    between atoms: C4_4  and  C5_5 
REMARK    3  A    between atoms: C5_5  and  C6_6 
REMARK    4  A    between atoms: C7_7  and  O1_8 
REMARK    5  A    between atoms: O1_8  and  C8_9 
REMARK    6  A    between atoms: C8_9  and  C9_10 
REMARK    7  A    between atoms: C9_10  and  C10_11 
REMARK    8  A    between atoms: C10_11  and  C11_12 
REMARK    9  A    between atoms: C11_12  and  C12_13 
REMARK   10  A    between atoms: C12_13  and  C13_14 
REMARK   11  A    between atoms: C13_14  and  C14_15 
REMARK       I    between atoms: C14_15  and  N1_17 
REMARK   12  A    between atoms: N1_17  and  O3_18 
ROOT
ATOM      1  C6  NON d   1       4.145  -0.875   0.083  0.00  0.00     0.010 A 
ATOM      2  C7  NON d   1       4.262  -2.290   0.014  0.00  0.00     0.077 A 
ATOM      3  C15 NON d   1       3.092  -3.068  -0.101  0.00  0.00     0.038 A 
ATOM      4  C16 NON d   1       1.819  -2.499  -0.158  0.00  0.00     0.017 A 
ATOM      5  C17 NON d   1       1.681  -1.120  -0.097  0.00  0.00    -0.001 A 
ATOM      6  C18 NON d   1       0.369  -0.489  -0.156  0.00  0.00     0.020 A 
ATOM      7  C19 NON d   1       0.259   0.842  -0.100  0.00  0.00     0.083 A 
ATOM      8  C20 NON d   1       1.434   1.712   0.033  0.00  0.00     0.288 A 
ATOM      9  O4  NON d   1       1.321   2.932   0.066  0.00  0.00    -0.260 OA
ATOM     10  O5  NON d   1       2.662   1.072   0.109  0.00  0.00    -0.274 OA
ATOM     11  C21 NON d   1       2.833  -0.335   0.027  0.00  0.00     0.098 A 
ENDROOT
BRANCH   2  12
ATOM     12  O1  NON d   1       5.367  -3.114   0.064  0.00  0.00    -0.350 OA
BRANCH  12  13
ATOM     13  C8  NON d   1       6.694  -2.603   0.041  0.00  0.00     0.175 C 
BRANCH  13  14
ATOM     14  C9  NON d   1       7.743  -3.700   0.249  0.00  0.00     0.027 C 
BRANCH  14  15
ATOM     15  C10 NON d   1       8.249  -4.356  -1.041  0.00  0.00     0.002 C 
BRANCH  15  16
ATOM     16  C11 NON d   1       7.367  -5.504  -1.521  0.00  0.00     0.001 C 
BRANCH  16  17
ATOM     17  C12 NON d   1       7.885  -6.175  -2.803  0.00  0.00     0.009 C 
BRANCH  17  18
ATOM     18  C13 NON d   1       9.126  -7.051  -2.609  0.00  0.00     0.105 C 
BRANCH  18  19
ATOM     19  C14 NON d   1      10.467  -6.344  -2.731  0.00  0.00     0.240 C 
ATOM     20  O2  NON d   1      10.603  -5.200  -3.155  0.00  0.00    -0.271 OA
ATOM     21  N1  NON d   1      11.514  -7.180  -2.382  0.00  0.00    -0.237 N 
ATOM     22  H24 NON d   1      11.350  -7.948  -1.740  0.00  0.00     0.197 HD
BRANCH  21  23
ATOM     23  O3  NON d   1      12.775  -6.556  -2.255  0.00  0.00    -0.287 OA
ATOM     24  H25 NON d   1      13.130  -6.621  -3.162  0.00  0.00     0.244 HD
ENDBRANCH  21  23
ENDBRANCH  18  19
ENDBRANCH  17  18
ENDBRANCH  16  17
ENDBRANCH  15  16
ENDBRANCH  14  15
ENDBRANCH  13  14
ENDBRANCH  12  13
ENDBRANCH   2  12
BRANCH   1  25
ATOM     25  C5  NON d   1       5.354   0.017   0.280  0.00  0.00     0.044 C 
BRANCH  25  26
ATOM     26  C4  NON d   1       5.335   1.540   0.000  0.00  0.00     0.009 C 
BRANCH  26  27
ATOM     27  C2  NON d   1       6.668   2.310  -0.018  0.00  0.00    -0.023 C 
ATOM     28  C1  NON d   1       7.486   1.419  -1.060  0.00  0.00     0.009 C 
ATOM     29  C3  NON d   1       7.073   2.166   1.514  0.00  0.00     0.009 C 
ENDBRANCH  26  27
ENDBRANCH  25  26
ENDBRANCH   1  25
TORSDOF 12
