REMARK  5 active torsions:
REMARK  status: ('A' for Active; 'I' for Inactive)
REMARK    1  A    between atoms: C1_2  and  C2_3 
REMARK       I    between atoms: C1_2  and  N1_12 
REMARK    2  A    between atoms: C2_3  and  C3_4 
REMARK    3  A    between atoms: C3_4  and  C4_5 
REMARK    4  A    between atoms: C4_5  and  C5_6 
REMARK    5  A    between atoms: N1_12  and  O2_13 
ROOT
ATOM      1  C3  NON d   1       2.589  -1.173   0.204  0.00  0.00     0.014 C 
ENDROOT
BRANCH   1   2
ATOM      2  C2  NON d   1       2.956  -0.913   1.664  0.00  0.00     0.105 C 
BRANCH   2   3
ATOM      3  C1  NON d   1       2.237   0.266   2.278  0.00  0.00     0.240 C 
ATOM      4  O1  NON d   1       1.121   0.191   2.783  0.00  0.00    -0.271 OA
ATOM      5  N1  NON d   1       2.941   1.450   2.234  0.00  0.00    -0.237 N 
ATOM      6  H12 NON d   1       3.955   1.458   2.220  0.00  0.00     0.197 HD
BRANCH   5   7
ATOM      7  O2  NON d   1       2.336   2.515   2.950  0.00  0.00    -0.287 OA
ATOM      8  H13 NON d   1       1.494   2.111   3.259  0.00  0.00     0.244 HD
ENDBRANCH   5   7
ENDBRANCH   2   3
ENDBRANCH   1   2
BRANCH   1   9
ATOM      9  C4  NON d   1       1.317  -2.018   0.016  0.00  0.00     0.039 C 
BRANCH   9  10
ATOM     10  C5  NON d   1      -0.032  -1.341  -0.039  0.00  0.00    -0.058 A 
ATOM     11  C6  NON d   1      -1.177  -2.125   0.181  0.00  0.00     0.007 A 
ATOM     12  C7  NON d   1      -2.460  -1.587   0.060  0.00  0.00     0.001 A 
ATOM     13  C8  NON d   1      -2.621  -0.250  -0.291  0.00  0.00     0.000 A 
ATOM     14  C9  NON d   1      -1.499   0.542  -0.522  0.00  0.00     0.001 A 
ATOM     15  C10 NON d   1      -0.215  -0.000  -0.406  0.00  0.00     0.007 A 
ENDBRANCH   9  10
ENDBRANCH   1   9
TORSDOF 5
