@<TRIPOS>MOLECULE
*****
 63 63 0 0 0
SMALL
USER_CHARGES

@<TRIPOS>ATOM
      1 C1          3.4099    5.2079    1.0754 C.3     1  NONAME1    -0.0605
      2 C2          3.5895    4.4499   -0.2506 C.3     1  NONAME1    -0.0197
      3 C3          2.3652    4.6795   -1.1415 C.3     1  NONAME1    -0.0605
      4 C4          3.9313    2.9357   -0.0908 C.3     1  NONAME1     0.1017
      5 N1          5.1026    2.6922    0.7761 N.am    1  NONAME1    -0.3022
      6 C5          6.3739    2.9396    0.2808 C.2     1  NONAME1     0.2337
      7 O1          6.7612    4.0836    0.0685 O.2     1  NONAME1    -0.2738
      8 C6          7.1534    1.6694   -0.1346 C.3     1  NONAME1     0.0966
      9 C7          8.6483    1.8424    0.0957 C.3     1  NONAME1    -0.0381
     10 N2          6.6021    0.4880    0.5300 N.am    1  NONAME1    -0.3028
     11 C8          6.9057   -0.7521    0.0074 C.2     1  NONAME1     0.2337
     12 O2          8.0508   -1.1898   -0.0281 O.2     1  NONAME1    -0.2738
     13 C9          5.7118   -1.6062   -0.4688 C.3     1  NONAME1     0.0966
     14 C10         4.5289   -0.7466   -0.8988 C.3     1  NONAME1    -0.0381
     15 N3          5.3543   -2.5858    0.5464 N.am    1  NONAME1    -0.3042
     16 C11         4.2771   -3.4007    0.2106 C.2     1  NONAME1     0.2175
     17 O3          4.3205   -4.1539   -0.7520 O.2     1  NONAME1    -0.2757
     18 C12         3.1340   -3.2812    1.1880 C.3     1  NONAME1     0.0647
     19 C13         1.7685   -2.9002    0.6004 C.3     1  NONAME1     0.1295
     20 C14         1.0457   -3.8955   -0.2889 C.2     1  NONAME1    -0.0474
     21 C15         1.3691   -5.1912   -0.4664 C.2     1  NONAME1    -0.0837
     22 C16         0.4148   -6.2778   -0.9153 C.3     1  NONAME1    -0.0258
     23 C17        -1.0134   -6.0512   -0.4070 C.3     1  NONAME1    -0.0059
     24 S1         -2.0428   -7.5395   -0.5139 S.3     1  NONAME1    -0.1779
     25 O4          1.7884   -1.5506    0.0517 O.3     1  NONAME1    -0.4556
     26 C18         0.6693   -0.8074    0.2924 C.2     1  NONAME1     0.3250
     27 O5         -0.3879   -1.2824    0.7035 O.2     1  NONAME1    -0.2491
     28 C19         0.7822    0.6931   -0.0209 C.3     1  NONAME1     0.1091
     29 N4          2.0306    1.3546   -0.4044 N.am    1  NONAME1    -0.3033
     30 C20         2.7622    2.0987    0.5033 C.2     1  NONAME1     0.2341
     31 O6          2.5160    2.0853    1.7079 O.2     1  NONAME1    -0.2738
     32 H1          2.9762    6.1978    0.9094 H       1  NONAME1     0.0233
     33 H2          4.3751    5.3619    1.5672 H       1  NONAME1     0.0233
     34 H3          2.7553    4.6725    1.7691 H       1  NONAME1     0.0233
     35 H4          4.4339    4.9296   -0.7639 H       1  NONAME1     0.0318
     36 H5          2.4899    4.1876   -2.1108 H       1  NONAME1     0.0233
     37 H6          1.4471    4.3096   -0.6750 H       1  NONAME1     0.0233
     38 H7          2.2277    5.7508   -1.3332 H       1  NONAME1     0.0233
     39 H8          4.1822    2.5372   -1.0822 H       1  NONAME1     0.0597
     40 H9          4.9686    3.2381    1.6213 H       1  NONAME1     0.1495
     41 H10         6.9730    1.5372   -1.2092 H       1  NONAME1     0.0592
     42 H11         9.2159    1.0042   -0.3208 H       1  NONAME1     0.0252
     43 H12         8.8771    1.9035    1.1644 H       1  NONAME1     0.0252
     44 H13         9.0189    2.7545   -0.3833 H       1  NONAME1     0.0252
     45 H14         5.6564    0.6336    0.8675 H       1  NONAME1     0.1495
     46 H15         6.0639   -2.1481   -1.3521 H       1  NONAME1     0.0592
     47 H16         4.8387    0.1056   -1.5030 H       1  NONAME1     0.0252
     48 H17         4.0034   -0.3745   -0.0164 H       1  NONAME1     0.0252
     49 H18         3.8229   -1.3303   -1.4943 H       1  NONAME1     0.0252
     50 H19         6.1717   -3.1805    0.6579 H       1  NONAME1     0.1494
     51 H20         3.0679   -4.2355    1.7237 H       1  NONAME1     0.0398
     52 H21         3.3984   -2.5235    1.9367 H       1  NONAME1     0.0398
     53 H22         1.1300   -2.8617    1.4933 H       1  NONAME1     0.0784
     54 H23         0.0734   -3.5525   -0.6388 H       1  NONAME1     0.0605
     55 H24         2.3288   -5.5744   -0.1251 H       1  NONAME1     0.0570
     56 H25         0.7947   -7.2175   -0.4873 H       1  NONAME1     0.0315
     57 H26         0.4447   -6.3923   -2.0045 H       1  NONAME1     0.0315
     58 H27        -1.5044   -5.2600   -0.9807 H       1  NONAME1     0.0377
     59 H28        -0.9999   -5.7423    0.6457 H       1  NONAME1     0.0377
     60 H29        -3.1227   -6.9899    0.0631 H       1  NONAME1     0.1016
     61 H30         0.3929    1.2100    0.8652 H       1  NONAME1     0.0577
     62 H31         0.0912    0.8874   -0.8487 H       1  NONAME1     0.0577
     63 H32         2.2797    1.3551   -1.3840 H       1  NONAME1     0.1493
@<TRIPOS>BOND
     1     1     2    1
     2     2     3    1
     3     4     2    1
     4     4     5    1
     5     5     6   am
     6     6     7    2
     7     8     6    1
     8     8     9    1
     9     8    10    1
    10    10    11   am
    11    11    12    2
    12    13    11    1
    13    13    14    1
    14    13    15    1
    15    15    16   am
    16    16    17    2
    17    16    18    1
    18    19    18    1
    19    19    20    1
    20    20    21    2
    21    21    22    1
    22    22    23    1
    23    23    24    1
    24    19    25    1
    25    25    26    1
    26    26    27    2
    27    26    28    1
    28    28    29    1
    29    29    30   am
    30     4    30    1
    31    30    31    2
    32     1    32    1
    33     1    33    1
    34     1    34    1
    35     2    35    1
    36     3    36    1
    37     3    37    1
    38     3    38    1
    39     4    39    1
    40     5    40    1
    41     8    41    1
    42     9    42    1
    43     9    43    1
    44     9    44    1
    45    10    45    1
    46    13    46    1
    47    14    47    1
    48    14    48    1
    49    14    49    1
    50    15    50    1
    51    18    51    1
    52    18    52    1
    53    19    53    1
    54    20    54    1
    55    21    55    1
    56    22    56    1
    57    22    57    1
    58    23    58    1
    59    23    59    1
    60    24    60    1
    61    28    61    1
    62    28    62    1
    63    29    63    1
