@<TRIPOS>MOLECULE
*****
 49 51 0 0 0
SMALL
USER_CHARGES

@<TRIPOS>ATOM
      1 C1          5.0810  -14.7636    0.0718 C.3     1  NONAME1    -0.0305
      2 C2          6.1956  -13.7353    0.0352 C.3     1  NONAME1     0.0912
      3 O1          7.4522  -14.4228   -0.0361 O.3     1  NONAME1    -0.4507
      4 C3          8.5191  -13.6054   -0.2117 C.2     1  NONAME1     0.4005
      5 O2          8.4685  -12.3912   -0.3394 O.2     1  NONAME1    -0.2265
      6 N1          9.6662  -14.3447   -0.1770 N.am    1  NONAME1    -0.2770
      7 C4         10.9466  -13.6851   -0.1006 C.3     1  NONAME1     0.0400
      8 C5         12.1709  -14.5761   -0.0793 C.ar    1  NONAME1    -0.0302
      9 C6         13.4376  -13.9592   -0.0443 C.ar    1  NONAME1    -0.0564
     10 C7         14.6237  -14.7067    0.0509 C.ar    1  NONAME1    -0.0493
     11 C8         14.5658  -16.1001    0.1101 C.ar    1  NONAME1     0.0370
     12 C9         15.7574  -16.9909    0.2885 C.2     1  NONAME1     0.2483
     13 O3         15.5492  -18.1046    0.7672 O.2     1  NONAME1    -0.2699
     14 N2         17.0028  -16.4978   -0.0668 N.am    1  NONAME1    -0.2799
     15 C10        18.2512  -17.1990   -0.0602 C.ar    1  NONAME1     0.0551
     16 C11        19.4127  -16.3877   -0.0329 C.ar    1  NONAME1    -0.0305
     17 C12        20.7191  -16.9248   -0.0257 C.ar    1  NONAME1    -0.0094
     18 C13        21.9174  -16.0442    0.0253 C.ar    1  NONAME1     0.0194
     19 C14        21.9996  -14.6593   -0.0187 C.ar    1  NONAME1    -0.0469
     20 C15        23.3380  -14.1642    0.0470 C.ar    1  NONAME1    -0.0541
     21 C16        24.2576  -15.1793    0.1428 C.ar    1  NONAME1    -0.0237
     22 S1         23.5091  -16.7084    0.1651 S.2     1  NONAME1    -0.0967
     23 C17        20.8320  -18.3178   -0.0848 C.ar    1  NONAME1    -0.0517
     24 C18        19.7014  -19.1329   -0.1447 C.ar    1  NONAME1    -0.0386
     25 C19        18.4061  -18.6018   -0.0970 C.ar    1  NONAME1     0.0461
     26 N3         17.3578  -19.5005   -0.3808 N.pl3   1  NONAME1    -0.3565
     27 C20        13.3068  -16.7201    0.0533 C.ar    1  NONAME1    -0.0493
     28 C21        12.1265  -15.9724   -0.0447 C.ar    1  NONAME1    -0.0564
     29 H1          4.1074  -14.2776    0.1848 H       1  NONAME1     0.0262
     30 H2          5.0728  -15.3544   -0.8501 H       1  NONAME1     0.0262
     31 H3          5.2249  -15.4650    0.9000 H       1  NONAME1     0.0262
     32 H4          6.0652  -13.0855   -0.8377 H       1  NONAME1     0.0695
     33 H5          6.1697  -13.1327    0.9500 H       1  NONAME1     0.0695
     34 H6          9.5354  -15.2832    0.1664 H       1  NONAME1     0.1523
     35 H7         11.0152  -12.9965   -0.9515 H       1  NONAME1     0.0513
     36 H8         10.9397  -13.0852    0.8181 H       1  NONAME1     0.0513
     37 H9         13.5066  -12.8716   -0.0692 H       1  NONAME1     0.0621
     38 H10        15.5617  -14.1666    0.1151 H       1  NONAME1     0.0625
     39 H11        17.0678  -15.5175   -0.2924 H       1  NONAME1     0.1552
     40 H12        19.2879  -15.3097    0.0055 H       1  NONAME1     0.0643
     41 H13        21.1401  -14.0074   -0.1003 H       1  NONAME1     0.0629
     42 H14        23.6106  -13.1163    0.0224 H       1  NONAME1     0.0623
     43 H15        25.3348  -15.0988    0.2028 H       1  NONAME1     0.0693
     44 H16        21.7985  -18.8135   -0.1125 H       1  NONAME1     0.0624
     45 H17        19.8420  -20.2069   -0.2455 H       1  NONAME1     0.0637
     46 H18        16.4800  -19.1606    0.0261 H       1  NONAME1     0.1424
     47 H19        17.5356  -20.4402   -0.0454 H       1  NONAME1     0.1424
     48 H20        13.2340  -17.8065    0.0996 H       1  NONAME1     0.0625
     49 H21        11.1880  -16.5172   -0.0784 H       1  NONAME1     0.0621
@<TRIPOS>BOND
     1     1     2    1
     2     2     3    1
     3     3     4    1
     4     4     5    2
     5     4     6   am
     6     6     7    1
     7     7     8    1
     8     8     9   ar
     9     9    10   ar
    10    10    11   ar
    11    11    12    1
    12    12    13    2
    13    12    14   am
    14    14    15    1
    15    15    16   ar
    16    16    17   ar
    17    17    18    1
    18    18    19   ar
    19    19    20   ar
    20    20    21   ar
    21    21    22   ar
    22    18    22   ar
    23    17    23   ar
    24    23    24   ar
    25    24    25   ar
    26    15    25   ar
    27    25    26    1
    28    11    27   ar
    29    27    28   ar
    30     8    28   ar
    31     1    29    1
    32     1    30    1
    33     1    31    1
    34     2    32    1
    35     2    33    1
    36     6    34    1
    37     7    35    1
    38     7    36    1
    39     9    37    1
    40    10    38    1
    41    14    39    1
    42    16    40    1
    43    19    41    1
    44    20    42    1
    45    21    43    1
    46    23    44    1
    47    24    45    1
    48    26    46    1
    49    26    47    1
    50    27    48    1
    51    28    49    1
