@<TRIPOS>MOLECULE
*****
 55 58 0 0 0
SMALL
USER_CHARGES

@<TRIPOS>ATOM
      1 O1         15.1694  -13.1758   -1.9795 O.co2   1  NONAME1    -0.2464
      2 C1         16.3043  -13.1945   -2.5333 C.2     1  NONAME1     0.3560
      3 O2         16.8814  -14.1416   -3.1356 O.co2   1  NONAME1    -0.2464
      4 C2         17.0597  -11.8651   -2.4775 C.3     1  NONAME1     0.0492
      5 C3         18.5524  -11.8399   -2.8198 C.3     1  NONAME1    -0.0428
      6 C4         19.4791  -12.1456   -1.6318 C.3     1  NONAME1    -0.0525
      7 C5         19.7758  -13.6342   -1.4031 C.3     1  NONAME1    -0.0510
      8 C6         20.2589  -13.9656    0.0209 C.3     1  NONAME1    -0.0274
      9 C7         21.7310  -13.6800    0.4196 C.3     1  NONAME1     0.0813
     10 N1         22.1905  -12.3453    0.0918 N.am    1  NONAME1    -0.3011
     11 C8         21.6287  -11.2408    0.6978 C.2     1  NONAME1     0.2528
     12 O3         20.7552  -11.3551    1.5557 O.2     1  NONAME1    -0.2696
     13 C9         22.0785   -9.9426    0.2510 C.ar    1  NONAME1     0.0932
     14 C10        21.3363   -8.7755    0.2392 C.ar    1  NONAME1     0.0469
     15 N2         22.0125   -7.6316   -0.1407 N.ar    1  NONAME1    -0.2549
     16 C11        23.2596   -7.9482   -0.4113 C.ar    1  NONAME1     0.0654
     17 S1         23.6703   -9.6115   -0.2765 S.2     1  NONAME1    -0.0709
     18 C12        22.7537  -14.7148   -0.0214 C.ar    1  NONAME1     0.1282
     19 N3         24.0781  -14.5958   -0.0130 N.ar    1  NONAME1    -0.2306
     20 C13        24.5903  -15.8748   -0.1770 C.ar    1  NONAME1     0.0889
     21 C14        26.0111  -16.2226   -0.1286 C.ar    1  NONAME1     0.0024
     22 C15        26.9846  -15.2184   -0.0933 C.ar    1  NONAME1    -0.0519
     23 C16        28.3495  -15.5401   -0.0489 C.ar    1  NONAME1    -0.0534
     24 C17        28.7800  -16.8788   -0.0331 C.ar    1  NONAME1    -0.0178
     25 C18        30.1417  -17.2191    0.0071 C.ar    1  NONAME1    -0.0540
     26 C19        30.5487  -18.5578    0.0265 C.ar    1  NONAME1    -0.0612
     27 C20        29.5924  -19.5715    0.0103 C.ar    1  NONAME1    -0.0612
     28 C21        28.2364  -19.2447   -0.0294 C.ar    1  NONAME1    -0.0540
     29 C22        27.8139  -17.9036   -0.0540 C.ar    1  NONAME1    -0.0173
     30 C23        26.4464  -17.5614   -0.1023 C.ar    1  NONAME1    -0.0448
     31 C24        23.5554  -16.7662   -0.3472 C.ar    1  NONAME1     0.0293
     32 N4         22.4112  -16.0201   -0.2934 N.ar    1  NONAME1    -0.3462
     33 H1         16.5440  -11.2189   -3.2020 H       1  NONAME1     0.0379
     34 H2         16.8935  -11.4070   -1.4942 H       1  NONAME1     0.0379
     35 H3         18.7825  -12.4919   -3.6688 H       1  NONAME1     0.0270
     36 H4         18.7814  -10.8159   -3.1454 H       1  NONAME1     0.0270
     37 H5         19.0598  -11.6922   -0.7264 H       1  NONAME1     0.0265
     38 H6         20.4305  -11.6404   -1.8300 H       1  NONAME1     0.0265
     39 H7         20.4859  -14.0004   -2.1525 H       1  NONAME1     0.0266
     40 H8         18.8495  -14.1981   -1.5497 H       1  NONAME1     0.0266
     41 H9         19.6018  -13.4328    0.7201 H       1  NONAME1     0.0287
     42 H10        20.0352  -15.0228    0.2072 H       1  NONAME1     0.0287
     43 H11        21.7538  -13.7371    1.5180 H       1  NONAME1     0.0579
     44 H12        22.9565  -12.2467   -0.5648 H       1  NONAME1     0.1497
     45 H13        20.2869   -8.7116    0.5096 H       1  NONAME1     0.0843
     46 H14        23.9891   -7.2028   -0.7019 H       1  NONAME1     0.0907
     47 H15        26.6868  -14.1724   -0.0994 H       1  NONAME1     0.0624
     48 H16        29.0788  -14.7343   -0.0245 H       1  NONAME1     0.0624
     49 H17        30.9053  -16.4445    0.0224 H       1  NONAME1     0.0624
     50 H18        31.6042  -18.8074    0.0553 H       1  NONAME1     0.0618
     51 H19        29.9008  -20.6123    0.0243 H       1  NONAME1     0.0618
     52 H20        27.5068  -20.0527   -0.0436 H       1  NONAME1     0.0624
     53 H21        25.7176  -18.3682   -0.1099 H       1  NONAME1     0.0630
     54 H22        23.5166  -17.8367   -0.4840 H       1  NONAME1     0.0829
     55 H23        21.4716  -16.3882   -0.3517 H       1  NONAME1     0.1666
@<TRIPOS>BOND
     1     1     2   ar
     2     2     3   ar
     3     2     4    1
     4     4     5    1
     5     5     6    1
     6     6     7    1
     7     7     8    1
     8     9     8    1
     9     9    10    1
    10    10    11   am
    11    11    12    2
    12    11    13    1
    13    13    14   ar
    14    14    15   ar
    15    15    16   ar
    16    16    17   ar
    17    13    17   ar
    18     9    18    1
    19    18    19   ar
    20    19    20   ar
    21    20    21    1
    22    21    22   ar
    23    22    23   ar
    24    23    24   ar
    25    24    25   ar
    26    25    26   ar
    27    26    27   ar
    28    27    28   ar
    29    28    29   ar
    30    24    29   ar
    31    29    30   ar
    32    21    30   ar
    33    20    31   ar
    34    31    32   ar
    35    18    32   ar
    36     4    33    1
    37     4    34    1
    38     5    35    1
    39     5    36    1
    40     6    37    1
    41     6    38    1
    42     7    39    1
    43     7    40    1
    44     8    41    1
    45     8    42    1
    46     9    43    1
    47    10    44    1
    48    14    45    1
    49    16    46    1
    50    22    47    1
    51    23    48    1
    52    25    49    1
    53    26    50    1
    54    27    51    1
    55    28    52    1
    56    30    53    1
    57    31    54    1
    58    32    55    1
