@<TRIPOS>MOLECULE
*****
 32 32 0 0 0
SMALL
USER_CHARGES

@<TRIPOS>ATOM
      1 C1          1.3338   -6.9298    0.0366 C.3     1  NONAME1    -0.0496
      2 C2          2.6675   -7.6998    0.0366 C.3     1  NONAME1     0.0072
      3 N1          3.9402   -7.0217    0.1974 N.am    1  NONAME1    -0.3332
      4 C3          5.1466   -7.7177    0.2512 C.2     1  NONAME1     0.1070
      5 S1          5.2846   -9.3879    0.3556 S.2     1  NONAME1    -0.0281
      6 S2          6.4959   -6.5897    0.1914 S.3     1  NONAME1    -0.0949
      7 C4          7.9627   -7.6832    0.0386 C.3     1  NONAME1     0.0630
      8 C5          9.2743   -6.9097   -0.0470 C.2     1  NONAME1     0.1733
      9 O1          9.3359   -5.6834   -0.1000 O.2     1  NONAME1    -0.2912
     10 C6         10.5643   -7.6862   -0.0748 C.ar    1  NONAME1     0.0185
     11 C7         11.7691   -6.9697   -0.1040 C.ar    1  NONAME1    -0.0478
     12 C8         13.0065   -7.6304   -0.1120 C.ar    1  NONAME1    -0.0193
     13 C9         13.0545   -9.0214   -0.0784 C.ar    1  NONAME1     0.1201
     14 O2         14.1824   -9.7923   -0.0435 O.3     1  NONAME1    -0.4951
     15 C10        15.4321   -9.1261    0.0969 C.3     1  NONAME1     0.0788
     16 C11        11.8544   -9.7383   -0.0753 C.ar    1  NONAME1    -0.0193
     17 C12        10.6144   -9.0820   -0.0710 C.ar    1  NONAME1    -0.0478
     18 H1          1.5785   -6.3083   -0.8490 H       1  NONAME1     0.0245
     19 H2          0.0001   -6.1598    0.0366 H       1  NONAME1     0.0245
     20 H3          0.7175   -7.7959   -0.2810 H       1  NONAME1     0.0245
     21 H4          2.5993   -8.4198    0.8614 H       1  NONAME1     0.0459
     22 H5          2.7400   -8.2680   -0.9009 H       1  NONAME1     0.0459
     23 H6          4.0038   -6.0208    0.0489 H       1  NONAME1     0.1470
     24 H7          7.8645   -8.2751   -0.8780 H       1  NONAME1     0.0461
     25 H8          8.0098   -8.3277    0.9213 H       1  NONAME1     0.0461
     26 H9         11.7578   -5.8796   -0.1167 H       1  NONAME1     0.0626
     27 H10        13.9076   -7.0262   -0.1420 H       1  NONAME1     0.0654
     28 H11        16.1765   -9.8738    0.3907 H       1  NONAME1     0.0660
     29 H12        15.7452   -8.6965   -0.8600 H       1  NONAME1     0.0660
     30 H13        15.4149   -8.3647    0.8837 H       1  NONAME1     0.0660
     31 H14        11.8875  -10.8267   -0.0673 H       1  NONAME1     0.0654
     32 H15         9.7180   -9.6944   -0.0639 H       1  NONAME1     0.0626
@<TRIPOS>BOND
     1     1     2    1
     2     2     3    1
     3     3     4    1
     4     4     5    2
     5     4     6    1
     6     6     7    1
     7     7     8    1
     8     8     9    2
     9     8    10    1
    10    10    11   ar
    11    11    12   ar
    12    12    13   ar
    13    13    14    1
    14    14    15    1
    15    13    16   ar
    16    16    17   ar
    17    10    17   ar
    18     1    18    1
    19     1    19    1
    20     1    20    1
    21     2    21    1
    22     2    22    1
    23     3    23    1
    24     7    24    1
    25     7    25    1
    26    11    26    1
    27    12    27    1
    28    15    28    1
    29    15    29    1
    30    15    30    1
    31    16    31    1
    32    17    32    1
