REMARK  6 active torsions:
REMARK  status: ('A' for Active; 'I' for Inactive)
REMARK    1  A    between atoms: C4_6  and  S1_7 
REMARK    2  A    between atoms: S1_7  and  C5_8 
REMARK    3  A    between atoms: C5_8  and  C6_9 
REMARK    4  A    between atoms: C9_12  and  C10_13 
REMARK       I    between atoms: C10_13  and  N3_15 
REMARK    5  A    between atoms: N3_15  and  C11_16 
REMARK    6  A    between atoms: C16_21  and  N4_22 
ROOT
ATOM      1  C6  NON d   1      -1.473 -12.405   0.136  0.00  0.00    -0.048 A 
ATOM      2  C7  NON d   1      -2.538 -13.325   0.054  0.00  0.00     0.009 A 
ATOM      3  C8  NON d   1      -3.872 -12.901  -0.091  0.00  0.00     0.017 A 
ATOM      4  C9  NON d   1      -4.168 -11.537  -0.145  0.00  0.00     0.032 A 
ATOM      5  C17 NON d   1      -3.114 -10.618  -0.052  0.00  0.00     0.017 A 
ATOM      6  C18 NON d   1      -1.791 -11.044   0.096  0.00  0.00     0.009 A 
ENDROOT
BRANCH   4   7
ATOM      7  C10 NON d   1      -5.541 -10.972  -0.329  0.00  0.00     0.256 C 
ATOM      8  O1  NON d   1      -5.621  -9.848  -0.819  0.00  0.00    -0.267 OA
ATOM      9  N3  NON d   1      -6.617 -11.753   0.049  0.00  0.00    -0.321 N 
ATOM     10  H10 NON d   1      -6.428 -12.712   0.296  0.00  0.00     0.169 HD
BRANCH   9  11
ATOM     11  C11 NON d   1      -7.998 -11.397   0.033  0.00  0.00     0.056 A 
ATOM     12  C12 NON d   1      -8.897 -12.480   0.018  0.00  0.00     0.031 A 
ATOM     13  C13 NON d   1     -10.280 -12.278  -0.010  0.00  0.00     0.002 A 
ATOM     14  C14 NON d   1     -10.790 -10.989   0.014  0.00  0.00     0.002 A 
ATOM     15  C15 NON d   1      -9.917  -9.905   0.070  0.00  0.00     0.025 A 
ATOM     16  C16 NON d   1      -8.520 -10.082   0.043  0.00  0.00     0.033 A 
BRANCH  16  17
ATOM     17  N4  NON d   1      -7.739  -8.939   0.322  0.00  0.00    -0.301 NA
ATOM     18  H15 NON d   1      -6.792  -9.057  -0.055  0.00  0.00     0.124 HD
ATOM     19  H16 NON d   1      -8.141  -8.084  -0.045  0.00  0.00     0.124 HD
ENDBRANCH  16  17
ENDBRANCH   9  11
ENDBRANCH   4   7
BRANCH   1  20
ATOM     20  C5  NON d   1      -0.064 -12.932   0.353  0.00  0.00     0.121 C 
BRANCH  20  21
ATOM     21  S1  NON d   1       1.335 -11.886  -0.172  0.00  0.00    -0.087 SA
BRANCH  21  22
ATOM     22  C4  NON d   1       1.537 -10.858   1.208  0.00  0.00     0.168 A 
ATOM     23  N2  NON d   1       0.769 -10.864   2.274  0.00  0.00    -0.235 NA
ATOM     24  C3  NON d   1       1.258  -9.874   3.086  0.00  0.00     0.136 A 
ATOM     25  C2  NON d   1       2.348  -9.266   2.512  0.00  0.00     0.112 A 
ATOM     26  N1  NON d   1       2.513  -9.897   1.305  0.00  0.00    -0.339 N 
ATOM     27  C1  NON d   1       3.652  -9.623   0.306  0.00  0.00     0.158 C 
ENDBRANCH  21  22
ENDBRANCH  20  21
ENDBRANCH   1  20
TORSDOF 6
