@<TRIPOS>MOLECULE
*****
 38 39 0 0 0
SMALL
USER_CHARGES

@<TRIPOS>ATOM
      1 O1         14.2494   -0.8505    4.1523 O.2     1  NONAME1    -0.2687
      2 C1         15.0293   -0.5930    3.2434 C.2     1  NONAME1     0.2593
      3 C2         14.6851    0.3413    2.1338 C.2     1  NONAME1     0.0021
      4 C3         13.4868    0.9448    2.1076 C.2     1  NONAME1    -0.0571
      5 C4         13.0916    1.8653    1.0668 C.2     1  NONAME1    -0.0655
      6 C5         11.8675    2.4127    1.0164 C.2     1  NONAME1    -0.0837
      7 C6         11.4299    3.3711   -0.0621 C.3     1  NONAME1    -0.0310
      8 C7         10.2303    4.2442    0.3556 C.3     1  NONAME1    -0.0310
      9 C8          8.9204    3.4946    0.3626 C.2     1  NONAME1    -0.0832
     10 C9          7.7467    4.0625    0.0364 C.2     1  NONAME1    -0.0584
     11 C10         6.4336    3.3897    0.0336 C.ar    1  NONAME1    -0.0216
     12 C11         6.2923    1.9881   -0.0907 C.ar    1  NONAME1    -0.0509
     13 C12         5.0289    1.3828   -0.1238 C.ar    1  NONAME1    -0.0156
     14 C13         3.9241    2.1989   -0.0423 C.ar    1  NONAME1     0.1663
     15 C14         4.0446    3.5623    0.0677 C.ar    1  NONAME1     0.1668
     16 C15         5.2767    4.1849    0.1055 C.ar    1  NONAME1    -0.0090
     17 O2          2.8368    4.1858    0.1269 O.3     1  NONAME1    -0.4526
     18 C16         1.9434    3.0555    0.0442 C.3     1  NONAME1     0.2332
     19 O3          2.6280    1.7902   -0.0658 O.3     1  NONAME1    -0.4526
     20 N1         16.3037   -1.0914    3.1095 N.am    1  NONAME1    -0.1940
     21 O4         16.7842   -1.9271    4.1364 O.3     1  NONAME1    -0.2949
     22 H1         15.4203    0.5125    1.3591 H       1  NONAME1     0.0670
     23 H2         12.7695    0.7457    2.9039 H       1  NONAME1     0.0619
     24 H3         13.8208    2.1071    0.2961 H       1  NONAME1     0.0614
     25 H4         11.1379    2.1576    1.7823 H       1  NONAME1     0.0572
     26 H5         12.2649    4.0378   -0.3093 H       1  NONAME1     0.0310
     27 H6         11.1763    2.8070   -0.9670 H       1  NONAME1     0.0310
     28 H7         10.4061    4.6620    1.3569 H       1  NONAME1     0.0310
     29 H8         10.1638    5.0879   -0.3406 H       1  NONAME1     0.0310
     30 H9          8.9596    2.4529    0.6688 H       1  NONAME1     0.0572
     31 H10         7.7274    5.1190   -0.2266 H       1  NONAME1     0.0620
     32 H11         7.1674    1.3488   -0.1749 H       1  NONAME1     0.0625
     33 H12         4.9240    0.3080   -0.2176 H       1  NONAME1     0.0655
     34 H13         5.3313    5.2647    0.1913 H       1  NONAME1     0.0661
     35 H14         1.2972    3.1819   -0.8322 H       1  NONAME1     0.1166
     36 H15         1.3162    3.0376    0.9429 H       1  NONAME1     0.1166
     37 H16        16.9248   -0.8829    2.3380 H       1  NONAME1     0.1825
     38 H17        17.2369   -2.6414    3.6546 H       1  NONAME1     0.2414
@<TRIPOS>BOND
     1     1     2    2
     2     2     3    1
     3     3     4    2
     4     4     5    1
     5     5     6    2
     6     6     7    1
     7     7     8    1
     8     8     9    1
     9     9    10    2
    10    10    11    1
    11    11    12   ar
    12    12    13   ar
    13    13    14   ar
    14    14    15   ar
    15    15    16   ar
    16    11    16   ar
    17    15    17    1
    18    17    18    1
    19    18    19    1
    20    14    19    1
    21     2    20   am
    22    20    21    1
    23     3    22    1
    24     4    23    1
    25     5    24    1
    26     6    25    1
    27     7    26    1
    28     7    27    1
    29     8    28    1
    30     8    29    1
    31     9    30    1
    32    10    31    1
    33    12    32    1
    34    13    33    1
    35    16    34    1
    36    18    35    1
    37    18    36    1
    38    20    37    1
    39    21    38    1
