REMARK  4 active torsions:
REMARK  status: ('A' for Active; 'I' for Inactive)
REMARK       I    between atoms: C1_2  and  N1_3 
REMARK    1  A    between atoms: C1_2  and  C2_5 
REMARK    2  A    between atoms: N1_3  and  O2_4 
REMARK    3  A    between atoms: N3_9  and  C4_8 
REMARK    4  A    between atoms: C6_13  and  C7_14 
ROOT
ATOM      1  C2  NON d   1       4.980   0.952   0.139  0.00  0.00     0.070 A 
ATOM      2  C3  NON d   1       5.037  -0.392   0.451  0.00  0.00     0.155 A 
ATOM      3  N2  NON d   1       3.945  -1.176   0.619  0.00  0.00    -0.072 NA
ATOM      4  C4  NON d   1       2.761  -0.584   0.421  0.00  0.00     0.751 A 
ATOM      5  N6  NON d   1       2.591   0.713   0.114  0.00  0.00    -0.072 NA
ATOM      6  C13 NON d   1       3.710   1.455  -0.024  0.00  0.00     0.155 A 
ENDROOT
BRANCH   4   7
ATOM      7  N3  NON d   1       1.589  -1.296   0.589  0.00  0.00    -0.015 NA
ATOM      8  C5  NON d   1       1.479  -2.463   0.062  0.00  0.00     0.306 C 
ATOM      9  N4  NON d   1       2.430  -3.179  -0.638  0.00  0.00    -0.105 NA
ATOM     10  O3  NON d   1       0.276  -3.099   0.123  0.00  0.00    -0.284 OA
ATOM     11  N5  NON d   1       1.911  -4.224  -1.100  0.00  0.00    -0.151 NA
ATOM     12  C6  NON d   1       0.486  -4.144  -0.790  0.00  0.00     0.310 C 
BRANCH  12  13
ATOM     13  C7  NON d   1      -0.172  -5.419  -0.296  0.00  0.00    -0.006 A 
ATOM     14  C8  NON d   1       0.523  -6.627  -0.142  0.00  0.00     0.012 A 
ATOM     15  C9  NON d   1      -0.152  -7.791   0.242  0.00  0.00     0.001 A 
ATOM     16  C10 NON d   1      -1.526  -7.764   0.478  0.00  0.00     0.000 A 
ATOM     17  C11 NON d   1      -2.228  -6.571   0.342  0.00  0.00     0.001 A 
ATOM     18  C12 NON d   1      -1.557  -5.409  -0.041  0.00  0.00     0.012 A 
ENDBRANCH  12  13
ENDBRANCH   4   7
BRANCH   1  19
ATOM     19  C1  NON d   1       6.215   1.733  -0.036  0.00  0.00     0.277 C 
ATOM     20  O1  NON d   1       7.296   1.163  -0.164  0.00  0.00    -0.265 OA
ATOM     21  N1  NON d   1       6.116   3.106  -0.024  0.00  0.00    -0.233 N 
ATOM     22  H1  NON d   1       5.335   3.633   0.353  0.00  0.00     0.197 HD
BRANCH  21  23
ATOM     23  O2  NON d   1       7.351   3.797  -0.071  0.00  0.00    -0.287 OA
ATOM     24  H2  NON d   1       8.001   3.062  -0.143  0.00  0.00     0.244 HD
ENDBRANCH  21  23
ENDBRANCH   1  19
TORSDOF 4
