REMARK  11 active torsions:
REMARK  status: ('A' for Active; 'I' for Inactive)
REMARK    1  A    between atoms: C2_2  and  S1_3 
REMARK    2  A    between atoms: S1_3  and  C3_4 
REMARK    3  A    between atoms: C3_4  and  S3_6 
REMARK    4  A    between atoms: S3_6  and  C4_7 
REMARK    5  A    between atoms: C4_7  and  C5_8 
REMARK    6  A    between atoms: C5_8  and  C6_10 
REMARK    7  A    between atoms: C10_14  and  C11_15 
REMARK       I    between atoms: C11_15  and  N1_17 
REMARK    8  A    between atoms: N1_17  and  C12_18 
REMARK    9  A    between atoms: C12_18  and  C13_19 
REMARK   10  A    between atoms: C13_19  and  O3_20 
REMARK   11  A    between atoms: O3_20  and  C14_21 
ROOT
ATOM      1  C6  NON d   1      21.628  -6.225  -0.059  0.00  0.00     0.011 A 
ATOM      2  C7  NON d   1      21.764  -4.835   0.051  0.00  0.00     0.015 A 
ATOM      3  C8  NON d   1      23.029  -4.253   0.091  0.00  0.00     0.002 A 
ATOM      4  C9  NON d   1      24.167  -5.055   0.031  0.00  0.00     0.017 A 
ATOM      5  C10 NON d   1      24.059  -6.451  -0.071  0.00  0.00     0.032 A 
ATOM      6  C20 NON d   1      22.784  -7.030  -0.123  0.00  0.00     0.032 A 
ENDROOT
BRANCH   5   7
ATOM      7  C11 NON d   1      25.334  -7.228  -0.139  0.00  0.00     0.251 C 
ATOM      8  O2  NON d   1      26.401  -6.627  -0.239  0.00  0.00    -0.268 OA
ATOM      9  N1  NON d   1      25.272  -8.606  -0.063  0.00  0.00    -0.355 N 
ATOM     10  H11 NON d   1      24.412  -9.060   0.209  0.00  0.00     0.162 HD
BRANCH   9  11
ATOM     11  C12 NON d   1      26.508  -9.371   0.005  0.00  0.00     0.149 C 
BRANCH  11  12
ATOM     12  C13 NON d   1      26.295 -10.883  -0.016  0.00  0.00     0.195 C 
BRANCH  12  13
ATOM     13  O3  NON d   1      27.572 -11.515   0.079  0.00  0.00    -0.350 OA
BRANCH  13  14
ATOM     14  C14 NON d   1      27.597 -12.882   0.071  0.00  0.00     0.068 A 
ATOM     15  C15 NON d   1      28.877 -13.442   0.100  0.00  0.00     0.037 A 
ATOM     16  C16 NON d   1      29.048 -14.827   0.096  0.00  0.00     0.003 A 
ATOM     17  C17 NON d   1      27.936 -15.664   0.065  0.00  0.00     0.000 A 
ATOM     18  C18 NON d   1      26.656 -15.112   0.039  0.00  0.00     0.003 A 
ATOM     19  C19 NON d   1      26.485 -13.724   0.042  0.00  0.00     0.037 A 
ENDBRANCH  13  14
ENDBRANCH  12  13
ENDBRANCH  11  12
ENDBRANCH   9  11
ENDBRANCH   5   7
BRANCH   1  20
ATOM     20  C5  NON d   1      20.285  -6.889  -0.120  0.00  0.00     0.169 C 
ATOM     21  O1  NON d   1      20.243  -8.117  -0.182  0.00  0.00    -0.291 OA
BRANCH  20  22
ATOM     22  C4  NON d   1      19.050  -5.999  -0.096  0.00  0.00     0.164 C 
BRANCH  22  23
ATOM     23  S3  NON d   1      17.507  -6.878  -0.423  0.00  0.00    -0.104 SA
BRANCH  23  24
ATOM     24  C3  NON d   1      17.155  -7.799   1.050  0.00  0.00     0.104 C 
ATOM     25  S2  NON d   1      17.928  -7.609   2.525  0.00  0.00    -0.065 SA
BRANCH  24  26
ATOM     26  S1  NON d   1      15.777  -8.869   0.733  0.00  0.00    -0.112 SA
BRANCH  26  27
ATOM     27  C2  NON d   1      15.321  -9.597   2.328  0.00  0.00     0.076 C 
ATOM     28  C1  NON d   1      16.244 -10.789   2.647  0.00  0.00     0.016 C 
ENDBRANCH  26  27
ENDBRANCH  24  26
ENDBRANCH  23  24
ENDBRANCH  22  23
ENDBRANCH  20  22
ENDBRANCH   1  20
TORSDOF 11
