REMARK  13 active torsions:
REMARK  status: ('A' for Active; 'I' for Inactive)
REMARK    1  A    between atoms: C2_2  and  O1_5 
REMARK    2  A    between atoms: O1_5  and  C5_6 
REMARK       I    between atoms: C5_6  and  N1_8 
REMARK    3  A    between atoms: N1_8  and  C6_9 
REMARK    4  A    between atoms: C10_13  and  C11_14 
REMARK    5  A    between atoms: C13_16  and  C14_17 
REMARK       I    between atoms: C14_17  and  N2_19 
REMARK    6  A    between atoms: N2_19  and  C15_20 
REMARK    7  A    between atoms: C15_20  and  C16_21 
REMARK    8  A    between atoms: C16_21  and  C17_22 
REMARK    9  A    between atoms: C17_22  and  C18_23 
REMARK   10  A    between atoms: C18_23  and  C19_24 
REMARK   11  A    between atoms: C19_24  and  C20_25 
REMARK   12  A    between atoms: C20_25  and  C21_26 
REMARK       I    between atoms: C21_26  and  N3_28 
REMARK   13  A    between atoms: N3_28  and  O5_29 
ROOT
ATOM      1  C11 NON d   1       2.636   5.250   0.226  0.00  0.00     0.114 A 
ATOM      2  C12 NON d   1       3.566   6.257   0.133  0.00  0.00     0.080 A 
ATOM      3  C13 NON d   1       4.836   5.636   0.170  0.00  0.00     0.154 A 
ATOM      4  N4  NON d   1       4.702   4.302   0.268  0.00  0.00    -0.122 NA
ATOM      5  O6  NON d   1       3.310   4.063   0.305  0.00  0.00    -0.212 OA
ENDROOT
BRANCH   3   6
ATOM      6  C14 NON d   1       6.093   6.396   0.114  0.00  0.00     0.272 C 
ATOM      7  O3  NON d   1       6.067   7.624   0.024  0.00  0.00    -0.266 OA
ATOM      8  N2  NON d   1       7.297   5.713   0.172  0.00  0.00    -0.356 N 
ATOM      9  H15 NON d   1       7.285   4.701   0.131  0.00  0.00     0.162 HD
BRANCH   8  10
ATOM     10  C15 NON d   1       8.530   6.488   0.086  0.00  0.00     0.123 C 
BRANCH  10  11
ATOM     11  C16 NON d   1       9.814   5.689   0.276  0.00  0.00     0.020 C 
BRANCH  11  12
ATOM     12  C17 NON d   1      11.100   6.524   0.081  0.00  0.00     0.002 C 
BRANCH  12  13
ATOM     13  C18 NON d   1      11.599   7.305   1.313  0.00  0.00     0.001 C 
BRANCH  13  14
ATOM     14  C19 NON d   1      11.007   8.712   1.456  0.00  0.00     0.009 C 
BRANCH  14  15
ATOM     15  C20 NON d   1      11.424   9.417   2.752  0.00  0.00     0.105 C 
BRANCH  15  16
ATOM     16  C21 NON d   1      12.775  10.119   2.714  0.00  0.00     0.240 C 
ATOM     17  O4  NON d   1      13.551  10.057   1.767  0.00  0.00    -0.271 OA
ATOM     18  N3  NON d   1      12.989  10.866   3.863  0.00  0.00    -0.237 N 
ATOM     19  H28 NON d   1      12.521  10.611   4.726  0.00  0.00     0.197 HD
BRANCH  18  20
ATOM     20  O5  NON d   1      14.290  11.396   4.024  0.00  0.00    -0.287 OA
ATOM     21  H29 NON d   1      14.229  12.243   3.543  0.00  0.00     0.244 HD
ENDBRANCH  18  20
ENDBRANCH  15  16
ENDBRANCH  14  15
ENDBRANCH  13  14
ENDBRANCH  12  13
ENDBRANCH  11  12
ENDBRANCH  10  11
ENDBRANCH   8  10
ENDBRANCH   3   6
BRANCH   1  22
ATOM     22  C10 NON d   1       1.165   5.285   0.218  0.00  0.00     0.002 A 
ATOM     23  C9  NON d   1       0.571   6.537  -0.063  0.00  0.00     0.014 A 
ATOM     24  C8  NON d   1      -0.804   6.704  -0.128  0.00  0.00     0.003 A 
ATOM     25  C7  NON d   1      -1.624   5.609   0.066  0.00  0.00     0.029 A 
ATOM     26  C6  NON d   1      -1.089   4.343   0.349  0.00  0.00     0.037 A 
ATOM     27  C22 NON d   1       0.310   4.186   0.460  0.00  0.00     0.044 A 
BRANCH  26  28
ATOM     28  N1  NON d   1      -2.002   3.282   0.576  0.00  0.00    -0.303 N 
ATOM     29  C5  NON d   1      -3.201   3.204  -0.116  0.00  0.00     0.365 C 
ATOM     30  O2  NON d   1      -3.356   3.689  -1.231  0.00  0.00    -0.238 OA
ATOM     31  H10 NON d   1      -1.748   2.502   1.163  0.00  0.00     0.171 HD
BRANCH  29  32
ATOM     32  O1  NON d   1      -4.162   2.543   0.580  0.00  0.00    -0.294 OA
BRANCH  32  33
ATOM     33  C2  NON d   1      -5.495   2.398  -0.009  0.00  0.00     0.061 C 
ATOM     34  C1  NON d   1      -6.469   2.136   1.154  0.00  0.00     0.046 C 
ATOM     35  C3  NON d   1      -5.472   1.177  -0.931  0.00  0.00     0.046 C 
ATOM     36  C4  NON d   1      -6.023   3.645  -0.749  0.00  0.00     0.046 C 
ENDBRANCH  32  33
ENDBRANCH  29  32
ENDBRANCH  26  28
ENDBRANCH   1  22
TORSDOF 13
