REMARK  9 active torsions:
REMARK  status: ('A' for Active; 'I' for Inactive)
REMARK    1  A    between atoms: C1_2  and  C2_3 
REMARK       I    between atoms: C1_2  and  N1_20 
REMARK    2  A    between atoms: C2_3  and  C3_4 
REMARK    3  A    between atoms: C3_4  and  C4_5 
REMARK    4  A    between atoms: C4_5  and  C5_6 
REMARK    5  A    between atoms: C5_6  and  C6_7 
REMARK    6  A    between atoms: C6_7  and  C7_8 
REMARK    7  A    between atoms: C7_8  and  O2_9 
REMARK    8  A    between atoms: O2_9  and  C8_10 
REMARK    9  A    between atoms: N1_20  and  O3_21 
ROOT
ATOM      1  C7  NON d   1       6.463  -2.280  -0.096  0.00  0.00     0.175 C 
ENDROOT
BRANCH   1   2
ATOM      2  C6  NON d   1       7.736  -3.066   0.224  0.00  0.00     0.027 C 
BRANCH   2   3
ATOM      3  C5  NON d   1       9.012  -2.318  -0.179  0.00  0.00     0.002 C 
BRANCH   3   4
ATOM      4  C4  NON d   1      10.290  -3.157  -0.033  0.00  0.00     0.001 C 
BRANCH   4   5
ATOM      5  C3  NON d   1      10.686  -3.976  -1.274  0.00  0.00     0.009 C 
BRANCH   5   6
ATOM      6  C2  NON d   1       9.787  -5.180  -1.538  0.00  0.00     0.105 C 
BRANCH   6   7
ATOM      7  C1  NON d   1      10.311  -6.119  -2.614  0.00  0.00     0.240 C 
ATOM      8  O1  NON d   1      11.284  -5.877  -3.318  0.00  0.00    -0.271 OA
ATOM      9  N1  NON d   1       9.503  -7.237  -2.741  0.00  0.00    -0.237 N 
ATOM     10  H20 NON d   1       8.979  -7.566  -1.937  0.00  0.00     0.197 HD
BRANCH   9  11
ATOM     11  O3  NON d   1      10.011  -8.260  -3.573  0.00  0.00    -0.287 OA
ATOM     12  H21 NON d   1       9.681  -7.994  -4.451  0.00  0.00     0.244 HD
ENDBRANCH   9  11
ENDBRANCH   6   7
ENDBRANCH   5   6
ENDBRANCH   4   5
ENDBRANCH   3   4
ENDBRANCH   2   3
ENDBRANCH   1   2
BRANCH   1  13
ATOM     13  O2  NON d   1       6.287  -1.222   0.848  0.00  0.00    -0.351 OA
BRANCH  13  14
ATOM     14  C8  NON d   1       5.064  -0.605   0.839  0.00  0.00     0.069 A 
ATOM     15  C9  NON d   1       4.811   0.228   1.930  0.00  0.00     0.037 A 
ATOM     16  C10 NON d   1       3.594   0.906   2.042  0.00  0.00     0.015 A 
ATOM     17  C11 NON d   1       2.603   0.767   1.058  0.00  0.00    -0.026 A 
ATOM     18  C12 NON d   1       1.372   1.437   1.151  0.00  0.00     0.012 A 
ATOM     19  C16 NON d   1       2.853  -0.068  -0.054  0.00  0.00    -0.023 A 
ATOM     20  C13 NON d   1       0.398   1.285   0.162  0.00  0.00     0.001 A 
ATOM     21  C14 NON d   1       0.643   0.462  -0.933  0.00  0.00     0.001 A 
ATOM     22  C15 NON d   1       1.861  -0.210  -1.041  0.00  0.00     0.012 A 
ATOM     23  C17 NON d   1       4.087  -0.741  -0.150  0.00  0.00     0.049 A 
ENDBRANCH  13  14
ENDBRANCH   1  13
TORSDOF 9
