@<TRIPOS>MOLECULE
*****
 35 35 0 0 0
SMALL
USER_CHARGES

@<TRIPOS>ATOM
      1 C1          1.3338   -6.9298    0.0366 C.3     1  NONAME1    -0.0496
      2 C2          2.6675   -7.6998    0.0366 C.3     1  NONAME1     0.0072
      3 N1          3.9415   -7.0208    0.1834 N.am    1  NONAME1    -0.3332
      4 C3          5.1450   -7.7210    0.2308 C.2     1  NONAME1     0.1070
      5 S1          5.2714   -9.3933    0.3382 S.2     1  NONAME1    -0.0281
      6 S2          6.5033   -6.6012    0.1581 S.3     1  NONAME1    -0.0949
      7 C4          7.9423   -7.7234    0.0277 C.3     1  NONAME1     0.0630
      8 C5          9.2814   -7.0053   -0.0379 C.2     1  NONAME1     0.1733
      9 O1          9.4013   -5.7836   -0.1077 O.2     1  NONAME1    -0.2912
     10 C6         10.5291   -7.8477   -0.0314 C.ar    1  NONAME1     0.0184
     11 C7         11.7744   -7.2062   -0.0495 C.ar    1  NONAME1    -0.0495
     12 C8         12.9646   -7.9479   -0.0478 C.ar    1  NONAME1    -0.0398
     13 C9         12.9381   -9.3462   -0.0220 C.ar    1  NONAME1     0.0334
     14 N2         14.1779  -10.0216   -0.0280 N.am    1  NONAME1    -0.2857
     15 C10        14.3955  -11.3847    0.0605 C.2     1  NONAME1     0.2141
     16 C11        15.8534  -11.7660   -0.0469 C.3     1  NONAME1     0.0125
     17 O2         13.5420  -12.2514    0.2222 O.2     1  NONAME1    -0.2758
     18 C12        11.6968   -9.9870   -0.0068 C.ar    1  NONAME1    -0.0398
     19 C13        10.5024   -9.2467   -0.0128 C.ar    1  NONAME1    -0.0495
     20 H1          1.5762   -6.3120   -0.8522 H       1  NONAME1     0.0245
     21 H2          0.0001   -6.1598    0.0366 H       1  NONAME1     0.0245
     22 H3          0.7166   -7.7973   -0.2756 H       1  NONAME1     0.0245
     23 H4          2.6033   -8.4116    0.8688 H       1  NONAME1     0.0459
     24 H5          2.7335   -8.2762   -0.8965 H       1  NONAME1     0.0459
     25 H6          4.0056   -6.0201    0.0348 H       1  NONAME1     0.1470
     26 H7          7.8416   -8.3147   -0.8882 H       1  NONAME1     0.0461
     27 H8          7.9593   -8.3641    0.9146 H       1  NONAME1     0.0461
     28 H9         11.8305   -6.1186   -0.0653 H       1  NONAME1     0.0625
     29 H10        13.9079   -7.4082   -0.0624 H       1  NONAME1     0.0636
     30 H11        14.9977   -9.4306   -0.0824 H       1  NONAME1     0.1548
     31 H12        15.9633  -12.5308   -0.8215 H       1  NONAME1     0.0323
     32 H13        16.1916  -12.1664    0.9128 H       1  NONAME1     0.0323
     33 H14        16.4863  -10.9163   -0.3163 H       1  NONAME1     0.0323
     34 H15        11.6202  -11.0703    0.0027 H       1  NONAME1     0.0636
     35 H16         9.5709   -9.8064   -0.0060 H       1  NONAME1     0.0625
@<TRIPOS>BOND
     1     1     2    1
     2     2     3    1
     3     3     4    1
     4     4     5    2
     5     4     6    1
     6     6     7    1
     7     7     8    1
     8     8     9    2
     9     8    10    1
    10    10    11   ar
    11    11    12   ar
    12    12    13   ar
    13    13    14    1
    14    14    15   am
    15    15    16    1
    16    15    17    2
    17    13    18   ar
    18    18    19   ar
    19    10    19   ar
    20     1    20    1
    21     1    21    1
    22     1    22    1
    23     2    23    1
    24     2    24    1
    25     3    25    1
    26     7    26    1
    27     7    27    1
    28    11    28    1
    29    12    29    1
    30    14    30    1
    31    16    31    1
    32    16    32    1
    33    16    33    1
    34    18    34    1
    35    19    35    1
