@<TRIPOS>MOLECULE
*****
 40 40 0 0 0
SMALL
USER_CHARGES

@<TRIPOS>ATOM
      1 C1          5.5346   -3.0463    2.3116 C.3     1  NONAME1    -0.0558
      2 C2          4.7103   -4.3112    2.4749 C.3     1  NONAME1    -0.0036
      3 S1          4.9097   -5.4781    1.1036 S.3     1  NONAME1    -0.1113
      4 C3          6.5500   -6.1333    1.2671 C.2     1  NONAME1     0.0854
      5 S2          7.3332   -6.3745    2.7275 S.2     1  NONAME1    -0.0372
      6 S3          7.1482   -6.6135   -0.3286 S.3     1  NONAME1    -0.1030
      7 C4          8.4819   -7.8007   -0.0079 C.3     1  NONAME1     0.0623
      8 C5          9.8440   -7.1308    0.1103 C.2     1  NONAME1     0.1732
      9 O1          9.9898   -5.9132    0.2173 O.2     1  NONAME1    -0.2912
     10 C6         11.0710   -7.9972    0.0912 C.ar    1  NONAME1     0.0183
     11 C7         12.3247   -7.3726    0.0874 C.ar    1  NONAME1    -0.0510
     12 C8         13.5040   -8.1282    0.0692 C.ar    1  NONAME1    -0.0579
     13 C9         13.4679   -9.5305    0.0547 C.ar    1  NONAME1    -0.0458
     14 C10        14.7915  -10.2794    0.0710 C.3     1  NONAME1    -0.0121
     15 C11        14.7200  -11.8013   -0.0766 C.3     1  NONAME1     0.0156
     16 N1         16.0112  -12.4837    0.0100 N.am    1  NONAME1    -0.3152
     17 C12        16.0040  -13.8600    0.0183 C.2     1  NONAME1     0.2099
     18 C13        17.3375  -14.6300    0.0366 C.3     1  NONAME1     0.0121
     19 O2         14.9438  -14.4910   -0.0166 O.2     1  NONAME1    -0.2761
     20 C14        12.2085  -10.1502    0.0569 C.ar    1  NONAME1    -0.0579
     21 C15        11.0220   -9.3944    0.0760 C.ar    1  NONAME1    -0.0510
     22 H1          5.3823   -2.5824    1.3326 H       1  NONAME1     0.0238
     23 H2          6.6025   -3.2341    2.4487 H       1  NONAME1     0.0238
     24 H3          5.2340   -2.3128    3.0711 H       1  NONAME1     0.0238
     25 H4          4.9022   -4.7889    3.4397 H       1  NONAME1     0.0377
     26 H5          3.6515   -4.0284    2.4847 H       1  NONAME1     0.0377
     27 H6          8.2751   -8.4153    0.8715 H       1  NONAME1     0.0461
     28 H7          8.5021   -8.4575   -0.8838 H       1  NONAME1     0.0461
     29 H8         12.3949   -6.2854    0.0998 H       1  NONAME1     0.0625
     30 H9         14.4578   -7.6035    0.0748 H       1  NONAME1     0.0620
     31 H10        15.4165   -9.8850   -0.7422 H       1  NONAME1     0.0328
     32 H11        15.3017  -10.0401    1.0120 H       1  NONAME1     0.0328
     33 H12        14.2729  -12.0688   -1.0415 H       1  NONAME1     0.0465
     34 H13        14.0830  -12.2228    0.7101 H       1  NONAME1     0.0465
     35 H14        16.8576  -12.0052   -0.2726 H       1  NONAME1     0.1487
     36 H15        16.9942  -15.3716    0.7912 H       1  NONAME1     0.0322
     37 H16        18.6711  -15.4000    0.0549 H       1  NONAME1     0.0322
     38 H17        17.8940  -13.8466    0.5957 H       1  NONAME1     0.0322
     39 H18        12.1157  -11.2353    0.0530 H       1  NONAME1     0.0620
     40 H19        10.0790   -9.9336    0.0864 H       1  NONAME1     0.0625
@<TRIPOS>BOND
     1     1     2    1
     2     2     3    1
     3     3     4    1
     4     4     5    2
     5     4     6    1
     6     6     7    1
     7     7     8    1
     8     8     9    2
     9     8    10    1
    10    10    11   ar
    11    11    12   ar
    12    12    13   ar
    13    13    14    1
    14    14    15    1
    15    15    16    1
    16    16    17   am
    17    17    18    1
    18    17    19    2
    19    13    20   ar
    20    20    21   ar
    21    10    21   ar
    22     1    22    1
    23     1    23    1
    24     1    24    1
    25     2    25    1
    26     2    26    1
    27     7    27    1
    28     7    28    1
    29    11    29    1
    30    12    30    1
    31    14    31    1
    32    14    32    1
    33    15    33    1
    34    15    34    1
    35    16    35    1
    36    18    36    1
    37    18    37    1
    38    18    38    1
    39    20    39    1
    40    21    40    1
