@<TRIPOS>MOLECULE
*****
 32 34 0 0 0
SMALL
USER_CHARGES

@<TRIPOS>ATOM
      1 O1          7.2959    1.1632   -0.1638 O.2     1  NONAME1    -0.2680
      2 C1          6.2154    1.7326   -0.0361 C.2     1  NONAME1     0.2694
      3 N1          6.1156    3.1064   -0.0235 N.am    1  NONAME1    -0.1934
      4 O2          7.3509    3.7968   -0.0706 O.3     1  NONAME1    -0.2949
      5 C2          4.9797    0.9515    0.1391 C.ar    1  NONAME1     0.0749
      6 C3          5.0371   -0.3918    0.4510 C.ar    1  NONAME1     0.0451
      7 N2          3.9449   -1.1761    0.6194 N.ar    1  NONAME1    -0.2182
      8 C4          2.7608   -0.5843    0.4207 C.ar    1  NONAME1     0.2546
      9 N3          1.5885   -1.2959    0.5893 N.2     1  NONAME1    -0.1561
     10 C5          1.4792   -2.4630    0.0616 C.2     1  NONAME1     0.3419
     11 N4          2.4304   -3.1795   -0.6385 N.2     1  NONAME1    -0.0930
     12 N5          1.9111   -4.2244   -1.1003 N.2     1  NONAME1    -0.1329
     13 C6          0.4858   -4.1443   -0.7903 C.3     1  NONAME1     0.2393
     14 C7         -0.1719   -5.4187   -0.2960 C.ar    1  NONAME1     0.0167
     15 C8          0.5227   -6.6273   -0.1419 C.ar    1  NONAME1    -0.0531
     16 C9         -0.1522   -7.7909    0.2423 C.ar    1  NONAME1    -0.0613
     17 C10        -1.5265   -7.7638    0.4776 C.ar    1  NONAME1    -0.0617
     18 C11        -2.2280   -6.5710    0.3417 C.ar    1  NONAME1    -0.0613
     19 C12        -1.5569   -5.4087   -0.0412 C.ar    1  NONAME1    -0.0531
     20 O3          0.2756   -3.0987    0.1227 O.2     1  NONAME1    -0.4299
     21 N6          2.5910    0.7125    0.1143 N.ar    1  NONAME1    -0.2182
     22 C13         3.7098    1.4546   -0.0240 C.ar    1  NONAME1     0.0451
     23 H1          5.3348    3.6328    0.3533 H       1  NONAME1     0.1825
     24 H2          8.0007    3.0623   -0.1432 H       1  NONAME1     0.2414
     25 H3          5.9891   -0.9016    0.5822 H       1  NONAME1     0.0839
     26 H4         -0.0312   -3.8820   -1.7239 H       1  NONAME1     0.1068
     27 H5          1.5931   -6.6846   -0.3283 H       1  NONAME1     0.0622
     28 H6          0.3947   -8.7242    0.3513 H       1  NONAME1     0.0618
     29 H7         -2.0489   -8.6724    0.7665 H       1  NONAME1     0.0618
     30 H8         -3.2997   -6.5425    0.5232 H       1  NONAME1     0.0618
     31 H9         -2.1244   -4.4855   -0.1500 H       1  NONAME1     0.0622
     32 H10         3.5183    2.4875   -0.2958 H       1  NONAME1     0.0839
@<TRIPOS>BOND
     1     1     2    2
     2     2     3   am
     3     3     4    1
     4     2     5    1
     5     5     6   ar
     6     6     7   ar
     7     7     8   ar
     8     9     8    1
     9     9    10    2
    10    10    11    1
    11    11    12    2
    12    12    13    1
    13    13    14    1
    14    14    15   ar
    15    15    16   ar
    16    16    17   ar
    17    17    18   ar
    18    18    19   ar
    19    14    19   ar
    20    13    20    1
    21    10    20    1
    22     8    21   ar
    23    21    22   ar
    24     5    22   ar
    25     3    23    1
    26     4    24    1
    27     6    25    1
    28    13    26    1
    29    15    27    1
    30    16    28    1
    31    17    29    1
    32    18    30    1
    33    19    31    1
    34    22    32    1
