@<TRIPOS>MOLECULE
*****
 53 56 0 0 0
SMALL
USER_CHARGES

@<TRIPOS>ATOM
      1 O1         15.5110    3.1133   -0.3379 O.2     1  NONAME1    -0.2687
      2 C1         14.6040    2.3111   -0.1571 C.2     1  NONAME1     0.2593
      3 C2         13.1830    2.7786   -0.1551 C.2     1  NONAME1     0.0027
      4 C3         12.1409    1.9815   -0.4376 C.2     1  NONAME1    -0.0496
      5 C4         10.7038    2.3315   -0.4400 C.ar    1  NONAME1    -0.0240
      6 C5         10.1766    3.6327   -0.4216 C.ar    1  NONAME1    -0.0511
      7 C6          8.7799    3.8593   -0.3485 C.ar    1  NONAME1    -0.0187
      8 C7          7.8875    2.7904   -0.2807 C.ar    1  NONAME1     0.1318
      9 C8          8.4290    1.5138   -0.3213 C.ar    1  NONAME1     0.0597
     10 C9          9.8007    1.2657   -0.4189 C.ar    1  NONAME1    -0.0406
     11 C10         7.5415    0.4432    0.0687 C.2     1  NONAME1     0.1705
     12 O2          7.7352   -0.7300   -0.2096 O.2     1  NONAME1    -0.2918
     13 C11         6.4450    0.9513    0.9401 C.3     1  NONAME1     0.0505
     14 C12         5.4960    1.9401    0.0000 C.3     1  NONAME1     0.1200
     15 C13         4.4282    0.8304    0.0000 C.3     1  NONAME1     0.0004
     16 C14         3.0350    1.3312   -0.4737 C.3     1  NONAME1     0.0028
     17 N1          2.7777    2.7813   -0.4573 N.3     1  NONAME1    -0.2979
     18 C15         1.3095    3.0124   -0.4371 C.3     1  NONAME1     0.0240
     19 C16         0.7662    4.4327   -0.4053 C.ar    1  NONAME1    -0.0334
     20 C17        -0.5566    4.6197    0.0424 C.ar    1  NONAME1    -0.0573
     21 C18        -1.1337    5.8896    0.1017 C.ar    1  NONAME1    -0.0615
     22 C19        -0.3931    7.0016   -0.2847 C.ar    1  NONAME1    -0.0617
     23 C20         0.9073    6.8365   -0.7570 C.ar    1  NONAME1    -0.0615
     24 C21         1.4733    5.5590   -0.8414 C.ar    1  NONAME1    -0.0573
     25 C22         3.4777    3.5029    0.5997 C.3     1  NONAME1     0.0028
     26 C23         4.6912    2.7788    1.1521 C.3     1  NONAME1     0.0004
     27 O3          6.5638    3.0498    0.0000 O.3     1  NONAME1    -0.4845
     28 N2         14.7845    0.9713    0.1074 N.am    1  NONAME1    -0.1940
     29 O4         16.1045    0.5718    0.4195 O.3     1  NONAME1    -0.2949
     30 H1         13.0762    3.8358    0.0569 H       1  NONAME1     0.0670
     31 H2         12.3291    0.9369   -0.6821 H       1  NONAME1     0.0625
     32 H3         10.8371    4.4976   -0.4325 H       1  NONAME1     0.0625
     33 H4          8.4054    4.8787   -0.2877 H       1  NONAME1     0.0654
     34 H5         10.1497    0.2346   -0.3744 H       1  NONAME1     0.0632
     35 H6          5.9955    0.0746    1.4200 H       1  NONAME1     0.0384
     36 H7          6.8849    1.5054    1.7845 H       1  NONAME1     0.0384
     37 H8          4.7359    0.0398   -0.7000 H       1  NONAME1     0.0316
     38 H9          4.2132    0.3259    0.9548 H       1  NONAME1     0.0316
     39 H10         2.8546    0.9624   -1.4904 H       1  NONAME1     0.0428
     40 H11         2.3011    0.8151    0.1635 H       1  NONAME1     0.0428
     41 H12         0.8726    2.5343   -1.3236 H       1  NONAME1     0.0476
     42 H13         0.8984    2.5014    0.4457 H       1  NONAME1     0.0476
     43 H14        -1.1562    3.7615    0.3503 H       1  NONAME1     0.0621
     44 H15        -2.1554    6.0095    0.4484 H       1  NONAME1     0.0618
     45 H16        -0.8321    7.9950   -0.2293 H       1  NONAME1     0.0618
     46 H17         1.4827    7.7051   -1.0657 H       1  NONAME1     0.0618
     47 H18         2.4783    5.4584   -1.2442 H       1  NONAME1     0.0621
     48 H19         2.8198    3.7365    1.4467 H       1  NONAME1     0.0428
     49 H20         3.8277    4.4590    0.1959 H       1  NONAME1     0.0428
     50 H21         5.3231    3.5184    1.6677 H       1  NONAME1     0.0316
     51 H22         4.3604    2.1227    1.9729 H       1  NONAME1     0.0316
     52 H23        14.0578    0.4254    0.5544 H       1  NONAME1     0.1825
     53 H24        16.5185    0.5236   -0.4634 H       1  NONAME1     0.2414
@<TRIPOS>BOND
     1     1     2    2
     2     2     3    1
     3     3     4    2
     4     4     5    1
     5     5     6   ar
     6     6     7   ar
     7     7     8   ar
     8     8     9   ar
     9     9    10   ar
    10     5    10   ar
    11     9    11    1
    12    11    12    2
    13    11    13    1
    14    13    14    1
    15    14    15    1
    16    15    16    1
    17    16    17    1
    18    17    18    1
    19    18    19    1
    20    19    20   ar
    21    20    21   ar
    22    21    22   ar
    23    22    23   ar
    24    23    24   ar
    25    19    24   ar
    26    17    25    1
    27    25    26    1
    28    14    26    1
    29    14    27    1
    30     8    27    1
    31     2    28   am
    32    28    29    1
    33     3    30    1
    34     4    31    1
    35     6    32    1
    36     7    33    1
    37    10    34    1
    38    13    35    1
    39    13    36    1
    40    15    37    1
    41    15    38    1
    42    16    39    1
    43    16    40    1
    44    18    41    1
    45    18    42    1
    46    20    43    1
    47    21    44    1
    48    22    45    1
    49    23    46    1
    50    24    47    1
    51    25    48    1
    52    25    49    1
    53    26    50    1
    54    26    51    1
    55    28    52    1
    56    29    53    1
