@<TRIPOS>MOLECULE
*****
 60 63 0 0 0
SMALL
USER_CHARGES

@<TRIPOS>ATOM
      1 C1          1.2204    1.3645    0.0000 C.3     1  NONAME1     0.0788
      2 O1         -0.3196    1.3645    0.0000 O.3     1  NONAME1    -0.4944
      3 C2         -0.8442    0.1527    0.4280 C.ar    1  NONAME1     0.1321
      4 C3         -2.2467    0.2263    0.3856 C.ar    1  NONAME1    -0.0012
      5 C4         -3.0064   -0.8355    0.8340 C.ar    1  NONAME1     0.0311
      6 N1         -2.4682   -1.9400    1.3760 N.ar    1  NONAME1    -0.2624
      7 C5         -1.1190   -1.9698    1.4576 C.ar    1  NONAME1     0.0402
      8 C6         -0.2375   -1.0468    0.8927 C.ar    1  NONAME1     0.0583
      9 C7          1.1863   -1.4612    0.8461 C.ar    1  NONAME1     0.0559
     10 N2          2.1462   -0.7217    1.5254 N.ar    1  NONAME1    -0.3538
     11 C8          3.4082   -1.0415    1.0912 C.ar    1  NONAME1     0.0472
     12 C9          4.6297   -0.3721    1.2446 C.ar    1  NONAME1    -0.0378
     13 C10         5.7672   -0.9615    0.6841 C.ar    1  NONAME1    -0.0598
     14 C11         5.6935   -2.1961    0.0487 C.ar    1  NONAME1    -0.0611
     15 C12         4.4665   -2.8576   -0.0720 C.ar    1  NONAME1    -0.0523
     16 C13         3.2879   -2.2473    0.4204 C.ar    1  NONAME1     0.0036
     17 C14         1.8801   -2.5995    0.3809 C.ar    1  NONAME1    -0.0092
     18 C15         1.5333   -3.9617   -0.1918 C.3     1  NONAME1     0.0152
     19 C16         0.1365   -4.5602   -0.1646 C.3     1  NONAME1    -0.0292
     20 N3         -0.6381   -4.1470   -1.3726 N.4     1  NONAME1     0.2305
     21 C17        -2.1091   -4.3944   -1.3450 C.3     1  NONAME1    -0.0077
     22 C18        -2.6242   -5.8117   -1.3196 C.ar    1  NONAME1    -0.0029
     23 C19        -1.8622   -6.9693   -1.5154 C.ar    1  NONAME1    -0.0530
     24 C20        -2.4585   -8.2433   -1.4487 C.ar    1  NONAME1    -0.0542
     25 C21        -3.8339   -8.3994   -1.2273 C.ar    1  NONAME1    -0.0249
     26 C22        -4.4063   -9.7591   -1.1504 C.2     1  NONAME1    -0.0496
     27 C23        -5.7176  -10.0499   -1.1456 C.2     1  NONAME1     0.0027
     28 C24        -6.2007  -11.4590   -1.0708 C.2     1  NONAME1     0.2593
     29 O2         -5.4520  -12.4206   -1.1598 O.2     1  NONAME1    -0.2687
     30 N4         -7.5617  -11.5180   -0.8820 N.am    1  NONAME1    -0.1940
     31 O3         -8.0904  -12.7754   -0.5196 O.3     1  NONAME1    -0.2949
     32 C25        -4.5970   -7.2406   -1.0633 C.ar    1  NONAME1    -0.0542
     33 C26        -4.0043   -5.9736   -1.1108 C.ar    1  NONAME1    -0.0530
     34 H1          1.2876    1.2354   -1.0960 H       1  NONAME1     0.0660
     35 H2          2.7604    1.3645    0.0000 H       1  NONAME1     0.0660
     36 H3          1.2825    2.4445    0.2213 H       1  NONAME1     0.0660
     37 H4         -2.7387    1.1184    0.0061 H       1  NONAME1     0.0669
     38 H5         -4.0918   -0.8068    0.7929 H       1  NONAME1     0.0831
     39 H6         -0.7401   -2.8122    2.0312 H       1  NONAME1     0.0837
     40 H7          1.9448    0.0837    2.1032 H       1  NONAME1     0.1659
     41 H8          4.6992    0.5876    1.7478 H       1  NONAME1     0.0638
     42 H9          6.7265   -0.4503    0.7512 H       1  NONAME1     0.0618
     43 H10         6.5940   -2.6464   -0.3648 H       1  NONAME1     0.0618
     44 H11         4.4342   -3.8165   -0.5827 H       1  NONAME1     0.0624
     45 H12         1.9204   -4.0083   -1.2193 H       1  NONAME1     0.0366
     46 H13         2.1516   -4.6699    0.3830 H       1  NONAME1     0.0366
     47 H14        -0.4338   -4.3361    0.7309 H       1  NONAME1     0.0817
     48 H15         0.2283   -5.6488   -0.2237 H       1  NONAME1     0.0817
     49 H16        -0.5182   -3.1307   -1.4868 H       1  NONAME1     0.2017
     50 H17        -0.2448   -4.5727   -2.2207 H       1  NONAME1     0.2017
     51 H18        -2.4932   -3.9048   -2.2472 H       1  NONAME1     0.0866
     52 H19        -2.4901   -3.8539   -0.4749 H       1  NONAME1     0.0866
     53 H20        -0.7967   -6.9352   -1.7197 H       1  NONAME1     0.0622
     54 H21        -1.8285   -9.1239   -1.5792 H       1  NONAME1     0.0624
     55 H22        -3.6879  -10.5787   -1.0948 H       1  NONAME1     0.0625
     56 H23        -6.4806   -9.2868   -1.2148 H       1  NONAME1     0.0670
     57 H24        -8.0942  -10.7167   -0.5655 H       1  NONAME1     0.1825
     58 H25        -8.0745  -13.2572   -1.3690 H       1  NONAME1     0.2414
     59 H26        -5.6680   -7.2887   -0.8856 H       1  NONAME1     0.0624
     60 H27        -4.6504   -5.1050   -0.9769 H       1  NONAME1     0.0622
@<TRIPOS>BOND
     1     1     2    1
     2     2     3    1
     3     3     4   ar
     4     4     5   ar
     5     5     6   ar
     6     6     7   ar
     7     7     8   ar
     8     3     8   ar
     9     8     9    1
    10     9    10   ar
    11    10    11   ar
    12    11    12   ar
    13    12    13   ar
    14    13    14   ar
    15    14    15   ar
    16    15    16   ar
    17    11    16   ar
    18    16    17   ar
    19     9    17   ar
    20    17    18    1
    21    18    19    1
    22    19    20    1
    23    20    21    1
    24    21    22    1
    25    22    23   ar
    26    23    24   ar
    27    24    25   ar
    28    25    26    1
    29    26    27    2
    30    27    28    1
    31    28    29    2
    32    28    30   am
    33    30    31    1
    34    25    32   ar
    35    32    33   ar
    36    22    33   ar
    37     1    34    1
    38     1    35    1
    39     1    36    1
    40     4    37    1
    41     5    38    1
    42     7    39    1
    43    10    40    1
    44    12    41    1
    45    13    42    1
    46    14    43    1
    47    15    44    1
    48    18    45    1
    49    18    46    1
    50    19    47    1
    51    19    48    1
    52    20    49    1
    53    20    50    1
    54    21    51    1
    55    21    52    1
    56    23    53    1
    57    24    54    1
    58    26    55    1
    59    27    56    1
    60    30    57    1
    61    31    58    1
    62    32    59    1
    63    33    60    1
