@<TRIPOS>MOLECULE
*****
 37 37 0 0 0
SMALL
USER_CHARGES

@<TRIPOS>ATOM
      1 C1         -4.0010    0.7700    0.0000 C.3     1  NONAME1     0.0788
      2 O1         -4.0010    2.3100    0.0000 O.3     1  NONAME1    -0.4951
      3 C2         -2.7244    2.8218   -0.0271 C.ar    1  NONAME1     0.1202
      4 C3         -2.6229    4.2126    0.0311 C.ar    1  NONAME1    -0.0182
      5 C4         -1.3674    4.8443    0.0423 C.ar    1  NONAME1    -0.0370
      6 C5         -0.1857    4.0937    0.0025 C.ar    1  NONAME1     0.0336
      7 N1          1.0474    4.7907    0.0458 N.am    1  NONAME1    -0.2855
      8 C6          2.3193    4.2380    0.1028 C.2     1  NONAME1     0.2172
      9 O2          2.5800    3.0375    0.1453 O.2     1  NONAME1    -0.2755
     10 C7          3.4256    5.2925    0.1285 C.3     1  NONAME1     0.0243
     11 C8          4.8124    4.6395    0.1113 C.3     1  NONAME1    -0.0443
     12 C9          5.9910    5.6061   -0.0521 C.3     1  NONAME1    -0.0443
     13 C10         6.5093    6.2107    1.2541 C.3     1  NONAME1     0.0259
     14 C11         5.8244    7.4948    1.6834 C.2     1  NONAME1     0.2354
     15 O3          4.9120    8.0236    1.0636 O.2     1  NONAME1    -0.2737
     16 N2          6.4028    8.0174    2.8278 N.am    1  NONAME1    -0.1975
     17 O4          5.7262    9.1120    3.4081 O.3     1  NONAME1    -0.2952
     18 C12        -0.2953    2.7048   -0.0788 C.ar    1  NONAME1    -0.0370
     19 C13        -1.5510    2.0724   -0.0944 C.ar    1  NONAME1    -0.0182
     20 H1         -5.0610    0.7085   -0.3039 H       1  NONAME1     0.0660
     21 H2         -4.0010   -0.7700    0.0000 H       1  NONAME1     0.0660
     22 H3         -3.9647    0.6972    1.1038 H       1  NONAME1     0.0660
     23 H4         -3.5277    4.8140    0.0777 H       1  NONAME1     0.0655
     24 H5         -1.3363    5.9291    0.0966 H       1  NONAME1     0.0637
     25 H6          0.9906    5.8013    0.0779 H       1  NONAME1     0.1548
     26 H7          3.3007    5.8998    1.0302 H       1  NONAME1     0.0358
     27 H8          3.3068    5.9364   -0.7513 H       1  NONAME1     0.0358
     28 H9          4.8484    3.9392   -0.7343 H       1  NONAME1     0.0270
     29 H10         4.9474    4.0271    1.0121 H       1  NONAME1     0.0270
     30 H11         6.8190    5.0191   -0.4714 H       1  NONAME1     0.0270
     31 H12         5.7593    6.3806   -0.7915 H       1  NONAME1     0.0270
     32 H13         6.4480    5.4834    2.0707 H       1  NONAME1     0.0359
     33 H14         7.5702    6.4579    1.1139 H       1  NONAME1     0.0359
     34 H15         6.8870    7.4102    3.4820 H       1  NONAME1     0.1822
     35 H16         6.0439    9.8591    2.8651 H       1  NONAME1     0.2414
     36 H17         0.5818    2.0674   -0.1315 H       1  NONAME1     0.0637
     37 H18        -1.5607    0.9896   -0.1543 H       1  NONAME1     0.0655
@<TRIPOS>BOND
     1     1     2    1
     2     2     3    1
     3     3     4   ar
     4     4     5   ar
     5     5     6   ar
     6     6     7    1
     7     7     8   am
     8     8     9    2
     9     8    10    1
    10    10    11    1
    11    11    12    1
    12    12    13    1
    13    13    14    1
    14    14    15    2
    15    14    16   am
    16    16    17    1
    17     6    18   ar
    18    18    19   ar
    19     3    19   ar
    20     1    20    1
    21     1    21    1
    22     1    22    1
    23     4    23    1
    24     5    24    1
    25     7    25    1
    26    10    26    1
    27    10    27    1
    28    11    28    1
    29    11    29    1
    30    12    30    1
    31    12    31    1
    32    13    32    1
    33    13    33    1
    34    16    34    1
    35    17    35    1
    36    18    36    1
    37    19    37    1
