@<TRIPOS>MOLECULE
*****
 45 47 0 0 0
SMALL
USER_CHARGES

@<TRIPOS>ATOM
      1 C1          4.0010  -10.0100    0.0000 C.3     1  NONAME1    -0.0222
      2 C2          4.0010  -11.5500    0.0000 C.ar    1  NONAME1     0.0421
      3 C3          5.2566  -12.1379    0.0827 C.ar    1  NONAME1    -0.0392
      4 C4          5.3452  -13.5181    0.1093 C.ar    1  NONAME1    -0.0375
      5 C5          4.1841  -14.3038    0.0701 C.ar    1  NONAME1     0.1131
      6 C6          4.4102  -15.7150    0.1022 C.1     1  NONAME1     0.1045
      7 N1          4.6066  -16.8594    0.1303 N.1     1  NONAME1    -0.1907
      8 C7          2.9369  -13.6635    0.0056 C.ar    1  NONAME1     0.2332
      9 O1          1.6829  -14.2479   -0.0245 O.3     1  NONAME1    -0.4707
     10 C8          1.5902  -15.6749    0.0300 C.3     1  NONAME1     0.1163
     11 C9          0.2066  -16.3092   -0.0019 C.ar    1  NONAME1    -0.0103
     12 C10         0.1399  -17.7185   -0.0163 C.ar    1  NONAME1    -0.0546
     13 C11        -1.0840  -18.4039   -0.0621 C.ar    1  NONAME1    -0.0493
     14 C12        -2.2865  -17.6929   -0.0836 C.ar    1  NONAME1     0.0370
     15 C13        -3.6436  -18.3439   -0.1747 C.2     1  NONAME1     0.2483
     16 O2         -4.5907  -17.6312   -0.5031 O.2     1  NONAME1    -0.2699
     17 N2         -3.7238  -19.7053    0.0813 N.am    1  NONAME1    -0.2800
     18 C14        -4.8599  -20.5718    0.0490 C.ar    1  NONAME1     0.0545
     19 C15        -4.5505  -21.9481   -0.0015 C.ar    1  NONAME1    -0.0387
     20 C16        -5.5479  -22.9270   -0.0467 C.ar    1  NONAME1    -0.0599
     21 C17        -6.8821  -22.5512   -0.0132 C.ar    1  NONAME1    -0.0599
     22 C18        -7.2089  -21.1984    0.0653 C.ar    1  NONAME1    -0.0392
     23 C19        -6.2207  -20.1922    0.0622 C.ar    1  NONAME1     0.0461
     24 N3         -6.6617  -18.8870    0.3582 N.pl3   1  NONAME1    -0.3565
     25 C20        -2.2202  -16.2851   -0.0613 C.ar    1  NONAME1    -0.0493
     26 C21        -0.9908  -15.5984   -0.0192 C.ar    1  NONAME1    -0.0546
     27 N4          2.8557  -12.2923   -0.0311 N.ar    1  NONAME1    -0.2171
     28 H1          4.4355   -9.9271   -1.0188 H       1  NONAME1     0.0293
     29 H2          4.0010   -8.4700    0.0000 H       1  NONAME1     0.0293
     30 H3          2.9003   -9.9161   -0.0998 H       1  NONAME1     0.0293
     31 H4          6.1569  -11.5306    0.1193 H       1  NONAME1     0.0636
     32 H5          6.3284  -13.9839    0.1636 H       1  NONAME1     0.0633
     33 H6          2.0406  -16.0150    0.9697 H       1  NONAME1     0.0748
     34 H7          2.1055  -16.0805   -0.8481 H       1  NONAME1     0.0748
     35 H8          1.0613  -18.3020   -0.0047 H       1  NONAME1     0.0622
     36 H9         -1.0459  -19.4863   -0.1070 H       1  NONAME1     0.0625
     37 H10        -2.8563  -20.1873    0.2507 H       1  NONAME1     0.1552
     38 H11        -3.5162  -22.2831   -0.0218 H       1  NONAME1     0.0637
     39 H12        -5.2822  -23.9799   -0.0951 H       1  NONAME1     0.0618
     40 H13        -7.6682  -23.3016   -0.0221 H       1  NONAME1     0.0618
     41 H14        -8.2577  -20.9217    0.1489 H       1  NONAME1     0.0636
     42 H15        -5.9789  -18.1902    0.0393 H       1  NONAME1     0.1424
     43 H16        -7.5764  -18.6765   -0.0225 H       1  NONAME1     0.1424
     44 H17        -3.1412  -15.7032   -0.0844 H       1  NONAME1     0.0625
     45 H18        -0.9892  -14.5104   -0.0083 H       1  NONAME1     0.0622
@<TRIPOS>BOND
     1     1     2    1
     2     2     3   ar
     3     3     4   ar
     4     4     5   ar
     5     5     6    1
     6     6     7    3
     7     5     8   ar
     8     8     9    1
     9     9    10    1
    10    10    11    1
    11    11    12   ar
    12    12    13   ar
    13    13    14   ar
    14    14    15    1
    15    15    16    2
    16    15    17   am
    17    17    18    1
    18    18    19   ar
    19    19    20   ar
    20    20    21   ar
    21    21    22   ar
    22    22    23   ar
    23    18    23   ar
    24    23    24    1
    25    14    25   ar
    26    25    26   ar
    27    11    26   ar
    28     8    27   ar
    29     2    27   ar
    30     1    28    1
    31     1    29    1
    32     1    30    1
    33     3    31    1
    34     4    32    1
    35    10    33    1
    36    10    34    1
    37    12    35    1
    38    13    36    1
    39    17    37    1
    40    19    38    1
    41    20    39    1
    42    21    40    1
    43    22    41    1
    44    24    42    1
    45    24    43    1
    46    25    44    1
    47    26    45    1
