REMARK  7 active torsions:
REMARK  status: ('A' for Active; 'I' for Inactive)
REMARK    1  A    between atoms: O1_2  and  C2_3 
REMARK    2  A    between atoms: C6_8  and  N2_9 
REMARK    3  A    between atoms: N2_9  and  C7_10 
REMARK    4  A    between atoms: C7_10  and  C8_11 
REMARK    5  A    between atoms: C11_14  and  C12_15 
REMARK       I    between atoms: C12_15  and  N3_17 
REMARK    6  A    between atoms: N3_17  and  C13_18 
REMARK    7  A    between atoms: C18_23  and  N4_24 
ROOT
ATOM      1  C8  NON d   1      -2.513   1.441  -0.002  0.00  0.00    -0.041 A 
ATOM      2  C9  NON d   1      -3.289   0.281   0.182  0.00  0.00     0.010 A 
ATOM      3  C10 NON d   1      -4.693   0.339   0.239  0.00  0.00     0.017 A 
ATOM      4  C11 NON d   1      -5.353   1.566   0.108  0.00  0.00     0.032 A 
ATOM      5  C19 NON d   1      -4.588   2.720  -0.102  0.00  0.00     0.017 A 
ATOM      6  C20 NON d   1      -3.192   2.656  -0.174  0.00  0.00     0.010 A 
ENDROOT
BRANCH   1   7
ATOM      7  C7  NON d   1      -0.992   1.318   0.003  0.00  0.00     0.160 C 
BRANCH   7   8
ATOM      8  N2  NON d   1      -0.333   2.610  -0.030  0.00  0.00    -0.365 N 
ATOM      9  H6  NON d   1      -0.776   3.327   0.530  0.00  0.00     0.162 HD
BRANCH   8  10
ATOM     10  C6  NON d   1       1.018   2.683  -0.041  0.00  0.00     0.168 A 
ATOM     11  N1  NON d   1       1.853   1.677  -0.133  0.00  0.00    -0.224 NA
ATOM     12  C5  NON d   1       3.162   2.136  -0.073  0.00  0.00     0.077 A 
ATOM     13  C4  NON d   1       4.330   1.347  -0.103  0.00  0.00     0.036 A 
ATOM     14  C21 NON d   1       3.305   3.519   0.029  0.00  0.00     0.040 A 
ATOM     15  C3  NON d   1       5.595   1.956  -0.048  0.00  0.00     0.039 A 
ATOM     16  C2  NON d   1       5.711   3.341   0.025  0.00  0.00     0.069 A 
ATOM     17  C22 NON d   1       4.564   4.138   0.071  0.00  0.00     0.058 A 
ATOM     18  S1  NON d   1       1.748   4.235   0.100  0.00  0.00    -0.050 SA
BRANCH  16  19
ATOM     19  O1  NON d   1       6.881   4.051   0.067  0.00  0.00    -0.356 OA
ATOM     20  C1  NON d   1       8.092   3.318  -0.068  0.00  0.00     0.210 C 
ENDBRANCH  16  19
ENDBRANCH   8  10
ENDBRANCH   7   8
ENDBRANCH   1   7
BRANCH   4  21
ATOM     21  C12 NON d   1      -6.838   1.740   0.233  0.00  0.00     0.256 C 
ATOM     22  O2  NON d   1      -7.247   2.832   0.617  0.00  0.00    -0.267 OA
ATOM     23  N3  NON d   1      -7.621   0.643  -0.070  0.00  0.00    -0.321 N 
ATOM     24  H11 NON d   1      -7.138  -0.216  -0.287  0.00  0.00     0.169 HD
BRANCH  23  25
ATOM     25  C13 NON d   1      -9.041   0.526  -0.040  0.00  0.00     0.056 A 
ATOM     26  C14 NON d   1      -9.521  -0.798  -0.009  0.00  0.00     0.031 A 
ATOM     27  C15 NON d   1     -10.888  -1.081   0.029  0.00  0.00     0.002 A 
ATOM     28  C16 NON d   1     -11.806  -0.042   0.004  0.00  0.00     0.002 A 
ATOM     29  C17 NON d   1     -11.352   1.273  -0.057  0.00  0.00     0.025 A 
ATOM     30  C18 NON d   1      -9.978   1.585  -0.042  0.00  0.00     0.033 A 
BRANCH  30  31
ATOM     31  N4  NON d   1      -9.642   2.925  -0.317  0.00  0.00    -0.301 NA
ATOM     32  H16 NON d   1      -8.701   3.142   0.030  0.00  0.00     0.124 HD
ATOM     33  H17 NON d   1     -10.310   3.591   0.055  0.00  0.00     0.124 HD
ENDBRANCH  30  31
ENDBRANCH  23  25
ENDBRANCH   4  21
TORSDOF 7
