@<TRIPOS>MOLECULE
*****
 45 48 0 0 0
SMALL
USER_CHARGES

@<TRIPOS>ATOM
      1 N1         -8.8388   -6.1617    0.0754 N.pl3   1  NONAME1    -0.3565
      2 C1         -9.6774   -5.0178    0.0560 C.ar    1  NONAME1     0.0461
      3 C2        -11.0651   -5.1738    0.1638 C.ar    1  NONAME1    -0.0392
      4 C3        -11.9062   -4.0627    0.1166 C.ar    1  NONAME1    -0.0599
      5 C4        -11.3639   -2.7880   -0.0164 C.ar    1  NONAME1    -0.0599
      6 C5         -9.9790   -2.6171   -0.0797 C.ar    1  NONAME1    -0.0387
      7 C6         -9.1224   -3.7208   -0.0222 C.ar    1  NONAME1     0.0545
      8 N2         -7.7073   -3.6244   -0.0037 N.am    1  NONAME1    -0.2800
      9 C7         -6.9457   -2.4811   -0.1554 C.2     1  NONAME1     0.2483
     10 O1         -7.3974   -1.3592   -0.3700 O.2     1  NONAME1    -0.2699
     11 C8         -5.4525   -2.6237   -0.0655 C.ar    1  NONAME1     0.0370
     12 C9         -4.6990   -1.4418   -0.0895 C.ar    1  NONAME1    -0.0493
     13 C10        -3.3007   -1.4660   -0.0424 C.ar    1  NONAME1    -0.0564
     14 C11        -2.6023   -2.6770    0.0374 C.ar    1  NONAME1    -0.0302
     15 C12        -1.0840   -2.7754    0.1251 C.3     1  NONAME1     0.0384
     16 N3         -0.4120   -1.5164   -0.1248 N.pl3   1  NONAME1    -0.2947
     17 C13         0.9282   -1.4371   -0.1133 C.ar    1  NONAME1     0.2887
     18 N4          1.6330   -0.3349    0.0091 N.ar    1  NONAME1    -0.1954
     19 C14         2.9306   -0.7690   -0.0166 C.ar    1  NONAME1     0.1126
     20 C15         4.1351   -0.0605    0.0634 C.ar    1  NONAME1    -0.0142
     21 C16         5.3232   -0.7994    0.0292 C.ar    1  NONAME1     0.0432
     22 Cl1         6.8293    0.0326    0.1293 Cl      1  NONAME1    -0.0835
     23 C17         5.3181   -2.1964   -0.0810 C.ar    1  NONAME1    -0.0398
     24 C18         4.1171   -2.9146   -0.1701 C.ar    1  NONAME1    -0.0157
     25 C19         2.9580   -2.1491   -0.1361 C.ar    1  NONAME1     0.1571
     26 O2          1.6654   -2.5860   -0.2059 O.2     1  NONAME1    -0.4245
     27 C20        -3.3609   -3.8623    0.0682 C.ar    1  NONAME1    -0.0564
     28 C21        -4.7668   -3.8407    0.0117 C.ar    1  NONAME1    -0.0493
     29 H1         -9.3793   -7.0240    0.0561 H       1  NONAME1     0.1424
     30 H2         -8.2040   -6.1358   -0.7201 H       1  NONAME1     0.1424
     31 H3        -11.5065   -6.1611    0.2644 H       1  NONAME1     0.0636
     32 H4        -12.9842   -4.1888    0.1814 H       1  NONAME1     0.0618
     33 H5        -12.0141   -1.9174   -0.0541 H       1  NONAME1     0.0618
     34 H6         -9.6001   -1.6025   -0.1475 H       1  NONAME1     0.0637
     35 H7         -7.2602   -4.5029    0.2155 H       1  NONAME1     0.1552
     36 H8         -5.1992   -0.4758   -0.1537 H       1  NONAME1     0.0625
     37 H9         -2.7904   -0.5085   -0.0834 H       1  NONAME1     0.0621
     38 H10        -0.7532   -3.5190   -0.6115 H       1  NONAME1     0.0512
     39 H11        -0.8265   -3.1398    1.1274 H       1  NONAME1     0.0512
     40 H12        -0.8346   -0.7080    0.3121 H       1  NONAME1     0.1507
     41 H13         4.1328    1.0197    0.1503 H       1  NONAME1     0.0654
     42 H14         6.2613   -2.7398   -0.0990 H       1  NONAME1     0.0633
     43 H15         4.0905   -3.9934   -0.2564 H       1  NONAME1     0.0655
     44 H16        -2.8569   -4.8265    0.1289 H       1  NONAME1     0.0621
     45 H17        -5.2841   -4.7936    0.0184 H       1  NONAME1     0.0625
@<TRIPOS>BOND
     1     1     2    1
     2     2     3   ar
     3     3     4   ar
     4     4     5   ar
     5     5     6   ar
     6     6     7   ar
     7     2     7   ar
     8     7     8    1
     9     8     9   am
    10     9    10    2
    11     9    11    1
    12    11    12   ar
    13    12    13   ar
    14    13    14   ar
    15    14    15    1
    16    15    16    1
    17    16    17    1
    18    17    18   ar
    19    18    19   ar
    20    19    20   ar
    21    20    21   ar
    22    21    22    1
    23    21    23   ar
    24    23    24   ar
    25    24    25   ar
    26    19    25   ar
    27    25    26   ar
    28    17    26   ar
    29    14    27   ar
    30    27    28   ar
    31    11    28   ar
    32     1    29    1
    33     1    30    1
    34     3    31    1
    35     4    32    1
    36     5    33    1
    37     6    34    1
    38     8    35    1
    39    12    36    1
    40    13    37    1
    41    15    38    1
    42    15    39    1
    43    16    40    1
    44    20    41    1
    45    23    42    1
    46    24    43    1
    47    27    44    1
    48    28    45    1
