REMARK  14 active torsions:
REMARK  status: ('A' for Active; 'I' for Inactive)
REMARK    1  A    between atoms: C2_2  and  S1_4 
REMARK    2  A    between atoms: S1_4  and  C3_5 
REMARK    3  A    between atoms: C3_5  and  C4_6 
REMARK    4  A    between atoms: C4_6  and  C5_7 
REMARK    5  A    between atoms: C5_7  and  C6_8 
REMARK    6  A    between atoms: C6_8  and  C7_9 
REMARK    7  A    between atoms: C8_10  and  C7_9 
REMARK    8  A    between atoms: C15_21  and  C16_22 
REMARK    9  A    between atoms: C16_22  and  C17_23 
REMARK   10  A    between atoms: C17_23  and  O4_24 
REMARK   11  A    between atoms: O4_24  and  C18_25 
REMARK   12  A    between atoms: C18_25  and  C19_26 
REMARK   13  A    between atoms: C19_26  and  S2_27 
REMARK   14  A    between atoms: S2_27  and  C20_28 
ROOT
ATOM      1  C8  NON d   1      -0.801   0.885  -0.930  0.00  0.00     0.155 C 
ATOM      2  N1  NON d   1      -0.566  -0.416  -0.292  0.00  0.00    -0.248 NA
ATOM      3  C9  NON d   1      -1.485  -1.446  -0.268  0.00  0.00     0.221 C 
ATOM      4  O2  NON d   1      -2.691  -1.268  -0.412  0.00  0.00    -0.278 OA
ATOM      5  C10 NON d   1      -0.834  -2.866  -0.317  0.00  0.00     0.173 C 
ATOM      6  C11 NON d   1      -1.753  -3.923   0.283  0.00  0.00     0.036 C 
ATOM      7  C12 NON d   1      -0.814  -5.112   0.399  0.00  0.00     0.022 C 
ATOM      8  C13 NON d   1       0.516  -4.485   0.823  0.00  0.00     0.127 C 
ATOM      9  N2  NON d   1       0.460  -3.094   0.379  0.00  0.00    -0.337 N 
ATOM     10  C14 NON d   1       1.619  -2.558  -0.156  0.00  0.00     0.243 C 
ATOM     11  O3  NON d   1       1.586  -2.056  -1.291  0.00  0.00    -0.271 OA
ATOM     12  C15 NON d   1       2.838  -2.241   0.786  0.00  0.00     0.179 C 
ATOM     13  N3  NON d   1       3.011  -0.814   0.404  0.00  0.00    -0.346 N 
ATOM     14  C22 NON d   1       3.410   0.379   1.006  0.00  0.00     0.246 C 
ATOM     15  O6  NON d   1       3.938   0.486   2.100  0.00  0.00    -0.271 OA
ATOM     16  C23 NON d   1       3.080   1.540   0.000  0.00  0.00     0.106 C 
ATOM     17  C24 NON d   1       3.920   1.328  -1.291  0.00  0.00     0.048 C 
ATOM     18  C25 NON d   1       2.813   3.057   0.000  0.00  0.00     0.048 C 
ATOM     19  N4  NON d   1       1.584   1.067  -0.264  0.00  0.00    -0.342 N 
ATOM     20  C26 NON d   1       0.560   1.672  -0.988  0.00  0.00     0.236 C 
ATOM     21  O7  NON d   1       0.693   2.704  -1.636  0.00  0.00    -0.272 OA
ATOM     22  H15 NON d   1       0.333  -0.779  -0.592  0.00  0.00     0.131 HD
ATOM     23  H35 NON d   1       2.652  -0.668  -0.545  0.00  0.00     0.163 HD
ATOM     24  H42 NON d   1       1.206   0.525   0.512  0.00  0.00     0.163 HD
ENDROOT
BRANCH   1  25
ATOM     25  C7  NON d   1      -2.041   1.734  -0.545  0.00  0.00     0.029 C 
BRANCH  25  26
ATOM     26  C6  NON d   1      -2.552   1.758   0.904  0.00  0.00     0.002 C 
BRANCH  26  27
ATOM     27  C5  NON d   1      -3.981   2.359   1.037  0.00  0.00     0.001 C 
BRANCH  27  28
ATOM     28  C4  NON d   1      -4.070   3.883   1.244  0.00  0.00     0.010 C 
BRANCH  28  29
ATOM     29  C3  NON d   1      -4.039   4.696  -0.051  0.00  0.00     0.082 C 
BRANCH  29  30
ATOM     30  S1  NON d   1      -3.817   6.474   0.287  0.00  0.00    -0.093 SA
BRANCH  30  31
ATOM     31  C2  NON d   1      -5.477   7.048   0.220  0.00  0.00     0.182 C 
ATOM     32  C1  NON d   1      -5.607   8.540   0.053  0.00  0.00     0.104 C 
ATOM     33  O1  NON d   1      -6.441   6.304   0.350  0.00  0.00    -0.286 OA
ENDBRANCH  30  31
ENDBRANCH  29  30
ENDBRANCH  28  29
ENDBRANCH  27  28
ENDBRANCH  26  27
ENDBRANCH  25  26
ENDBRANCH   1  25
BRANCH  12  34
ATOM     34  C16 NON d   1       4.088  -3.012   0.358  0.00  0.00     0.061 C 
BRANCH  34  35
ATOM     35  C17 NON d   1       4.568  -4.009   1.403  0.00  0.00     0.170 C 
BRANCH  35  36
ATOM     36  O4  NON d   1       3.699  -5.135   1.438  0.00  0.00    -0.390 OA
BRANCH  36  37
ATOM     37  C18 NON d   1       3.991  -6.059   2.498  0.00  0.00     0.178 C 
BRANCH  37  38
ATOM     38  C19 NON d   1       5.275  -6.880   2.310  0.00  0.00     0.108 C 
BRANCH  38  39
ATOM     39  S2  NON d   1       6.740  -6.063   3.035  0.00  0.00    -0.091 SA
BRANCH  39  40
ATOM     40  C20 NON d   1       7.976  -7.223   2.559  0.00  0.00     0.182 C 
ATOM     41  C21 NON d   1       9.374  -6.674   2.571  0.00  0.00     0.104 C 
ATOM     42  O5  NON d   1       7.704  -8.370   2.230  0.00  0.00    -0.286 OA
ENDBRANCH  39  40
ENDBRANCH  38  39
ENDBRANCH  37  38
ENDBRANCH  36  37
ENDBRANCH  35  36
ENDBRANCH  34  35
ENDBRANCH  12  34
TORSDOF 14
