@<TRIPOS>MOLECULE
*****
 72 75 0 0 0
SMALL
USER_CHARGES

@<TRIPOS>ATOM
      1 C1         -1.9932    4.0499    0.0000 C.3     1  NONAME1     0.0788
      2 O1         -0.6449    3.3058    0.0000 O.3     1  NONAME1    -0.4951
      3 C2          0.5621    3.9737   -0.0494 C.ar    1  NONAME1     0.1208
      4 C3          0.6358    5.3522   -0.1046 C.ar    1  NONAME1    -0.0180
      5 C4          1.8793    5.9886   -0.1066 C.ar    1  NONAME1    -0.0343
      6 C5          3.0568    5.2199   -0.0472 C.ar    1  NONAME1     0.0472
      7 N1          4.3476    5.6637   -0.0073 N.ar    1  NONAME1    -0.3579
      8 C6          5.2421    4.6341    0.1120 C.ar    1  NONAME1     0.0175
      9 C7          6.6816    4.9960    0.2624 C.3     1  NONAME1    -0.0242
     10 C8          4.5457    3.4233    0.0287 C.ar    1  NONAME1    -0.0106
     11 C9          5.1656    1.9874    0.0407 C.3     1  NONAME1     0.0513
     12 C10         6.7279    1.8077   -0.1799 C.2     1  NONAME1     0.2180
     13 O2          7.3803    2.5434   -0.9170 O.2     1  NONAME1    -0.2754
     14 N2          7.3368    0.7203    0.4660 N.am    1  NONAME1    -0.3037
     15 C11         8.8247    0.3446    0.5594 C.3     1  NONAME1     0.0997
     16 C12         9.7635    1.2286   -0.3082 C.3     1  NONAME1    -0.0259
     17 C13        11.2950    1.0257   -0.2176 C.3     1  NONAME1    -0.0497
     18 C14        11.9929    0.5794   -1.5203 C.3     1  NONAME1    -0.0387
     19 C15        11.4170   -0.6841   -2.1422 C.3     1  NONAME1     0.0184
     20 N3         12.1107   -1.1083   -3.3827 N.3     1  NONAME1    -0.1801
     21 S1         13.5861   -1.8637   -3.1693 S.O2    1  NONAME1     0.0921
     22 N4         13.6777   -2.4905   -4.7016 N.3     1  NONAME1    -0.1934
     23 O3         13.4347   -2.9747   -2.2728 O.2     1  NONAME1    -0.1415
     24 O4         14.6288   -0.8804   -3.0644 O.2     1  NONAME1    -0.1415
     25 C16         9.0016   -1.2122    0.3161 C.2     1  NONAME1     0.2390
     26 O5          8.1149   -1.8209   -0.2900 O.2     1  NONAME1    -0.2734
     27 N5         10.1751   -1.7870    0.8093 N.am    1  NONAME1    -0.2631
     28 C17        10.6572   -3.0773    0.5711 C.ar    1  NONAME1     0.1650
     29 N6         11.8929   -3.4417    0.8385 N.ar    1  NONAME1    -0.2246
     30 C18        12.1231   -4.7632    0.3943 C.ar    1  NONAME1     0.0802
     31 C19        13.4366   -5.4457    0.4108 C.ar    1  NONAME1     0.0009
     32 C20        14.6289   -4.7190    0.3422 C.ar    1  NONAME1    -0.0525
     33 C21        15.8711   -5.3737    0.2430 C.ar    1  NONAME1    -0.0611
     34 C22        15.9429   -6.7665    0.2204 C.ar    1  NONAME1    -0.0617
     35 C23        14.7696   -7.5079    0.3122 C.ar    1  NONAME1    -0.0611
     36 C24        13.5323   -6.8537    0.4110 C.ar    1  NONAME1    -0.0525
     37 C25        10.9949   -5.3646   -0.1308 C.ar    1  NONAME1     0.0049
     38 S2          9.6710   -4.2823   -0.1198 S.2     1  NONAME1    -0.0599
     39 C26         3.0911    3.8228   -0.0151 C.ar    1  NONAME1     0.0070
     40 C27         1.7858    3.2004   -0.0226 C.ar    1  NONAME1    -0.0105
     41 H1         -1.9112    4.3518    1.0609 H       1  NONAME1     0.0660
     42 H2         -3.3415    4.7940    0.0000 H       1  NONAME1     0.0660
     43 H3         -2.5790    3.1147   -0.0374 H       1  NONAME1     0.0660
     44 H4         -0.2577    5.9656   -0.1368 H       1  NONAME1     0.0655
     45 H5          1.9297    7.0737   -0.1387 H       1  NONAME1     0.0639
     46 H6          4.6022    6.6417   -0.0199 H       1  NONAME1     0.1656
     47 H7          7.1913    4.3309    0.9664 H       1  NONAME1     0.0292
     48 H8          7.1879    4.9763   -0.7066 H       1  NONAME1     0.0292
     49 H9          6.7899    6.0127    0.6558 H       1  NONAME1     0.0292
     50 H10         4.6855    1.4153   -0.7627 H       1  NONAME1     0.0408
     51 H11         4.9017    1.5219    0.9965 H       1  NONAME1     0.0408
     52 H12         6.7117   -0.0293    0.7417 H       1  NONAME1     0.1495
     53 H13         9.0681    0.5083    1.6173 H       1  NONAME1     0.0595
     54 H14         9.5974    2.2631    0.0219 H       1  NONAME1     0.0288
     55 H15         9.4490    1.1909   -1.3546 H       1  NONAME1     0.0288
     56 H16        11.5819    0.3762    0.6080 H       1  NONAME1     0.0266
     57 H17        11.7409    1.9965    0.0438 H       1  NONAME1     0.0266
     58 H18        11.9548    1.3972   -2.2500 H       1  NONAME1     0.0278
     59 H19        13.0556    0.4294   -1.2911 H       1  NONAME1     0.0278
     60 H20        10.3682   -0.5268   -2.4135 H       1  NONAME1     0.0442
     61 H21        11.4367   -1.5110   -1.4365 H       1  NONAME1     0.0442
     62 H22        11.5186   -1.7857   -3.8685 H       1  NONAME1     0.1491
     63 H23        13.9778   -1.7519   -5.3445 H       1  NONAME1     0.1453
     64 H24        14.3376   -3.2659   -4.7026 H       1  NONAME1     0.1453
     65 H25        10.8473   -1.2328    1.3175 H       1  NONAME1     0.1568
     66 H26        14.6069   -3.6316    0.3188 H       1  NONAME1     0.0624
     67 H27        16.7889   -4.7905    0.1632 H       1  NONAME1     0.0618
     68 H28        16.9000   -7.2679    0.1292 H       1  NONAME1     0.0618
     69 H29        14.8126   -8.5933    0.2925 H       1  NONAME1     0.0618
     70 H30        12.6429   -7.4731    0.4772 H       1  NONAME1     0.0624
     71 H31        10.8856   -6.3541   -0.5504 H       1  NONAME1     0.0716
     72 H32         1.7190    2.1165    0.0118 H       1  NONAME1     0.0661
@<TRIPOS>BOND
     1     1     2    1
     2     2     3    1
     3     3     4   ar
     4     4     5   ar
     5     5     6   ar
     6     6     7   ar
     7     7     8   ar
     8     8     9    1
     9     8    10   ar
    10    10    11    1
    11    11    12    1
    12    12    13    2
    13    12    14   am
    14    15    14    1
    15    15    16    1
    16    16    17    1
    17    17    18    1
    18    18    19    1
    19    19    20    1
    20    20    21    1
    21    21    22    1
    22    21    23    2
    23    21    24    2
    24    15    25    1
    25    25    26    2
    26    25    27   am
    27    27    28    1
    28    28    29   ar
    29    29    30   ar
    30    30    31    1
    31    31    32   ar
    32    32    33   ar
    33    33    34   ar
    34    34    35   ar
    35    35    36   ar
    36    31    36   ar
    37    30    37   ar
    38    37    38   ar
    39    28    38   ar
    40    10    39   ar
    41     6    39   ar
    42    39    40   ar
    43     3    40   ar
    44     1    41    1
    45     1    42    1
    46     1    43    1
    47     4    44    1
    48     5    45    1
    49     7    46    1
    50     9    47    1
    51     9    48    1
    52     9    49    1
    53    11    50    1
    54    11    51    1
    55    14    52    1
    56    15    53    1
    57    16    54    1
    58    16    55    1
    59    17    56    1
    60    17    57    1
    61    18    58    1
    62    18    59    1
    63    19    60    1
    64    19    61    1
    65    20    62    1
    66    22    63    1
    67    22    64    1
    68    27    65    1
    69    32    66    1
    70    33    67    1
    71    34    68    1
    72    35    69    1
    73    36    70    1
    74    37    71    1
    75    40    72    1
