REMARK  8 active torsions:
REMARK  status: ('A' for Active; 'I' for Inactive)
REMARK    1  A    between atoms: C5_5  and  N1_6 
REMARK       I    between atoms: N1_6  and  C6_7 
REMARK    2  A    between atoms: C6_7  and  C7_9 
REMARK    3  A    between atoms: C10_12  and  C11_13 
REMARK    4  A    between atoms: C12_14  and  C13_15 
REMARK       I    between atoms: C13_15  and  N2_17 
REMARK    5  A    between atoms: N2_17  and  O3_18 
REMARK    6  A    between atoms: C17_22  and  N3_23 
REMARK    7  A    between atoms: N3_23  and  C18_24 
REMARK    8  A    between atoms: C20_27  and  C21_28 
ROOT
ATOM      1  C1  NON d   1      -1.334  -2.310   0.000  0.00  0.00     0.050 C 
ATOM      2  C2  NON d   1      -1.334  -0.770   0.000  0.00  0.00    -0.040 A 
ATOM      3  C3  NON d   1      -2.499  -0.062  -0.305  0.00  0.00     0.011 A 
ATOM      4  C4  NON d   1      -2.500   1.329  -0.272  0.00  0.00     0.030 A 
ATOM      5  C5  NON d   1      -1.352   2.044   0.075  0.00  0.00     0.036 A 
ATOM      6  C16 NON d   1      -0.176   1.324   0.360  0.00  0.00     0.053 A 
ATOM      7  C17 NON d   1      -0.132  -0.092   0.315  0.00  0.00     0.022 A 
ENDROOT
BRANCH   5   8
ATOM      8  N1  NON d   1      -1.316   3.466   0.150  0.00  0.00    -0.323 N 
ATOM      9  C6  NON d   1      -2.410   4.312   0.009  0.00  0.00     0.256 C 
ATOM     10  O1  NON d   1      -3.572   3.941  -0.149  0.00  0.00    -0.267 OA
ATOM     11  H6  NON d   1      -0.423   3.869   0.388  0.00  0.00     0.169 HD
BRANCH   9  12
ATOM     12  C7  NON d   1      -2.191   5.794   0.071  0.00  0.00     0.032 A 
ATOM     13  C8  NON d   1      -3.338   6.599   0.113  0.00  0.00     0.018 A 
ATOM     14  C9  NON d   1      -3.252   7.994   0.133  0.00  0.00     0.012 A 
ATOM     15  C10 NON d   1      -2.008   8.635   0.115  0.00  0.00    -0.036 A 
ATOM     16  C14 NON d   1      -0.858   7.833   0.078  0.00  0.00     0.012 A 
ATOM     17  C15 NON d   1      -0.942   6.424   0.051  0.00  0.00     0.018 A 
BRANCH  15  18
ATOM     18  C11 NON d   1      -2.006  10.108   0.150  0.00  0.00     0.017 C 
ATOM     19  C12 NON d   1      -0.937  10.913   0.061  0.00  0.00     0.077 C 
BRANCH  19  20
ATOM     20  C13 NON d   1      -1.127  12.383   0.139  0.00  0.00     0.264 C 
ATOM     21  O2  NON d   1      -2.187  12.919   0.445  0.00  0.00    -0.266 OA
ATOM     22  N2  NON d   1       0.003  13.096  -0.156  0.00  0.00    -0.234 N 
ATOM     23  H11 NON d   1       0.897  12.710  -0.430  0.00  0.00     0.197 HD
BRANCH  22  24
ATOM     24  O3  NON d   1      -0.090  14.502  -0.066  0.00  0.00    -0.287 OA
ATOM     25  H12 NON d   1      -1.011  14.632   0.249  0.00  0.00     0.244 HD
ENDBRANCH  22  24
ENDBRANCH  19  20
ENDBRANCH  15  18
ENDBRANCH   9  12
ENDBRANCH   5   8
BRANCH   7  26
ATOM     26  N3  NON d   1       1.123  -0.719   0.663  0.00  0.00    -0.237 NA
ATOM     27  H16 NON d   1       1.831  -0.188   0.156  0.00  0.00     0.136 HD
BRANCH  26  28
ATOM     28  C18 NON d   1       1.405  -2.050   0.544  0.00  0.00     0.150 C 
ATOM     29  N4  NON d   1       2.114  -2.542  -0.450  0.00  0.00    -0.240 NA
ATOM     30  C19 NON d   1       2.042  -3.925  -0.444  0.00  0.00     0.139 C 
ATOM     31  C20 NON d   1       1.321  -4.496   0.591  0.00  0.00     0.037 C 
ATOM     32  S1  NON d   1       0.988  -3.247   1.739  0.00  0.00    -0.056 SA
BRANCH  31  33
ATOM     33  C21 NON d   1       0.832  -5.878   0.730  0.00  0.00     0.000 A 
ATOM     34  C22 NON d   1       1.562  -6.965   0.237  0.00  0.00     0.016 A 
ATOM     35  C23 NON d   1       0.993  -8.242   0.202  0.00  0.00     0.020 A 
ATOM     36  C24 NON d   1      -0.302  -8.403   0.661  0.00  0.00     0.116 A 
ATOM     37  N5  NON d   1      -1.035  -7.396   1.173  0.00  0.00    -0.272 NA
ATOM     38  C25 NON d   1      -0.452  -6.169   1.201  0.00  0.00     0.129 A 
ENDBRANCH  31  33
ENDBRANCH  26  28
ENDBRANCH   7  26
TORSDOF 8
