@<TRIPOS>MOLECULE
*****
 53 54 0 0 0
SMALL
USER_CHARGES

@<TRIPOS>ATOM
      1 C1         13.3786  -19.5854   -1.9684 C.3     1  NONAME1     0.0005
      2 N1         13.8664  -18.6148   -1.0254 N.am    1  NONAME1    -0.3120
      3 C2         15.1102  -18.0385   -1.1432 C.2     1  NONAME1     0.2793
      4 O1         15.8999  -18.2219   -2.0556 O.2     1  NONAME1    -0.2671
      5 C3         15.4748  -17.1116    0.0215 C.2     1  NONAME1     0.2172
      6 O2         14.6737  -16.9630    0.9390 O.2     1  NONAME1    -0.2872
      7 C4         16.8444  -16.4749   -0.0636 C.3     1  NONAME1     0.0151
      8 C5         17.1468  -15.5487    1.1080 C.3     1  NONAME1    -0.0459
      9 C6         18.4484  -14.7512    0.9507 C.3     1  NONAME1    -0.0526
     10 C7         19.7467  -15.5468    1.1609 C.3     1  NONAME1    -0.0526
     11 C8         20.2895  -16.2186   -0.1087 C.3     1  NONAME1    -0.0448
     12 C9         21.6626  -16.8795    0.0961 C.3     1  NONAME1     0.0243
     13 C10        22.8142  -15.8838    0.0770 C.2     1  NONAME1     0.2172
     14 O3         22.6070  -14.6746    0.0591 O.2     1  NONAME1    -0.2755
     15 N2         24.0613  -16.5033    0.0837 N.am    1  NONAME1    -0.2855
     16 C11        25.3258  -15.8592    0.0526 C.ar    1  NONAME1     0.0340
     17 C12        25.4637  -14.4758    0.0221 C.ar    1  NONAME1    -0.0404
     18 C13        26.7228  -13.8947   -0.0083 C.ar    1  NONAME1    -0.0594
     19 C14        27.8649  -14.6938   -0.0112 C.ar    1  NONAME1    -0.0539
     20 C15        27.8020  -16.1011    0.0176 C.ar    1  NONAME1    -0.0161
     21 C16        29.0582  -16.9321    0.0145 C.ar    1  NONAME1    -0.0178
     22 C17        30.3448  -16.3434   -0.0046 C.ar    1  NONAME1    -0.0540
     23 C18        31.5264  -17.0975   -0.0060 C.ar    1  NONAME1    -0.0612
     24 C19        31.4659  -18.4809    0.0123 C.ar    1  NONAME1    -0.0617
     25 C20        30.2240  -19.1031    0.0306 C.ar    1  NONAME1    -0.0612
     26 C21        29.0433  -18.3409    0.0311 C.ar    1  NONAME1    -0.0540
     27 C22        26.4949  -16.6554    0.0494 C.ar    1  NONAME1    -0.0328
     28 H1         13.8107  -19.4150   -2.9583 H       1  NONAME1     0.0426
     29 H2         13.6585  -20.5816   -1.6169 H       1  NONAME1     0.0426
     30 H3         12.2907  -19.5054   -2.0180 H       1  NONAME1     0.0426
     31 H4         13.3579  -18.4335   -0.1631 H       1  NONAME1     0.1488
     32 H5         17.5665  -17.2935   -0.0881 H       1  NONAME1     0.0347
     33 H6         16.8971  -15.9123   -1.0022 H       1  NONAME1     0.0347
     34 H7         16.3226  -14.8303    1.2112 H       1  NONAME1     0.0269
     35 H8         17.1678  -16.1202    2.0441 H       1  NONAME1     0.0269
     36 H9         18.4259  -13.9639    1.7165 H       1  NONAME1     0.0265
     37 H10        18.4638  -14.2319   -0.0150 H       1  NONAME1     0.0265
     38 H11        20.5005  -14.8409    1.5299 H       1  NONAME1     0.0265
     39 H12        19.6093  -16.2913    1.9535 H       1  NONAME1     0.0265
     40 H13        20.3445  -15.4847   -0.9220 H       1  NONAME1     0.0270
     41 H14        19.5966  -16.9973   -0.4345 H       1  NONAME1     0.0270
     42 H15        21.6857  -17.4350    1.0402 H       1  NONAME1     0.0358
     43 H16        21.8279  -17.5907   -0.7224 H       1  NONAME1     0.0358
     44 H17        24.0718  -17.5159    0.1027 H       1  NONAME1     0.1548
     45 H18        24.6114  -13.8055    0.0202 H       1  NONAME1     0.0636
     46 H19        26.8154  -12.8122   -0.0329 H       1  NONAME1     0.0618
     47 H20        28.8094  -14.1612   -0.0367 H       1  NONAME1     0.0624
     48 H21        30.4776  -15.2665   -0.0183 H       1  NONAME1     0.0624
     49 H22        32.4900  -16.5923   -0.0210 H       1  NONAME1     0.0618
     50 H23        32.3794  -19.0686    0.0122 H       1  NONAME1     0.0618
     51 H24        30.1679  -20.1887    0.0445 H       1  NONAME1     0.0618
     52 H25        28.1111  -18.8961    0.0449 H       1  NONAME1     0.0624
     53 H26        26.3694  -17.7332    0.0720 H       1  NONAME1     0.0642
@<TRIPOS>BOND
     1     1     2    1
     2     2     3   am
     3     3     4    2
     4     3     5    1
     5     5     6    2
     6     5     7    1
     7     7     8    1
     8     8     9    1
     9     9    10    1
    10    10    11    1
    11    11    12    1
    12    12    13    1
    13    13    14    2
    14    13    15   am
    15    15    16    1
    16    16    17   ar
    17    17    18   ar
    18    18    19   ar
    19    19    20   ar
    20    20    21    1
    21    21    22   ar
    22    22    23   ar
    23    23    24   ar
    24    24    25   ar
    25    25    26   ar
    26    21    26   ar
    27    20    27   ar
    28    16    27   ar
    29     1    28    1
    30     1    29    1
    31     1    30    1
    32     2    31    1
    33     7    32    1
    34     7    33    1
    35     8    34    1
    36     8    35    1
    37     9    36    1
    38     9    37    1
    39    10    38    1
    40    10    39    1
    41    11    40    1
    42    11    41    1
    43    12    42    1
    44    12    43    1
    45    15    44    1
    46    17    45    1
    47    18    46    1
    48    19    47    1
    49    22    48    1
    50    23    49    1
    51    24    50    1
    52    25    51    1
    53    26    52    1
    54    27    53    1
