@<TRIPOS>MOLECULE
*****
 61 65 0 0 0
SMALL
USER_CHARGES

@<TRIPOS>ATOM
      1 O1         -1.2230   -9.5768   -0.0139 O.2     1  NONAME1    -0.2687
      2 C1         -2.2943   -8.9793    0.0267 C.2     1  NONAME1     0.2593
      3 C2         -2.3673   -7.4959    0.0801 C.2     1  NONAME1     0.0027
      4 C3         -1.2503   -6.7586   -0.0383 C.2     1  NONAME1    -0.0496
      5 C4         -1.1878   -5.2830   -0.0211 C.ar    1  NONAME1    -0.0243
      6 C5         -2.3362   -4.4883   -0.0371 C.ar    1  NONAME1    -0.0546
      7 C6         -2.2283   -3.1060   -0.0478 C.ar    1  NONAME1    -0.0606
      8 C7         -0.9695   -2.5020   -0.0484 C.ar    1  NONAME1    -0.0540
      9 C8          0.2324   -3.2428   -0.0306 C.ar    1  NONAME1    -0.0173
     10 C9          1.5737   -2.5600   -0.0162 C.ar    1  NONAME1    -0.0171
     11 C10         1.6737   -1.1607    0.0299 C.ar    1  NONAME1    -0.0520
     12 C11         2.9031   -0.4972    0.0508 C.ar    1  NONAME1    -0.0350
     13 C12         4.0996   -1.1780    0.0440 C.ar    1  NONAME1     0.0760
     14 N1          5.2040   -0.4354    0.0735 N.ar    1  NONAME1    -0.2353
     15 C13         6.3575   -1.0959    0.0722 C.ar    1  NONAME1     0.1187
     16 N2          6.4967   -2.4210    0.0596 N.ar    1  NONAME1    -0.2200
     17 C14         5.3794   -3.1719    0.0409 C.ar    1  NONAME1     0.1339
     18 N3          5.5091   -4.5892   -0.0017 N.pl3   1  NONAME1    -0.2988
     19 C15         6.6686   -5.4085    0.0239 C.ar    1  NONAME1     0.0340
     20 C16         7.9768   -4.9464   -0.1036 C.ar    1  NONAME1    -0.0370
     21 C17         9.0680   -5.8287   -0.0995 C.ar    1  NONAME1    -0.0167
     22 C18         8.9011   -7.2167   -0.0171 C.ar    1  NONAME1     0.1393
     23 O2         10.1067   -7.8641   -0.0244 O.3     1  NONAME1    -0.4859
     24 C19        10.1696   -9.2853    0.0097 C.3     1  NONAME1     0.1148
     25 C20        11.5987   -9.7985   -0.0085 C.ar    1  NONAME1    -0.0077
     26 C21        12.7203   -8.9546   -0.0013 C.ar    1  NONAME1    -0.0552
     27 C22        14.0162   -9.4852   -0.0114 C.ar    1  NONAME1    -0.0587
     28 C23        14.2059  -10.8656   -0.0273 C.ar    1  NONAME1    -0.0264
     29 C24        13.1003  -11.7046   -0.0332 C.ar    1  NONAME1     0.1238
     30 F1         13.2785  -13.0322   -0.0485 F       1  NONAME1    -0.2055
     31 C25        11.8080  -11.1878   -0.0231 C.ar    1  NONAME1    -0.0201
     32 C26         7.5903   -7.7015    0.0506 C.ar    1  NONAME1     0.0843
     33 Cl1         7.1459   -9.3722    0.1181 Cl      1  NONAME1    -0.0797
     34 C27         6.5001   -6.8019    0.0640 C.ar    1  NONAME1    -0.0186
     35 C28         4.0875   -2.5783    0.0107 C.ar    1  NONAME1     0.0410
     36 C29         2.8115   -3.2465   -0.0376 C.ar    1  NONAME1    -0.0415
     37 C30         0.0775   -4.6478   -0.0189 C.ar    1  NONAME1    -0.0469
     38 N4         -3.4833   -9.6507   -0.0348 N.am    1  NONAME1    -0.1940
     39 O3         -4.6807   -9.0084    0.3347 O.3     1  NONAME1    -0.2949
     40 H1         -3.3447   -7.0598    0.2237 H       1  NONAME1     0.0670
     41 H2         -0.2960   -7.2675   -0.1690 H       1  NONAME1     0.0625
     42 H3         -3.3329   -4.9172   -0.0479 H       1  NONAME1     0.0623
     43 H4         -3.1244   -2.4902   -0.0596 H       1  NONAME1     0.0618
     44 H5         -0.9750   -1.4170   -0.0650 H       1  NONAME1     0.0624
     45 H6          0.7993   -0.5183    0.0521 H       1  NONAME1     0.0624
     46 H7          2.9138    0.5911    0.0790 H       1  NONAME1     0.0639
     47 H8          7.2656   -0.5038    0.0837 H       1  NONAME1     0.1048
     48 H9          4.7683   -5.0196    0.5403 H       1  NONAME1     0.1536
     49 H10         8.2025   -3.8895   -0.1922 H       1  NONAME1     0.0637
     50 H11        10.0725   -5.4126   -0.1680 H       1  NONAME1     0.0655
     51 H12         9.6732   -9.6891   -0.8792 H       1  NONAME1     0.0748
     52 H13         9.7153   -9.6483    0.9376 H       1  NONAME1     0.0748
     53 H14        12.5977   -7.8734    0.0124 H       1  NONAME1     0.0621
     54 H15        14.8762   -8.8198   -0.0061 H       1  NONAME1     0.0619
     55 H16        15.2043  -11.2907   -0.0348 H       1  NONAME1     0.0646
     56 H17        10.9696  -11.8785   -0.0265 H       1  NONAME1     0.0650
     57 H18         5.4913   -7.2093    0.0997 H       1  NONAME1     0.0652
     58 H19         2.8183   -4.3301   -0.0987 H       1  NONAME1     0.0631
     59 H20         0.9544   -5.2894   -0.0052 H       1  NONAME1     0.0629
     60 H21        -3.4306  -10.6479    0.1543 H       1  NONAME1     0.1825
     61 H22        -5.1156   -8.8808   -0.5301 H       1  NONAME1     0.2414
@<TRIPOS>BOND
     1     1     2    2
     2     2     3    1
     3     3     4    2
     4     4     5    1
     5     5     6   ar
     6     6     7   ar
     7     7     8   ar
     8     8     9   ar
     9     9    10    1
    10    10    11   ar
    11    11    12   ar
    12    12    13   ar
    13    13    14   ar
    14    14    15   ar
    15    15    16   ar
    16    16    17   ar
    17    17    18    1
    18    18    19    1
    19    19    20   ar
    20    20    21   ar
    21    21    22   ar
    22    22    23    1
    23    23    24    1
    24    24    25    1
    25    25    26   ar
    26    26    27   ar
    27    27    28   ar
    28    28    29   ar
    29    29    30    1
    30    29    31   ar
    31    25    31   ar
    32    22    32   ar
    33    32    33    1
    34    32    34   ar
    35    19    34   ar
    36    17    35   ar
    37    13    35   ar
    38    35    36   ar
    39    10    36   ar
    40     9    37   ar
    41     5    37   ar
    42     2    38   am
    43    38    39    1
    44     3    40    1
    45     4    41    1
    46     6    42    1
    47     7    43    1
    48     8    44    1
    49    11    45    1
    50    12    46    1
    51    15    47    1
    52    18    48    1
    53    20    49    1
    54    21    50    1
    55    24    51    1
    56    24    52    1
    57    26    53    1
    58    27    54    1
    59    28    55    1
    60    31    56    1
    61    34    57    1
    62    36    58    1
    63    37    59    1
    64    38    60    1
    65    39    61    1
