REMARK  6 active torsions:
REMARK  status: ('A' for Active; 'I' for Inactive)
REMARK    1  A    between atoms: C7_8  and  O1_9 
REMARK    2  A    between atoms: O1_9  and  C8_10 
REMARK    3  A    between atoms: C8_10  and  C9_11 
REMARK    4  A    between atoms: C12_14  and  C13_15 
REMARK       I    between atoms: C13_15  and  N2_17 
REMARK    5  A    between atoms: N2_17  and  C14_18 
REMARK    6  A    between atoms: C19_23  and  N3_24 
ROOT
ATOM      1  C1  NON d   1       4.001 -10.010   0.000  0.00  0.00     0.070 C 
ATOM      2  C2  NON d   1       4.001 -11.550   0.000  0.00  0.00     0.033 A 
ATOM      3  C3  NON d   1       5.257 -12.138   0.083  0.00  0.00     0.028 A 
ATOM      4  C4  NON d   1       5.345 -13.518   0.109  0.00  0.00     0.029 A 
ATOM      5  C5  NON d   1       4.184 -14.304   0.070  0.00  0.00     0.097 A 
ATOM      6  C6  NON d   1       4.410 -15.715   0.102  0.00  0.00     0.104 C 
ATOM      7  N1  NON d   1       4.607 -16.859   0.130  0.00  0.00    -0.191 NA
ATOM      8  C7  NON d   1       2.937 -13.664   0.006  0.00  0.00     0.186 A 
ATOM      9  N4  NON d   1       2.856 -12.292  -0.031  0.00  0.00    -0.229 NA
ENDROOT
BRANCH   8  10
ATOM     10  O1  NON d   1       1.683 -14.248  -0.025  0.00  0.00    -0.329 OA
BRANCH  10  11
ATOM     11  C8  NON d   1       1.590 -15.675   0.030  0.00  0.00     0.216 C 
BRANCH  11  12
ATOM     12  C9  NON d   1       0.207 -16.309  -0.002  0.00  0.00    -0.034 A 
ATOM     13  C10 NON d   1       0.140 -17.718  -0.016  0.00  0.00     0.010 A 
ATOM     14  C11 NON d   1      -1.084 -18.404  -0.062  0.00  0.00     0.017 A 
ATOM     15  C12 NON d   1      -2.287 -17.693  -0.084  0.00  0.00     0.032 A 
ATOM     16  C20 NON d   1      -2.220 -16.285  -0.061  0.00  0.00     0.017 A 
ATOM     17  C21 NON d   1      -0.991 -15.598  -0.019  0.00  0.00     0.010 A 
BRANCH  15  18
ATOM     18  C13 NON d   1      -3.644 -18.344  -0.175  0.00  0.00     0.256 C 
ATOM     19  O2  NON d   1      -4.591 -17.631  -0.503  0.00  0.00    -0.267 OA
ATOM     20  N2  NON d   1      -3.724 -19.705   0.081  0.00  0.00    -0.321 N 
ATOM     21  H10 NON d   1      -2.856 -20.187   0.251  0.00  0.00     0.169 HD
BRANCH  20  22
ATOM     22  C14 NON d   1      -4.860 -20.572   0.049  0.00  0.00     0.056 A 
ATOM     23  C15 NON d   1      -4.551 -21.948  -0.002  0.00  0.00     0.031 A 
ATOM     24  C16 NON d   1      -5.548 -22.927  -0.047  0.00  0.00     0.002 A 
ATOM     25  C17 NON d   1      -6.882 -22.551  -0.013  0.00  0.00     0.002 A 
ATOM     26  C18 NON d   1      -7.209 -21.198   0.065  0.00  0.00     0.025 A 
ATOM     27  C19 NON d   1      -6.221 -20.192   0.062  0.00  0.00     0.033 A 
BRANCH  27  28
ATOM     28  N3  NON d   1      -6.662 -18.887   0.358  0.00  0.00    -0.301 NA
ATOM     29  H15 NON d   1      -5.979 -18.190   0.039  0.00  0.00     0.124 HD
ATOM     30  H16 NON d   1      -7.576 -18.677  -0.022  0.00  0.00     0.124 HD
ENDBRANCH  27  28
ENDBRANCH  20  22
ENDBRANCH  15  18
ENDBRANCH  11  12
ENDBRANCH  10  11
ENDBRANCH   8  10
TORSDOF 6
