@<TRIPOS>MOLECULE
*****
 46 49 0 0 0
SMALL
USER_CHARGES

@<TRIPOS>ATOM
      1 N1          3.4589  -11.2885    0.1317 N.pl3   1  NONAME1    -0.3565
      2 C1          2.3023  -12.1021    0.0419 C.ar    1  NONAME1     0.0461
      3 C2          2.4200  -13.4882    0.1992 C.ar    1  NONAME1    -0.0392
      4 C3          1.2929  -14.3059    0.1193 C.ar    1  NONAME1    -0.0599
      5 C4          0.0380  -13.7381   -0.0831 C.ar    1  NONAME1    -0.0599
      6 C5         -0.0998  -12.3505   -0.1824 C.ar    1  NONAME1    -0.0387
      7 C6          1.0209  -11.5211   -0.0941 C.ar    1  NONAME1     0.0545
      8 N2          0.9559  -10.1065   -0.0996 N.am    1  NONAME1    -0.2800
      9 C7         -0.1546   -9.3110   -0.2955 C.2     1  NONAME1     0.2483
     10 O1         -1.2981   -9.6954   -0.5150 O.2     1  NONAME1    -0.2699
     11 C8          0.0865   -7.8397   -0.2109 C.ar    1  NONAME1     0.0370
     12 C9         -0.9532   -7.0340    0.2543 C.ar    1  NONAME1    -0.0494
     13 C10        -0.7712   -5.6551    0.3693 C.ar    1  NONAME1    -0.0575
     14 C11         0.4449   -5.0360    0.0130 C.ar    1  NONAME1    -0.0428
     15 C12         0.5078   -3.5331    0.2090 C.3     1  NONAME1     0.0041
     16 C13         1.7538   -2.6990    0.1003 C.ar    1  NONAME1     0.0390
     17 C14         1.6547   -1.4106   -0.2868 C.ar    1  NONAME1     0.0996
     18 O2          2.6542   -0.4740   -0.3318 O.2     1  NONAME1    -0.4624
     19 C15         3.9319   -0.9052   -0.0993 C.ar    1  NONAME1     0.1384
     20 C16         4.9595    0.0205   -0.2803 C.ar    1  NONAME1    -0.0186
     21 C17         6.2858   -0.3779   -0.1171 C.ar    1  NONAME1    -0.0582
     22 C18         6.5824   -1.6963    0.2324 C.ar    1  NONAME1    -0.0609
     23 C19         5.5500   -2.6128    0.4484 C.ar    1  NONAME1    -0.0474
     24 C20         4.2201   -2.2100    0.2912 C.ar    1  NONAME1     0.0642
     25 C21         3.1000   -3.1404    0.5483 C.ar    1  NONAME1     0.1959
     26 O3          3.3016   -4.2056    1.1151 O.2     1  NONAME1    -0.2868
     27 C22         1.4522   -5.8446   -0.5213 C.ar    1  NONAME1    -0.0575
     28 C23         1.2850   -7.2379   -0.6144 C.ar    1  NONAME1    -0.0494
     29 H1          4.3160  -11.8337    0.0880 H       1  NONAME1     0.1424
     30 H2          3.4572  -10.5827   -0.6001 H       1  NONAME1     0.1424
     31 H3          3.3917  -13.9441    0.3622 H       1  NONAME1     0.0636
     32 H4          1.3933  -15.3835    0.2172 H       1  NONAME1     0.0618
     33 H5         -0.8440  -14.3716   -0.1415 H       1  NONAME1     0.0618
     34 H6         -1.1003  -11.9463   -0.2955 H       1  NONAME1     0.0637
     35 H7          1.8195   -9.6645    0.1899 H       1  NONAME1     0.1552
     36 H8         -1.9063   -7.4761    0.5382 H       1  NONAME1     0.0625
     37 H9         -1.5983   -5.0553    0.7467 H       1  NONAME1     0.0621
     38 H10         0.0946   -3.3279    1.2072 H       1  NONAME1     0.0364
     39 H11        -0.2197   -3.1318   -0.5144 H       1  NONAME1     0.0364
     40 H12         0.7171   -0.9444   -0.5622 H       1  NONAME1     0.1033
     41 H13         4.7280    1.0468   -0.5537 H       1  NONAME1     0.0654
     42 H14         7.0905    0.3403   -0.2666 H       1  NONAME1     0.0619
     43 H15         7.6195   -2.0064    0.3423 H       1  NONAME1     0.0618
     44 H16         5.7837   -3.6373    0.7315 H       1  NONAME1     0.0626
     45 H17         2.3949   -5.4202   -0.8557 H       1  NONAME1     0.0621
     46 H18         2.0969   -7.8302   -1.0259 H       1  NONAME1     0.0625
@<TRIPOS>BOND
     1     1     2    1
     2     2     3   ar
     3     3     4   ar
     4     4     5   ar
     5     5     6   ar
     6     6     7   ar
     7     2     7   ar
     8     7     8    1
     9     8     9   am
    10     9    10    2
    11     9    11    1
    12    11    12   ar
    13    12    13   ar
    14    13    14   ar
    15    14    15    1
    16    15    16    1
    17    16    17   ar
    18    17    18   ar
    19    18    19   ar
    20    19    20   ar
    21    20    21   ar
    22    21    22   ar
    23    22    23   ar
    24    23    24   ar
    25    19    24   ar
    26    24    25   ar
    27    16    25   ar
    28    25    26    2
    29    14    27   ar
    30    27    28   ar
    31    11    28   ar
    32     1    29    1
    33     1    30    1
    34     3    31    1
    35     4    32    1
    36     5    33    1
    37     6    34    1
    38     8    35    1
    39    12    36    1
    40    13    37    1
    41    15    38    1
    42    15    39    1
    43    17    40    1
    44    20    41    1
    45    21    42    1
    46    22    43    1
    47    23    44    1
    48    27    45    1
    49    28    46    1
