@<TRIPOS>MOLECULE
*****
 40 42 0 0 0
SMALL
USER_CHARGES

@<TRIPOS>ATOM
      1 O1          9.7495    5.5742   -0.0540 O.2     1  NONAME1    -0.2687
      2 C1          9.8109    4.3541    0.0156 C.2     1  NONAME1     0.2593
      3 C2          8.5927    3.4895    0.0076 C.2     1  NONAME1     0.0027
      4 C3          7.3642    4.0324    0.0039 C.2     1  NONAME1    -0.0496
      5 C4          6.0825    3.2932    0.0181 C.ar    1  NONAME1    -0.0227
      6 C5          6.0031    1.8879    0.0481 C.ar    1  NONAME1    -0.0525
      7 C6          4.7772    1.2045    0.0624 C.ar    1  NONAME1    -0.0357
      8 C7          3.6247    1.9863    0.0446 C.ar    1  NONAME1     0.0662
      9 N1          2.2917    1.6670    0.0419 N.ar    1  NONAME1    -0.3418
     10 C8          1.5639    2.8330   -0.0139 C.ar    1  NONAME1     0.1085
     11 C9          0.0687    2.9039   -0.0984 C.3     1  NONAME1     0.0094
     12 C10        -0.6839    1.5732    0.0085 C.3     1  NONAME1    -0.0209
     13 C11        -0.5996    0.5918   -1.1442 C.ar    1  NONAME1    -0.0470
     14 C12        -1.2792   -0.6320   -1.0158 C.ar    1  NONAME1    -0.0586
     15 C13        -1.2409   -1.5868   -2.0339 C.ar    1  NONAME1    -0.0615
     16 C14        -0.5173   -1.3364   -3.1956 C.ar    1  NONAME1    -0.0617
     17 C15         0.1545   -0.1262   -3.3435 C.ar    1  NONAME1    -0.0615
     18 C16         0.1044    0.8362   -2.3310 C.ar    1  NONAME1    -0.0586
     19 N2          2.3705    3.8775   -0.0144 N.ar    1  NONAME1    -0.2325
     20 C17         3.6486    3.3721    0.0145 C.ar    1  NONAME1     0.0897
     21 C18         4.8868    4.0373    0.0054 C.ar    1  NONAME1    -0.0271
     22 N3         10.9613    3.6065    0.1148 N.am    1  NONAME1    -0.1940
     23 O2         12.1834    4.3033    0.1785 O.3     1  NONAME1    -0.2949
     24 H1          8.7511    2.4207    0.0152 H       1  NONAME1     0.0670
     25 H2          7.2750    5.1197    0.0028 H       1  NONAME1     0.0625
     26 H3          6.9027    1.2791    0.0604 H       1  NONAME1     0.0624
     27 H4          4.7373    0.1211    0.0821 H       1  NONAME1     0.0639
     28 H5          1.9140    0.7304    0.0319 H       1  NONAME1     0.1671
     29 H6         -0.2663    3.5444    0.7285 H       1  NONAME1     0.0346
     30 H7         -0.2103    3.4254   -1.0221 H       1  NONAME1     0.0346
     31 H8         -0.3643    1.0542    0.9224 H       1  NONAME1     0.0317
     32 H9         -1.7478    1.8137    0.1383 H       1  NONAME1     0.0317
     33 H10        -1.8549   -0.8470   -0.1171 H       1  NONAME1     0.0620
     34 H11        -1.7795   -2.5242   -1.9208 H       1  NONAME1     0.0618
     35 H12        -0.4840   -2.0785   -3.9889 H       1  NONAME1     0.0618
     36 H13         0.7151    0.0754   -4.2533 H       1  NONAME1     0.0618
     37 H14         0.6286    1.7738   -2.5005 H       1  NONAME1     0.0620
     38 H15         4.8907    5.1221   -0.0187 H       1  NONAME1     0.0645
     39 H16        10.9852    2.5950    0.1300 H       1  NONAME1     0.1825
     40 H17        12.8030    3.7295   -0.3048 H       1  NONAME1     0.2414
@<TRIPOS>BOND
     1     1     2    2
     2     2     3    1
     3     3     4    2
     4     4     5    1
     5     5     6   ar
     6     6     7   ar
     7     7     8   ar
     8     8     9   ar
     9     9    10   ar
    10    10    11    1
    11    11    12    1
    12    12    13    1
    13    13    14   ar
    14    14    15   ar
    15    15    16   ar
    16    16    17   ar
    17    17    18   ar
    18    13    18   ar
    19    10    19   ar
    20    19    20   ar
    21     8    20   ar
    22    20    21   ar
    23     5    21   ar
    24     2    22   am
    25    22    23    1
    26     3    24    1
    27     4    25    1
    28     6    26    1
    29     7    27    1
    30     9    28    1
    31    11    29    1
    32    11    30    1
    33    12    31    1
    34    12    32    1
    35    14    33    1
    36    15    34    1
    37    16    35    1
    38    17    36    1
    39    18    37    1
    40    21    38    1
    41    22    39    1
    42    23    40    1
