@<TRIPOS>MOLECULE
*****
 37 39 0 0 0
SMALL
USER_CHARGES

@<TRIPOS>ATOM
      1 N1          5.4585   15.2839   -0.3075 N.2     1  NONAME1     0.0682
      2 N2          5.3296   14.1885   -0.0050 N.2     1  NONAME1    -0.1616
      3 N3          5.2048   12.9983    0.3380 N.2     1  NONAME1    -0.0720
      4 C1          3.9263   12.4366    0.1617 C.ar    1  NONAME1     0.1002
      5 C2          3.8431   11.0409    0.0574 C.ar    1  NONAME1    -0.0328
      6 C3          2.6115   10.3821   -0.0960 C.ar    1  NONAME1    -0.0475
      7 C4          1.4278   11.1223   -0.1394 C.ar    1  NONAME1     0.0372
      8 C5          0.0689   10.5257   -0.3319 C.2     1  NONAME1     0.2483
      9 O1         -0.7900   11.2555   -0.8226 O.2     1  NONAME1    -0.2699
     10 N4         -0.1155    9.2055    0.0400 N.am    1  NONAME1    -0.2799
     11 C6         -1.3356    8.4614    0.0343 C.ar    1  NONAME1     0.0551
     12 C7         -1.1932    7.0515    0.0286 C.ar    1  NONAME1    -0.0305
     13 C8         -2.2976    6.1735    0.0183 C.ar    1  NONAME1    -0.0094
     14 C9         -2.1082    4.6981   -0.0071 C.ar    1  NONAME1     0.0194
     15 C10        -0.9334    3.9578   -0.0105 C.ar    1  NONAME1    -0.0469
     16 C11        -1.1473    2.5460   -0.0295 C.ar    1  NONAME1    -0.0541
     17 C12        -2.4834    2.2297   -0.0441 C.ar    1  NONAME1    -0.0237
     18 S1         -3.4625    3.6223   -0.0395 S.2     1  NONAME1    -0.0967
     19 C13        -3.5696    6.7560    0.0482 C.ar    1  NONAME1    -0.0517
     20 C14        -3.7299    8.1416    0.0922 C.ar    1  NONAME1    -0.0386
     21 C15        -2.6345    9.0124    0.0510 C.ar    1  NONAME1     0.0461
     22 N5         -2.9053   10.3684    0.3254 N.pl3   1  NONAME1    -0.3565
     23 C16         1.5041   12.5196   -0.0320 C.ar    1  NONAME1    -0.0475
     24 C17         2.7349   13.1689    0.1236 C.ar    1  NONAME1    -0.0328
     25 H1          4.7599   10.4541    0.0891 H       1  NONAME1     0.0640
     26 H2          2.6208    9.3029   -0.2060 H       1  NONAME1     0.0626
     27 H3          0.7036    8.6715    0.2864 H       1  NONAME1     0.1552
     28 H4         -0.1907    6.6343    0.0133 H       1  NONAME1     0.0643
     29 H5          0.0554    4.3961    0.0035 H       1  NONAME1     0.0629
     30 H6         -0.3600    1.8025   -0.0313 H       1  NONAME1     0.0623
     31 H7         -2.9343    1.2463   -0.0581 H       1  NONAME1     0.0693
     32 H8         -4.4740    6.1542    0.0644 H       1  NONAME1     0.0624
     33 H9         -4.7381    8.5431    0.1753 H       1  NONAME1     0.0637
     34 H10        -2.1744   10.9674   -0.0743 H       1  NONAME1     0.1424
     35 H11        -3.8105   10.6706   -0.0168 H       1  NONAME1     0.1424
     36 H12         0.5953   13.1201   -0.0671 H       1  NONAME1     0.0626
     37 H13         2.7323   14.2524    0.2164 H       1  NONAME1     0.0640
@<TRIPOS>BOND
     1     1     2    2
     2     2     3    2
     3     3     4    1
     4     4     5   ar
     5     5     6   ar
     6     6     7   ar
     7     7     8    1
     8     8     9    2
     9     8    10   am
    10    10    11    1
    11    11    12   ar
    12    12    13   ar
    13    13    14    1
    14    14    15   ar
    15    15    16   ar
    16    16    17   ar
    17    17    18   ar
    18    14    18   ar
    19    13    19   ar
    20    19    20   ar
    21    20    21   ar
    22    11    21   ar
    23    21    22    1
    24     7    23   ar
    25    23    24   ar
    26     4    24   ar
    27     5    25    1
    28     6    26    1
    29    10    27    1
    30    12    28    1
    31    15    29    1
    32    16    30    1
    33    17    31    1
    34    19    32    1
    35    20    33    1
    36    22    34    1
    37    22    35    1
    38    23    36    1
    39    24    37    1
