@<TRIPOS>MOLECULE
*****
 57 60 0 0 0
SMALL
USER_CHARGES

@<TRIPOS>ATOM
      1 N1         -9.8894  -10.1764    0.0867 N.pl3   1  NONAME1    -0.3565
      2 C1         -9.7726  -11.5936    0.1061 C.ar    1  NONAME1     0.0461
      3 C2         -8.5069  -12.1935    0.1276 C.ar    1  NONAME1    -0.0392
      4 C3         -8.3842  -13.5811    0.0516 C.ar    1  NONAME1    -0.0599
      5 C4         -9.5236  -14.3725   -0.0616 C.ar    1  NONAME1    -0.0599
      6 C5        -10.7912  -13.7837   -0.0861 C.ar    1  NONAME1    -0.0387
      7 C6        -10.9298  -12.3974    0.0056 C.ar    1  NONAME1     0.0545
      8 N2        -12.1766  -11.7190    0.0314 N.am    1  NONAME1    -0.2800
      9 C7        -13.4298  -12.2803   -0.0965 C.2     1  NONAME1     0.2483
     10 O1        -13.6627  -13.4699   -0.2856 O.2     1  NONAME1    -0.2699
     11 C8        -14.6115  -11.3636   -0.0071 C.ar    1  NONAME1     0.0370
     12 C9        -15.8680  -11.9608    0.1578 C.ar    1  NONAME1    -0.0492
     13 C10       -17.0336  -11.1929    0.1930 C.ar    1  NONAME1    -0.0528
     14 C11       -16.9859   -9.7955    0.0634 C.ar    1  NONAME1    -0.0029
     15 C12       -18.3075   -9.0697    0.0595 C.3     1  NONAME1    -0.0074
     16 N3        -18.2908   -7.5835   -0.0279 N.4     1  NONAME1     0.2336
     17 C13       -17.9904   -6.8683    1.2443 C.3     1  NONAME1    -0.0074
     18 C14       -18.0007   -5.3654    1.1410 C.ar    1  NONAME1    -0.0029
     19 C15       -18.6427   -4.6480    0.1281 C.ar    1  NONAME1    -0.0530
     20 C16       -18.6498   -3.2403    0.1339 C.ar    1  NONAME1    -0.0536
     21 C17       -18.0321   -2.4793    1.1442 C.ar    1  NONAME1    -0.0179
     22 C18       -18.0528   -0.9759    1.1537 C.ar    1  NONAME1    -0.0179
     23 C19       -18.6588   -0.2211    0.1269 C.ar    1  NONAME1    -0.0540
     24 C20       -18.6793    1.1818    0.1378 C.ar    1  NONAME1    -0.0612
     25 C21       -18.0900    1.8832    1.1796 C.ar    1  NONAME1    -0.0617
     26 C22       -17.4836    1.1803    2.2097 C.ar    1  NONAME1    -0.0612
     27 C23       -17.4685   -0.2218    2.1946 C.ar    1  NONAME1    -0.0540
     28 C24       -17.3991   -3.2258    2.1540 C.ar    1  NONAME1    -0.0536
     29 C25       -17.3857   -4.6294    2.1587 C.ar    1  NONAME1    -0.0530
     30 C26       -15.7270   -9.1959   -0.1011 C.ar    1  NONAME1    -0.0528
     31 C27       -14.5508   -9.9714   -0.1320 C.ar    1  NONAME1    -0.0492
     32 H1         -8.9775   -9.7395    0.2191 H       1  NONAME1     0.1424
     33 H2        -10.2619   -9.8887   -0.8171 H       1  NONAME1     0.1424
     34 H3         -7.6060  -11.5916    0.1981 H       1  NONAME1     0.0636
     35 H4         -7.4017  -14.0460    0.0718 H       1  NONAME1     0.0618
     36 H5         -9.4338  -15.4539   -0.1278 H       1  NONAME1     0.0618
     37 H6        -11.6494  -14.4425   -0.1628 H       1  NONAME1     0.0637
     38 H7        -12.0663  -10.7361    0.2427 H       1  NONAME1     0.1552
     39 H8        -15.9482  -13.0458    0.2428 H       1  NONAME1     0.0625
     40 H9        -17.9829  -11.7180    0.3042 H       1  NONAME1     0.0622
     41 H10       -18.8759   -9.3990   -0.8185 H       1  NONAME1     0.0867
     42 H11       -18.8861   -9.3281    0.9545 H       1  NONAME1     0.0867
     43 H12       -17.6528   -7.2765   -0.7704 H       1  NONAME1     0.2020
     44 H13       -19.2288   -7.2938   -0.3226 H       1  NONAME1     0.2020
     45 H14       -18.7407   -7.1861    1.9766 H       1  NONAME1     0.0867
     46 H15       -17.0012   -7.2061    1.5689 H       1  NONAME1     0.0867
     47 H16       -19.1682   -5.1304   -0.6902 H       1  NONAME1     0.0622
     48 H17       -19.1728   -2.7542   -0.6863 H       1  NONAME1     0.0624
     49 H18       -19.1392   -0.6955   -0.7226 H       1  NONAME1     0.0624
     50 H19       -19.1594    1.7226   -0.6745 H       1  NONAME1     0.0618
     51 H20       -18.1035    2.9696    1.1892 H       1  NONAME1     0.0618
     52 H21       -17.0184    1.7172    3.0329 H       1  NONAME1     0.0618
     53 H22       -16.9787   -0.6969    3.0384 H       1  NONAME1     0.0624
     54 H23       -16.8969   -2.7372    2.9850 H       1  NONAME1     0.0624
     55 H24       -16.8862   -5.1295    2.9885 H       1  NONAME1     0.0622
     56 H25       -15.6119   -8.1217   -0.2233 H       1  NONAME1     0.0622
     57 H26       -13.6039   -9.4616   -0.2867 H       1  NONAME1     0.0625
@<TRIPOS>BOND
     1     1     2    1
     2     2     3   ar
     3     3     4   ar
     4     4     5   ar
     5     5     6   ar
     6     6     7   ar
     7     2     7   ar
     8     7     8    1
     9     8     9   am
    10     9    10    2
    11     9    11    1
    12    11    12   ar
    13    12    13   ar
    14    13    14   ar
    15    14    15    1
    16    15    16    1
    17    16    17    1
    18    17    18    1
    19    18    19   ar
    20    19    20   ar
    21    20    21   ar
    22    21    22    1
    23    22    23   ar
    24    23    24   ar
    25    24    25   ar
    26    25    26   ar
    27    26    27   ar
    28    22    27   ar
    29    21    28   ar
    30    28    29   ar
    31    18    29   ar
    32    14    30   ar
    33    30    31   ar
    34    11    31   ar
    35     1    32    1
    36     1    33    1
    37     3    34    1
    38     4    35    1
    39     5    36    1
    40     6    37    1
    41     8    38    1
    42    12    39    1
    43    13    40    1
    44    15    41    1
    45    15    42    1
    46    16    43    1
    47    16    44    1
    48    17    45    1
    49    17    46    1
    50    19    47    1
    51    20    48    1
    52    23    49    1
    53    24    50    1
    54    25    51    1
    55    26    52    1
    56    27    53    1
    57    28    54    1
    58    29    55    1
    59    30    56    1
    60    31    57    1
