@<TRIPOS>MOLECULE
*****
 41 43 0 0 0
SMALL
USER_CHARGES

@<TRIPOS>ATOM
      1 O1         -5.7606   -8.4000   -0.0778 O.2     1  NONAME1    -0.2734
      2 C1         -6.8133   -7.7694   -0.0564 C.2     1  NONAME1     0.2403
      3 C2         -6.9662   -6.2572   -0.0696 C.3     1  NONAME1     0.0573
      4 C3         -5.7433   -5.3723   -0.0222 C.ar    1  NONAME1    -0.0008
      5 C4         -5.7978   -3.9884    0.0137 C.ar    1  NONAME1    -0.0504
      6 C5         -4.5126   -3.3797    0.0330 C.ar    1  NONAME1    -0.0452
      7 C6         -3.4946   -4.3099    0.0145 C.ar    1  NONAME1     0.0384
      8 C7         -2.0286   -3.9698    0.0292 C.ar    1  NONAME1     0.0868
      9 C8         -1.5642   -2.6690    0.0599 C.ar    1  NONAME1     0.0054
     10 S1          0.1412   -2.6562    0.0790 S.2     1  NONAME1    -0.0599
     11 C9          0.1516   -4.3605    0.0520 C.ar    1  NONAME1     0.1650
     12 N1          1.3196   -5.0900    0.0327 N.am    1  NONAME1    -0.2619
     13 C10         2.6015   -4.5846    0.1660 C.2     1  NONAME1     0.2563
     14 O2          2.8943   -3.4159    0.4086 O.2     1  NONAME1    -0.2717
     15 C11         3.6875   -5.6563    0.0010 C.3     1  NONAME1     0.1655
     16 O3          4.9190   -4.9878   -0.2535 O.3     1  NONAME1    -0.4828
     17 C12         6.0822   -5.6887   -0.1478 C.ar    1  NONAME1     0.1212
     18 C13         7.2338   -4.8950   -0.1355 C.ar    1  NONAME1    -0.0199
     19 C14         8.4996   -5.4741   -0.0434 C.ar    1  NONAME1    -0.0583
     20 C15         8.6199   -6.8587    0.0301 C.ar    1  NONAME1    -0.0615
     21 C16         7.4749   -7.6566    0.0109 C.ar    1  NONAME1    -0.0583
     22 C17         6.2049   -7.0743   -0.0792 C.ar    1  NONAME1    -0.0199
     23 N2         -1.0292   -4.9372    0.0105 N.ar    1  NONAME1    -0.2241
     24 S2         -4.1140   -5.9005   -0.0255 S.2     1  NONAME1    -0.0912
     25 N3         -7.9980   -8.4710    0.0183 N.am    1  NONAME1    -0.1972
     26 O4         -9.1890   -7.8125   -0.3462 O.3     1  NONAME1    -0.2952
     27 H1         -7.5952   -5.9884    0.7904 H       1  NONAME1     0.0413
     28 H2         -7.5192   -5.9940   -0.9809 H       1  NONAME1     0.0413
     29 H3         -6.7286   -3.4326    0.0187 H       1  NONAME1     0.0626
     30 H4         -4.3668   -2.3078    0.0571 H       1  NONAME1     0.0630
     31 H5         -2.1153   -1.7417    0.0729 H       1  NONAME1     0.0716
     32 H6          1.1643   -6.0847   -0.0493 H       1  NONAME1     0.1568
     33 H7          3.4373   -6.3034   -0.8468 H       1  NONAME1     0.0795
     34 H8          3.7305   -6.2299    0.9342 H       1  NONAME1     0.0795
     35 H9          7.1393   -3.8126   -0.1929 H       1  NONAME1     0.0654
     36 H10         9.3850   -4.8438   -0.0307 H       1  NONAME1     0.0619
     37 H11         9.6044   -7.3147    0.0988 H       1  NONAME1     0.0618
     38 H12         7.5729   -8.7380    0.0619 H       1  NONAME1     0.0619
     39 H13         5.3396   -7.7265   -0.1055 H       1  NONAME1     0.0654
     40 H14        -7.9307   -9.4581   -0.2170 H       1  NONAME1     0.1822
     41 H15        -9.6506   -7.7369    0.5108 H       1  NONAME1     0.2414
@<TRIPOS>BOND
     1     1     2    2
     2     2     3    1
     3     3     4    1
     4     4     5   ar
     5     5     6   ar
     6     6     7   ar
     7     7     8    1
     8     8     9   ar
     9     9    10   ar
    10    10    11   ar
    11    11    12    1
    12    12    13   am
    13    13    14    2
    14    13    15    1
    15    15    16    1
    16    16    17    1
    17    17    18   ar
    18    18    19   ar
    19    19    20   ar
    20    20    21   ar
    21    21    22   ar
    22    17    22   ar
    23    11    23   ar
    24     8    23   ar
    25     7    24   ar
    26     4    24   ar
    27     2    25   am
    28    25    26    1
    29     3    27    1
    30     3    28    1
    31     5    29    1
    32     6    30    1
    33     9    31    1
    34    12    32    1
    35    15    33    1
    36    15    34    1
    37    18    35    1
    38    19    36    1
    39    20    37    1
    40    21    38    1
    41    22    39    1
    42    25    40    1
    43    26    41    1
