@<TRIPOS>MOLECULE
*****
 42 44 0 0 0
SMALL
USER_CHARGES

@<TRIPOS>ATOM
      1 O1         -9.6881    4.6961   -0.1018 O.2     1  NONAME1    -0.2675
      2 C1         -8.9487    5.6709   -0.0161 C.2     1  NONAME1     0.2731
      3 N1         -9.4501    6.9597    0.0961 N.am    1  NONAME1    -0.1930
      4 O2        -10.8273    7.0631    0.3968 O.3     1  NONAME1    -0.2949
      5 C2         -7.4875    5.5995   -0.0370 C.ar    1  NONAME1     0.0770
      6 C3         -6.5371    6.6052   -0.0562 C.ar    1  NONAME1    -0.0347
      7 C4         -5.1860    6.1213   -0.1090 C.ar    1  NONAME1    -0.0101
      8 C5         -3.9537    6.8155   -0.1579 C.ar    1  NONAME1    -0.0531
      9 C6         -2.7361    6.1211   -0.2275 C.ar    1  NONAME1    -0.0529
     10 C7         -2.7144    4.7262   -0.2350 C.ar    1  NONAME1    -0.0019
     11 C8         -1.4667    3.8844   -0.3069 C.3     1  NONAME1    -0.0077
     12 N2         -0.1661    4.6051   -0.1770 N.4     1  NONAME1     0.2305
     13 C9          1.0303    3.7577    0.1559 C.3     1  NONAME1    -0.0293
     14 C10         1.4978    2.8572   -0.9958 C.3     1  NONAME1     0.0126
     15 C11         0.6828    1.6292   -1.3373 C.ar    1  NONAME1    -0.0423
     16 C12         0.7773    1.1108   -2.6394 C.ar    1  NONAME1    -0.0584
     17 C13         0.0500   -0.0197   -3.0183 C.ar    1  NONAME1    -0.0615
     18 C14        -0.7882   -0.6472   -2.1031 C.ar    1  NONAME1    -0.0617
     19 C15        -0.8625   -0.1725   -0.7973 C.ar    1  NONAME1    -0.0615
     20 C16        -0.1052    0.9362   -0.4070 C.ar    1  NONAME1    -0.0584
     21 C17        -3.9374    4.0262   -0.1875 C.ar    1  NONAME1    -0.0392
     22 C18        -5.1538    4.7302   -0.1253 C.ar    1  NONAME1     0.0205
     23 S1         -6.7339    4.0611   -0.0664 S.2     1  NONAME1    -0.0836
     24 H1         -8.8804    7.7033    0.4762 H       1  NONAME1     0.1825
     25 H2        -11.2379    6.9506   -0.4819 H       1  NONAME1     0.2414
     26 H3         -6.7753    7.6613   -0.0550 H       1  NONAME1     0.0636
     27 H4         -3.9544    7.9042   -0.1500 H       1  NONAME1     0.0624
     28 H5         -1.8308    6.7198   -0.2797 H       1  NONAME1     0.0622
     29 H6         -1.5018    3.1701    0.5209 H       1  NONAME1     0.0866
     30 H7         -1.4458    3.3684   -1.2708 H       1  NONAME1     0.0866
     31 H8         -0.2699    5.2926    0.5791 H       1  NONAME1     0.2017
     32 H9          0.0014    5.1381   -1.0390 H       1  NONAME1     0.2017
     33 H10         0.8075    3.2116    1.0778 H       1  NONAME1     0.0817
     34 H11         1.8253    4.4775    0.3816 H       1  NONAME1     0.0817
     35 H12         2.5084    2.5028   -0.7550 H       1  NONAME1     0.0365
     36 H13         1.5909    3.4815   -1.8954 H       1  NONAME1     0.0365
     37 H14         1.4349    1.5699   -3.3770 H       1  NONAME1     0.0620
     38 H15         0.1442   -0.4173   -4.0272 H       1  NONAME1     0.0618
     39 H16        -1.3614   -1.5228   -2.4006 H       1  NONAME1     0.0618
     40 H17        -1.4960   -0.6870   -0.0766 H       1  NONAME1     0.0618
     41 H18        -0.1520    1.2249    0.6387 H       1  NONAME1     0.0620
     42 H19        -3.9585    2.9364   -0.2037 H       1  NONAME1     0.0633
@<TRIPOS>BOND
     1     1     2    2
     2     2     3   am
     3     3     4    1
     4     2     5    1
     5     5     6   ar
     6     6     7   ar
     7     7     8   ar
     8     8     9   ar
     9     9    10   ar
    10    10    11    1
    11    11    12    1
    12    12    13    1
    13    13    14    1
    14    14    15    1
    15    15    16   ar
    16    16    17   ar
    17    17    18   ar
    18    18    19   ar
    19    19    20   ar
    20    15    20   ar
    21    10    21   ar
    22    21    22   ar
    23     7    22   ar
    24    22    23   ar
    25     5    23   ar
    26     3    24    1
    27     4    25    1
    28     6    26    1
    29     8    27    1
    30     9    28    1
    31    11    29    1
    32    11    30    1
    33    12    31    1
    34    12    32    1
    35    13    33    1
    36    13    34    1
    37    14    35    1
    38    14    36    1
    39    16    37    1
    40    17    38    1
    41    18    39    1
    42    19    40    1
    43    20    41    1
    44    21    42    1
