@<TRIPOS>MOLECULE
*****
 57 59 0 0 0
SMALL
USER_CHARGES

@<TRIPOS>ATOM
      1 N1         -2.6622   -9.1221    0.1549 N.pl3   1  NONAME1    -0.3580
      2 C1         -1.9071   -7.9553   -0.0029 C.ar    1  NONAME1     0.0247
      3 C2         -2.5278   -6.7052    0.0406 C.ar    1  NONAME1    -0.0390
      4 C3         -1.7760   -5.5236    0.0165 C.ar    1  NONAME1    -0.0345
      5 C4         -0.3793   -5.5848   -0.0043 C.ar    1  NONAME1     0.0671
      6 N2          0.4082   -4.4053   -0.0237 N.ar    1  NONAME1    -0.2195
      7 C5          0.0013   -3.0868   -0.0240 C.ar    1  NONAME1     0.0591
      8 C6          1.1727   -2.3570   -0.0291 C.ar    1  NONAME1     0.1130
      9 C7          1.3177   -0.9085   -0.0008 C.ar    1  NONAME1     0.0054
     10 C8          0.2077   -0.0528    0.0069 C.ar    1  NONAME1    -0.0523
     11 C9          0.3811    1.3315    0.0483 C.ar    1  NONAME1    -0.0594
     12 C10         1.6662    1.8746    0.0816 C.ar    1  NONAME1    -0.0404
     13 C11         2.7938    1.0444    0.0728 C.ar    1  NONAME1     0.0340
     14 N3          4.0546    1.6759    0.1069 N.am    1  NONAME1    -0.2855
     15 C12         5.3014    1.0741    0.0342 C.2     1  NONAME1     0.2172
     16 O1          5.5277   -0.1208   -0.0836 O.2     1  NONAME1    -0.2755
     17 C13         6.4250    2.1033    0.0981 C.3     1  NONAME1     0.0243
     18 C14         7.8226    1.5023   -0.0857 C.3     1  NONAME1    -0.0448
     19 C15         8.3454    0.8219    1.1847 C.3     1  NONAME1    -0.0526
     20 C16         9.6536    0.0451    0.9819 C.3     1  NONAME1    -0.0526
     21 C17        10.9436    0.8553    1.1661 C.3     1  NONAME1    -0.0447
     22 C18        11.2748    1.7841    0.0020 C.3     1  NONAME1     0.0259
     23 C19        12.6576    2.4109    0.1083 C.2     1  NONAME1     0.2354
     24 O2         13.4026    2.2668    1.0738 O.2     1  NONAME1    -0.2737
     25 N4         12.9389    3.1859   -1.0010 N.am    1  NONAME1    -0.1975
     26 O3         14.2451    3.6939   -1.1323 O.3     1  NONAME1    -0.2952
     27 C20         2.6078   -0.3416    0.0304 C.ar    1  NONAME1    -0.0312
     28 N5          2.2301   -3.2198   -0.0524 N.ar    1  NONAME1    -0.1292
     29 N6          1.7609   -4.4576   -0.0497 N.ar    1  NONAME1    -0.0602
     30 C21         0.2510   -6.8376    0.0043 C.ar    1  NONAME1    -0.0345
     31 C22        -0.5133   -8.0091    0.0308 C.ar    1  NONAME1    -0.0390
     32 H1         -3.6140   -9.0487   -0.1901 H       1  NONAME1     0.1423
     33 H2         -2.1973   -9.9610   -0.1789 H       1  NONAME1     0.1423
     34 H3         -3.6126   -6.6402    0.0945 H       1  NONAME1     0.0637
     35 H4         -2.3159   -4.5811    0.0346 H       1  NONAME1     0.0639
     36 H5         -1.0367   -2.7993    0.0078 H       1  NONAME1     0.0853
     37 H6         -0.8048   -0.4438   -0.0191 H       1  NONAME1     0.0624
     38 H7         -0.4856    1.9881    0.0530 H       1  NONAME1     0.0618
     39 H8          1.7716    2.9558    0.1133 H       1  NONAME1     0.0636
     40 H9          4.0448    2.6868    0.1643 H       1  NONAME1     0.1548
     41 H10         6.2497    2.8227   -0.7118 H       1  NONAME1     0.0358
     42 H11         6.3608    2.6438    1.0496 H       1  NONAME1     0.0358
     43 H12         8.4966    2.3156   -0.3661 H       1  NONAME1     0.0270
     44 H13         7.8181    0.7904   -0.9197 H       1  NONAME1     0.0270
     45 H14         8.4616    1.5600    1.9869 H       1  NONAME1     0.0265
     46 H15         7.5910    0.1066    1.5353 H       1  NONAME1     0.0265
     47 H16         9.6552   -0.4638    0.0105 H       1  NONAME1     0.0265
     48 H17         9.6729   -0.7502    1.7390 H       1  NONAME1     0.0265
     49 H18        10.8964    1.4285    2.1001 H       1  NONAME1     0.0270
     50 H19        11.7684    0.1413    1.2902 H       1  NONAME1     0.0270
     51 H20        11.2231    1.2262   -0.9413 H       1  NONAME1     0.0359
     52 H21        10.5591    2.6089   -0.0384 H       1  NONAME1     0.0359
     53 H22        12.3715    3.1686   -1.8401 H       1  NONAME1     0.1822
     54 H23        14.0958    4.6557   -1.0854 H       1  NONAME1     0.2414
     55 H24         3.4629   -1.0126    0.0395 H       1  NONAME1     0.0643
     56 H25         1.3357   -6.9253    0.0133 H       1  NONAME1     0.0639
     57 H26        -0.0034   -8.9684    0.0777 H       1  NONAME1     0.0637
@<TRIPOS>BOND
     1     1     2    1
     2     2     3   ar
     3     3     4   ar
     4     4     5   ar
     5     5     6    1
     6     6     7   ar
     7     7     8   ar
     8     8     9    1
     9     9    10   ar
    10    10    11   ar
    11    11    12   ar
    12    12    13   ar
    13    13    14    1
    14    14    15   am
    15    15    16    2
    16    15    17    1
    17    17    18    1
    18    18    19    1
    19    19    20    1
    20    20    21    1
    21    21    22    1
    22    22    23    1
    23    23    24    2
    24    23    25   am
    25    25    26    1
    26    13    27   ar
    27     9    27   ar
    28     8    28   ar
    29    28    29   ar
    30     6    29   ar
    31     5    30   ar
    32    30    31   ar
    33     2    31   ar
    34     1    32    1
    35     1    33    1
    36     3    34    1
    37     4    35    1
    38     7    36    1
    39    10    37    1
    40    11    38    1
    41    12    39    1
    42    14    40    1
    43    17    41    1
    44    17    42    1
    45    18    43    1
    46    18    44    1
    47    19    45    1
    48    19    46    1
    49    20    47    1
    50    20    48    1
    51    21    49    1
    52    21    50    1
    53    22    51    1
    54    22    52    1
    55    25    53    1
    56    26    54    1
    57    27    55    1
    58    30    56    1
    59    31    57    1
