@<TRIPOS>MOLECULE
*****
 42 44 0 0 0
SMALL
USER_CHARGES

@<TRIPOS>ATOM
      1 C1          3.6522   -9.6226    0.3058 C.3     1  NONAME1     0.0137
      2 N1          2.5126   -9.8971    1.3046 N.ar    1  NONAME1    -0.3286
      3 C2          2.3484   -9.2661    2.5120 C.ar    1  NONAME1     0.0247
      4 C3          1.2576   -9.8745    3.0862 C.ar    1  NONAME1     0.0466
      5 N2          0.7686  -10.8635    2.2743 N.ar    1  NONAME1    -0.2303
      6 C4          1.5369  -10.8579    1.2084 C.ar    1  NONAME1     0.1690
      7 S1          1.3346  -11.8864   -0.1715 S.3     1  NONAME1    -0.0830
      8 C5         -0.0641  -12.9321    0.3531 C.3     1  NONAME1     0.0262
      9 C6         -1.4732  -12.4051    0.1358 C.ar    1  NONAME1    -0.0371
     10 C7         -2.5384  -13.3248    0.0538 C.ar    1  NONAME1    -0.0571
     11 C8         -3.8716  -12.9011   -0.0906 C.ar    1  NONAME1    -0.0493
     12 C9         -4.1681  -11.5370   -0.1451 C.ar    1  NONAME1     0.0370
     13 C10        -5.5414  -10.9722   -0.3286 C.2     1  NONAME1     0.2483
     14 O1         -5.6207   -9.8475   -0.8192 O.2     1  NONAME1    -0.2699
     15 N3         -6.6166  -11.7533    0.0489 N.am    1  NONAME1    -0.2800
     16 C11        -7.9976  -11.3968    0.0332 C.ar    1  NONAME1     0.0545
     17 C12        -8.8966  -12.4800    0.0181 C.ar    1  NONAME1    -0.0387
     18 C13       -10.2796  -12.2784   -0.0100 C.ar    1  NONAME1    -0.0599
     19 C14       -10.7903  -10.9885    0.0144 C.ar    1  NONAME1    -0.0599
     20 C15        -9.9167   -9.9050    0.0697 C.ar    1  NONAME1    -0.0392
     21 C16        -8.5203  -10.0817    0.0433 C.ar    1  NONAME1     0.0461
     22 N4         -7.7393   -8.9390    0.3219 N.pl3   1  NONAME1    -0.3565
     23 C17        -3.1142  -10.6179   -0.0522 C.ar    1  NONAME1    -0.0493
     24 C18        -1.7911  -11.0442    0.0964 C.ar    1  NONAME1    -0.0571
     25 H1          3.9281   -8.6519    0.7653 H       1  NONAME1     0.0456
     26 H2          4.7917   -9.3481   -0.6931 H       1  NONAME1     0.0456
     27 H3          2.9515   -9.3923   -0.5238 H       1  NONAME1     0.0456
     28 H4          2.9935   -8.4684    2.8523 H       1  NONAME1     0.0825
     29 H5          0.8014   -9.6565    4.0433 H       1  NONAME1     0.0845
     30 H6          0.0387  -13.8477   -0.2424 H       1  NONAME1     0.0429
     31 H7          0.0559  -13.2277    1.4012 H       1  NONAME1     0.0429
     32 H8         -2.3340  -14.3938    0.1035 H       1  NONAME1     0.0621
     33 H9         -4.6424  -13.6589   -0.1792 H       1  NONAME1     0.0625
     34 H10        -6.4282  -12.7124    0.2956 H       1  NONAME1     0.1552
     35 H11        -8.5306  -13.5031    0.0053 H       1  NONAME1     0.0637
     36 H12       -10.9555  -13.1287   -0.0405 H       1  NONAME1     0.0618
     37 H13       -11.8641  -10.8202    0.0160 H       1  NONAME1     0.0618
     38 H14       -10.3314   -8.9025    0.1483 H       1  NONAME1     0.0636
     39 H15        -6.7917   -9.0573   -0.0551 H       1  NONAME1     0.1424
     40 H16        -8.1406   -8.0841   -0.0449 H       1  NONAME1     0.1424
     41 H17        -3.3162   -9.5482   -0.0858 H       1  NONAME1     0.0625
     42 H18        -1.0245  -10.2804    0.1912 H       1  NONAME1     0.0621
@<TRIPOS>BOND
     1     1     2    1
     2     2     3   ar
     3     3     4   ar
     4     4     5   ar
     5     5     6   ar
     6     2     6   ar
     7     6     7    1
     8     7     8    1
     9     8     9    1
    10     9    10   ar
    11    10    11   ar
    12    11    12   ar
    13    12    13    1
    14    13    14    2
    15    13    15   am
    16    15    16    1
    17    16    17   ar
    18    17    18   ar
    19    18    19   ar
    20    19    20   ar
    21    20    21   ar
    22    16    21   ar
    23    21    22    1
    24    12    23   ar
    25    23    24   ar
    26     9    24   ar
    27     1    25    1
    28     1    26    1
    29     1    27    1
    30     3    28    1
    31     4    29    1
    32     8    30    1
    33     8    31    1
    34    10    32    1
    35    11    33    1
    36    15    34    1
    37    17    35    1
    38    18    36    1
    39    19    37    1
    40    20    38    1
    41    22    39    1
    42    22    40    1
    43    23    41    1
    44    24    42    1
