REMARK  5 active torsions:
REMARK  status: ('A' for Active; 'I' for Inactive)
REMARK    1  A    between atoms: C2_2  and  N1_3 
REMARK    2  A    between atoms: C2_2  and  C9_15 
REMARK       I    between atoms: N1_3  and  C3_4 
REMARK    3  A    between atoms: C3_4  and  C4_6 
REMARK    4  A    between atoms: C7_9  and  C8_10 
REMARK       I    between atoms: C8_10  and  N2_12 
REMARK    5  A    between atoms: N2_12  and  O3_13 
ROOT
ATOM      1  N1  NON d   1       6.966  -2.315   0.249  0.00  0.00    -0.348 N 
ATOM      2  C3  NON d   1       6.410  -3.132   1.231  0.00  0.00     0.259 C 
ATOM      3  O1  NON d   1       6.029  -2.710   2.317  0.00  0.00    -0.267 OA
ATOM      4  H5  NON d   1       7.206  -2.782  -0.613  0.00  0.00     0.163 HD
ENDROOT
BRANCH   2   5
ATOM      5  C4  NON d   1       6.210  -4.511   0.815  0.00  0.00     0.073 A 
ATOM      6  C5  NON d   1       7.072  -5.395   0.201  0.00  0.00     0.026 A 
ATOM      7  C6  NON d   1       6.440  -6.646  -0.089  0.00  0.00     0.026 A 
ATOM      8  C7  NON d   1       5.108  -6.671   0.287  0.00  0.00     0.075 A 
ATOM      9  S1  NON d   1       4.659  -5.199   1.039  0.00  0.00    -0.079 SA
BRANCH   8  10
ATOM     10  C8  NON d   1       4.102  -7.711   0.128  0.00  0.00     0.281 C 
ATOM     11  O2  NON d   1       2.884  -7.543   0.222  0.00  0.00    -0.265 OA
ATOM     12  N2  NON d   1       4.596  -8.976  -0.128  0.00  0.00    -0.233 N 
ATOM     13  H8  NON d   1       5.544  -9.241   0.108  0.00  0.00     0.197 HD
BRANCH  12  14
ATOM     14  O3  NON d   1       3.640 -10.022  -0.126  0.00  0.00    -0.287 OA
ATOM     15  H9  NON d   1       2.795  -9.541   0.023  0.00  0.00     0.244 HD
ENDBRANCH  12  14
ENDBRANCH   8  10
ENDBRANCH   2   5
BRANCH   1  16
ATOM     16  C2  NON d   1       6.469  -0.885   0.000  0.00  0.00     0.114 C 
ATOM     17  C1  NON d   1       5.897  -0.139   1.301  0.00  0.00     0.037 C 
BRANCH  16  18
ATOM     18  C9  NON d   1       7.803  -0.115   0.000  0.00  0.00    -0.036 A 
ATOM     19  C10 NON d   1       7.799   1.199  -0.515  0.00  0.00     0.009 A 
ATOM     20  C11 NON d   1       8.967   1.966  -0.573  0.00  0.00     0.001 A 
ATOM     21  C12 NON d   1      10.181   1.422  -0.165  0.00  0.00     0.000 A 
ATOM     22  C13 NON d   1      10.222   0.120   0.319  0.00  0.00     0.001 A 
ATOM     23  C14 NON d   1       9.047  -0.632   0.417  0.00  0.00     0.009 A 
ENDBRANCH  16  18
ENDBRANCH   1  16
TORSDOF 5
