@<TRIPOS>MOLECULE
*****
 47 50 0 0 0
SMALL
USER_CHARGES

@<TRIPOS>ATOM
      1 N1         -0.9052    8.0006    0.0929 N.pl3   1  NONAME1    -0.3565
      2 C1          0.2698    8.7959    0.0425 C.ar    1  NONAME1     0.0461
      3 C2          0.1567   10.1910    0.1282 C.ar    1  NONAME1    -0.0392
      4 C3          1.2920   10.9980    0.0729 C.ar    1  NONAME1    -0.0599
      5 C4          2.5486   10.4128   -0.0391 C.ar    1  NONAME1    -0.0599
      6 C5          2.6772    9.0211   -0.0742 C.ar    1  NONAME1    -0.0387
      7 C6          1.5499    8.1959   -0.0094 C.ar    1  NONAME1     0.0545
      8 N2          1.6138    6.7762    0.0339 N.am    1  NONAME1    -0.2800
      9 C7          2.7449    5.9836   -0.0769 C.2     1  NONAME1     0.2483
     10 O1          3.8873    6.4023   -0.2411 O.2     1  NONAME1    -0.2699
     11 C8          2.5641    4.4924   -0.0128 C.ar    1  NONAME1     0.0370
     12 C9          3.7205    3.6968    0.0379 C.ar    1  NONAME1    -0.0493
     13 C10         3.6435    2.2967    0.0562 C.ar    1  NONAME1    -0.0571
     14 C11         2.4042    1.6411    0.0287 C.ar    1  NONAME1    -0.0370
     15 C12         2.3890    0.1161    0.0007 C.3     1  NONAME1     0.0278
     16 S1          0.8127   -0.6405    0.4749 S.3     1  NONAME1    -0.0609
     17 C13         1.0955   -2.3305    0.2185 C.ar    1  NONAME1     0.2779
     18 N3          2.2574   -2.9204    0.0267 N.ar    1  NONAME1    -0.1006
     19 N4          1.9959   -4.2806   -0.0790 N.ar    1  NONAME1    -0.1065
     20 C14         0.6901   -4.4199    0.0424 C.ar    1  NONAME1     0.2492
     21 C15        -0.1569   -5.6100    0.0358 C.ar    1  NONAME1     0.0385
     22 C16         0.4130   -6.8909    0.0298 C.ar    1  NONAME1    -0.0494
     23 C17        -0.3947   -8.0356    0.0373 C.ar    1  NONAME1    -0.0610
     24 C18        -1.7823   -7.9131    0.0463 C.ar    1  NONAME1    -0.0617
     25 C19        -2.3668   -6.6501    0.0478 C.ar    1  NONAME1    -0.0610
     26 C20        -1.5594   -5.5077    0.0437 C.ar    1  NONAME1    -0.0494
     27 O2          0.0571   -3.2211    0.2264 O.2     1  NONAME1    -0.4110
     28 C21         1.2516    2.4435   -0.0430 C.ar    1  NONAME1    -0.0571
     29 C22         1.3257    3.8483   -0.0533 C.ar    1  NONAME1    -0.0493
     30 H1         -1.7471    8.5689    0.0162 H       1  NONAME1     0.1424
     31 H2         -0.8917    7.3115   -0.6557 H       1  NONAME1     0.1424
     32 H3         -0.8172   10.6646    0.2150 H       1  NONAME1     0.0636
     33 H4          1.1980   12.0802    0.1165 H       1  NONAME1     0.0618
     34 H5          3.4391   11.0347   -0.0817 H       1  NONAME1     0.0618
     35 H6          3.6805    8.6129   -0.1274 H       1  NONAME1     0.0637
     36 H7          0.7225    6.3515    0.2509 H       1  NONAME1     0.1552
     37 H8          4.7037    4.1666    0.0517 H       1  NONAME1     0.0625
     38 H9          4.5709    1.7264    0.0807 H       1  NONAME1     0.0621
     39 H10         3.1522   -0.2518    0.6970 H       1  NONAME1     0.0430
     40 H11         2.6616   -0.2087   -1.0101 H       1  NONAME1     0.0430
     41 H12         1.4953   -7.0116    0.0260 H       1  NONAME1     0.0625
     42 H13         0.0604   -9.0236    0.0383 H       1  NONAME1     0.0618
     43 H14        -2.4099   -8.8017    0.0527 H       1  NONAME1     0.0618
     44 H15        -3.4496   -6.5507    0.0540 H       1  NONAME1     0.0618
     45 H16        -2.0442   -4.5337    0.0465 H       1  NONAME1     0.0625
     46 H17         0.2614    1.9967   -0.0989 H       1  NONAME1     0.0621
     47 H18         0.3929    4.3968   -0.1175 H       1  NONAME1     0.0625
@<TRIPOS>BOND
     1     1     2    1
     2     2     3   ar
     3     3     4   ar
     4     4     5   ar
     5     5     6   ar
     6     6     7   ar
     7     2     7   ar
     8     7     8    1
     9     8     9   am
    10     9    10    2
    11     9    11    1
    12    11    12   ar
    13    12    13   ar
    14    13    14   ar
    15    14    15    1
    16    15    16    1
    17    16    17    1
    18    17    18   ar
    19    18    19   ar
    20    19    20   ar
    21    20    21    1
    22    21    22   ar
    23    22    23   ar
    24    23    24   ar
    25    24    25   ar
    26    25    26   ar
    27    21    26   ar
    28    20    27   ar
    29    17    27   ar
    30    14    28   ar
    31    28    29   ar
    32    11    29   ar
    33     1    30    1
    34     1    31    1
    35     3    32    1
    36     4    33    1
    37     5    34    1
    38     6    35    1
    39     8    36    1
    40    12    37    1
    41    13    38    1
    42    15    39    1
    43    15    40    1
    44    22    41    1
    45    23    42    1
    46    24    43    1
    47    25    44    1
    48    26    45    1
    49    28    46    1
    50    29    47    1
