REMARK  8 active torsions:
REMARK  status: ('A' for Active; 'I' for Inactive)
REMARK    1  A    between atoms: C1_2  and  C2_3 
REMARK       I    between atoms: C1_2  and  N3_21 
REMARK    2  A    between atoms: C2_3  and  C3_4 
REMARK    3  A    between atoms: C3_4  and  C4_5 
REMARK    4  A    between atoms: C4_5  and  C5_6 
REMARK    5  A    between atoms: C5_6  and  C6_7 
REMARK    6  A    between atoms: C6_7  and  N1_8 
REMARK       I    between atoms: N1_8  and  C7_9 
REMARK       I    between atoms: C7_9  and  N2_11 
REMARK       I    between atoms: N2_11  and  C8_12 
REMARK    7  A    between atoms: C8_12  and  C9_14 
REMARK    8  A    between atoms: N3_21  and  O4_22 
ROOT
ATOM      1  N1  NON d   1       5.193  -1.631  -0.141  0.00  0.00    -0.343 N 
ATOM      2  C7  NON d   1       4.059  -2.390  -0.418  0.00  0.00     0.323 C 
ATOM      3  O2  NON d   1       4.119  -3.508  -0.910  0.00  0.00    -0.247 OA
ATOM      4  N2  NON d   1       2.900  -1.701  -0.131  0.00  0.00    -0.275 N 
ATOM      5  C8  NON d   1       1.682  -2.337   0.046  0.00  0.00     0.259 C 
ATOM      6  O3  NON d   1       1.570  -3.525   0.346  0.00  0.00    -0.267 OA
ATOM      7  H11 NON d   1       5.071  -0.995   0.634  0.00  0.00     0.164 HD
ATOM      8  H12 NON d   1       2.942  -0.719  -0.330  0.00  0.00     0.173 HD
ENDROOT
BRANCH   1   9
ATOM      9  C6  NON d   1       6.465  -2.339  -0.162  0.00  0.00     0.124 C 
BRANCH   9  10
ATOM     10  C5  NON d   1       7.690  -1.459   0.085  0.00  0.00     0.020 C 
BRANCH  10  11
ATOM     11  C4  NON d   1       8.112  -0.649  -1.143  0.00  0.00     0.002 C 
BRANCH  11  12
ATOM     12  C3  NON d   1       9.427   0.125  -0.940  0.00  0.00     0.009 C 
BRANCH  12  13
ATOM     13  C2  NON d   1      10.699  -0.688  -1.210  0.00  0.00     0.105 C 
BRANCH  13  14
ATOM     14  C1  NON d   1      11.256  -1.486  -0.038  0.00  0.00     0.240 C 
ATOM     15  O1  NON d   1      10.826  -1.404   1.107  0.00  0.00    -0.271 OA
ATOM     16  N3  NON d   1      12.345  -2.256  -0.427  0.00  0.00    -0.237 N 
ATOM     17  H17 NON d   1      12.431  -2.536  -1.397  0.00  0.00     0.197 HD
BRANCH  16  18
ATOM     18  O4  NON d   1      12.777  -3.215   0.512  0.00  0.00    -0.287 OA
ATOM     19  H18 NON d   1      13.537  -2.770   0.930  0.00  0.00     0.244 HD
ENDBRANCH  16  18
ENDBRANCH  13  14
ENDBRANCH  12  13
ENDBRANCH  11  12
ENDBRANCH  10  11
ENDBRANCH   9  10
ENDBRANCH   1   9
BRANCH   5  20
ATOM     20  C9  NON d   1       0.434  -1.516  -0.026  0.00  0.00     0.032 A 
ATOM     21  C10 NON d   1      -0.793  -2.205  -0.056  0.00  0.00     0.018 A 
ATOM     22  C11 NON d   1      -2.010  -1.517  -0.072  0.00  0.00     0.019 A 
ATOM     23  C12 NON d   1      -2.010  -0.126  -0.060  0.00  0.00     0.006 A 
ATOM     24  I1  NON d   1      -3.814   0.907  -0.054  0.00  0.00    -0.045 I 
ATOM     25  C13 NON d   1      -0.804   0.577  -0.037  0.00  0.00     0.019 A 
ATOM     26  C14 NON d   1       0.416  -0.115  -0.019  0.00  0.00     0.018 A 
ENDBRANCH   5  20
TORSDOF 8
