@<TRIPOS>MOLECULE
*****
 34 35 0 0 0
SMALL
USER_CHARGES

@<TRIPOS>ATOM
      1 C1          5.8915   -0.1185   -1.2844 C.3     1  NONAME1    -0.0424
      2 C2          6.4692   -0.8850    0.0000 C.3     1  NONAME1     0.0459
      3 N1          6.9732   -2.3067   -0.2624 N.am    1  NONAME1    -0.3044
      4 C3          6.4400   -3.1013   -1.2781 C.2     1  NONAME1     0.2512
      5 O1          6.0914   -2.6530   -2.3650 O.2     1  NONAME1    -0.2696
      6 C4          6.2214   -4.4840   -0.8957 C.ar    1  NONAME1     0.0745
      7 C5          7.0611   -5.3963   -0.2983 C.ar    1  NONAME1    -0.0418
      8 C6          6.4112   -6.6529   -0.0629 C.ar    1  NONAME1    -0.0431
      9 C7          5.0820   -6.6463   -0.4499 C.ar    1  NONAME1     0.0643
     10 C8          4.0531   -7.6847   -0.3465 C.2     1  NONAME1     0.2720
     11 O2          2.8581   -7.4676   -0.5790 O.2     1  NONAME1    -0.2820
     12 C9          4.5357   -9.0736    0.0642 C.3     1  NONAME1     0.4559
     13 F1          5.3895   -9.6127   -0.8525 F       1  NONAME1    -0.1630
     14 F2          5.2150   -9.0628    1.2481 F       1  NONAME1    -0.1630
     15 F3          3.5267   -9.9750    0.2205 F       1  NONAME1    -0.1630
     16 S1          4.6650   -5.1464   -1.1669 S.2     1  NONAME1    -0.0805
     17 C10         7.8029   -0.1150    0.0000 C.ar    1  NONAME1    -0.0275
     18 C11         7.8091    1.1547    0.6156 C.ar    1  NONAME1    -0.0568
     19 C12         8.9726    1.9267    0.6835 C.ar    1  NONAME1    -0.0614
     20 C13        10.1694    1.4298    0.1781 C.ar    1  NONAME1    -0.0617
     21 C14        10.1980    0.1720   -0.4148 C.ar    1  NONAME1    -0.0614
     22 C15         9.0263   -0.5838   -0.5195 C.ar    1  NONAME1    -0.0568
     23 H1          6.5815   -0.1125   -2.1376 H       1  NONAME1     0.0251
     24 H2          5.6210    0.9136   -1.0287 H       1  NONAME1     0.0251
     25 H3          4.9582   -0.5726   -1.6400 H       1  NONAME1     0.0251
     26 H4          5.1355   -1.6550    0.0000 H       1  NONAME1     0.0545
     27 H5          7.1969   -2.7918    0.5930 H       1  NONAME1     0.1496
     28 H6          8.0965   -5.1889   -0.0563 H       1  NONAME1     0.0631
     29 H7          6.9130   -7.4937    0.3969 H       1  NONAME1     0.0630
     30 H8          6.8894    1.5691    1.0255 H       1  NONAME1     0.0621
     31 H9          8.9424    2.9167    1.1308 H       1  NONAME1     0.0618
     32 H10        11.0779    2.0224    0.2412 H       1  NONAME1     0.0618
     33 H11        11.1323   -0.2246   -0.8042 H       1  NONAME1     0.0618
     34 H12         9.0968   -1.5507   -1.0115 H       1  NONAME1     0.0621
@<TRIPOS>BOND
     1     2     1    1
     2     2     3    1
     3     3     4   am
     4     4     5    2
     5     4     6    1
     6     6     7   ar
     7     7     8   ar
     8     8     9   ar
     9     9    10    1
    10    10    11    2
    11    10    12    1
    12    12    13    1
    13    12    14    1
    14    12    15    1
    15     9    16   ar
    16     6    16   ar
    17     2    17    1
    18    17    18   ar
    19    18    19   ar
    20    19    20   ar
    21    20    21   ar
    22    21    22   ar
    23    17    22   ar
    24     1    23    1
    25     1    24    1
    26     1    25    1
    27     2    26    1
    28     3    27    1
    29     7    28    1
    30     8    29    1
    31    18    30    1
    32    19    31    1
    33    20    32    1
    34    21    33    1
    35    22    34    1
