@<TRIPOS>MOLECULE
*****
 61 63 0 0 0
SMALL
USER_CHARGES

@<TRIPOS>ATOM
      1 C1          3.6205    1.7632   -3.7356 C.3     1  NONAME1    -0.0598
      2 C2          2.5084    0.8338   -3.2934 C.3     1  NONAME1    -0.0112
      3 C3          2.6494    0.1240   -1.9762 C.ar    1  NONAME1     0.0671
      4 N1          1.5496   -0.5016   -1.5669 N.ar    1  NONAME1    -0.1711
      5 N2          1.8633   -1.1444   -0.4341 N.ar    1  NONAME1    -0.2393
      6 C4          1.0162   -1.9567    0.3221 C.ar    1  NONAME1     0.0297
      7 C5          1.4563   -2.5269    1.4486 C.ar    1  NONAME1    -0.0435
      8 C6          2.8300   -2.2984    1.8543 C.ar    1  NONAME1    -0.0583
      9 C7          3.6628   -1.5298    1.1239 C.ar    1  NONAME1    -0.0359
     10 C8          3.1999   -0.8982   -0.0725 C.ar    1  NONAME1     0.0704
     11 C9          3.7458   -0.0732   -1.0480 C.ar    1  NONAME1     0.0059
     12 C10         5.1348    0.4797   -1.1698 C.3     1  NONAME1     0.0165
     13 C11         5.9969    0.4899    0.1268 C.3     1  NONAME1    -0.0272
     14 N3          7.1277    1.5243    0.0000 N.4     1  NONAME1     0.2405
     15 C12         7.5013    3.0910    0.2815 C.3     1  NONAME1    -0.0057
     16 C13         8.8682    3.8385    0.1534 C.ar    1  NONAME1    -0.0029
     17 C14         8.8358    5.2183   -0.1739 C.ar    1  NONAME1    -0.0530
     18 C15        10.0077    6.0249   -0.2623 C.ar    1  NONAME1    -0.0542
     19 C16        11.2774    5.4748   -0.0800 C.ar    1  NONAME1    -0.0249
     20 C17        12.5241    6.2756   -0.1327 C.2     1  NONAME1    -0.0496
     21 C18        13.7308    5.7155   -0.3412 C.2     1  NONAME1     0.0027
     22 C19        15.0195    6.4532   -0.2430 C.2     1  NONAME1     0.2593
     23 O1         15.0770    7.6615   -0.0633 O.2     1  NONAME1    -0.2687
     24 N4         16.0978    5.5963   -0.3461 N.am    1  NONAME1    -0.1940
     25 O2         17.3646    6.1843   -0.5439 O.3     1  NONAME1    -0.2949
     26 C20        11.3202    4.1375    0.2929 C.ar    1  NONAME1    -0.0542
     27 C21        10.1546    3.3733    0.4742 C.ar    1  NONAME1    -0.0530
     28 C22         8.4614    0.7543    0.0000 C.3     1  NONAME1    -0.0263
     29 C23         8.7869   -0.2219    1.1457 C.3     1  NONAME1    -0.0218
     30 C24         8.6797    0.1386   -1.3938 C.3     1  NONAME1    -0.0218
     31 H1          3.3596    2.2171   -4.7010 H       1  NONAME1     0.0233
     32 H2          3.7668    2.5797   -3.0223 H       1  NONAME1     0.0233
     33 H3          4.5641    1.2286   -3.8722 H       1  NONAME1     0.0233
     34 H4          2.3639    0.0770   -4.0765 H       1  NONAME1     0.0326
     35 H5          1.5819    1.4347   -3.2594 H       1  NONAME1     0.0326
     36 H6          0.0133   -2.0882   -0.0626 H       1  NONAME1     0.0830
     37 H7          0.8240   -3.1658    2.0586 H       1  NONAME1     0.0633
     38 H8          3.1659   -2.7683    2.7736 H       1  NONAME1     0.0619
     39 H9          4.6766   -1.4041    1.4732 H       1  NONAME1     0.0639
     40 H10         5.6612   -0.0821   -1.9469 H       1  NONAME1     0.0366
     41 H11         5.0510    1.5048   -1.5397 H       1  NONAME1     0.0366
     42 H12         5.4344    0.7605    1.0280 H       1  NONAME1     0.0818
     43 H13         6.4295   -0.5045    0.2707 H       1  NONAME1     0.0818
     44 H14         5.7940    2.2943    0.0000 H       1  NONAME1     0.2039
     45 H15         7.0726    3.3077    1.2625 H       1  NONAME1     0.0867
     46 H16         6.8974    3.5830   -0.4980 H       1  NONAME1     0.0867
     47 H17         7.8839    5.7282   -0.3290 H       1  NONAME1     0.0622
     48 H18         9.9017    7.0911   -0.4643 H       1  NONAME1     0.0624
     49 H19        12.4423    7.3437    0.0625 H       1  NONAME1     0.0625
     50 H20        13.8299    4.6604   -0.5557 H       1  NONAME1     0.0670
     51 H21        15.9990    4.6572   -0.7155 H       1  NONAME1     0.1825
     52 H22        17.6618    6.3445    0.3716 H       1  NONAME1     0.2414
     53 H23        12.2684    3.6512    0.5143 H       1  NONAME1     0.0624
     54 H24        10.3799    2.4065    0.9103 H       1  NONAME1     0.0622
     55 H25         9.2187    1.4851   -0.0085 H       1  NONAME1     0.0846
     56 H26         9.8811   -0.2516    0.9583 H       1  NONAME1     0.0284
     57 H27         9.1125   -1.1981    2.2915 H       1  NONAME1     0.0284
     58 H28         8.5847    0.5052    1.9592 H       1  NONAME1     0.0284
     59 H29         7.9009    0.4066   -2.1116 H       1  NONAME1     0.0284
     60 H30         9.6189    0.5301   -1.8131 H       1  NONAME1     0.0284
     61 H31         8.7833   -0.9485   -1.3568 H       1  NONAME1     0.0284
@<TRIPOS>BOND
     1     1     2    1
     2     2     3    1
     3     3     4   ar
     4     4     5   ar
     5     5     6   ar
     6     6     7   ar
     7     7     8   ar
     8     8     9   ar
     9     9    10   ar
    10     5    10   ar
    11    10    11   ar
    12     3    11   ar
    13    11    12    1
    14    12    13    1
    15    13    14    1
    16    14    15    1
    17    15    16    1
    18    16    17   ar
    19    17    18   ar
    20    18    19   ar
    21    19    20    1
    22    20    21    2
    23    21    22    1
    24    22    23    2
    25    22    24   am
    26    24    25    1
    27    19    26   ar
    28    26    27   ar
    29    16    27   ar
    30    14    28    1
    31    28    29    1
    32    28    30    1
    33     1    31    1
    34     1    32    1
    35     1    33    1
    36     2    34    1
    37     2    35    1
    38     6    36    1
    39     7    37    1
    40     8    38    1
    41     9    39    1
    42    12    40    1
    43    12    41    1
    44    13    42    1
    45    13    43    1
    46    14    44    1
    47    15    45    1
    48    15    46    1
    49    17    47    1
    50    18    48    1
    51    20    49    1
    52    21    50    1
    53    24    51    1
    54    25    52    1
    55    26    53    1
    56    27    54    1
    57    28    55    1
    58    29    56    1
    59    29    57    1
    60    29    58    1
    61    30    59    1
    62    30    60    1
    63    30    61    1
