@<TRIPOS>MOLECULE
*****
 44 44 0 0 0
SMALL
USER_CHARGES

@<TRIPOS>ATOM
      1 C1          1.8709    6.5668    1.5689 C.3     1  NONAME1    -0.0400
      2 C2          1.2008    6.9091    0.2571 C.2     1  NONAME1    -0.0535
      3 C3          1.4225    8.2599   -0.2598 C.2     1  NONAME1    -0.0541
      4 C4          2.4626    9.0471    0.0520 C.2     1  NONAME1     0.0024
      5 C5          2.5352   10.4388   -0.4580 C.2     1  NONAME1     0.2593
      6 O1          1.6300   10.9822   -1.0770 O.2     1  NONAME1    -0.2687
      7 N1          3.6944   11.0846   -0.1121 N.am    1  NONAME1    -0.1940
      8 O2          3.7510   12.4634   -0.4102 O.3     1  NONAME1    -0.2949
      9 C6          0.4212    6.0430   -0.4339 C.2     1  NONAME1    -0.0708
     10 C7          0.0000    4.6200    0.0000 C.3     1  NONAME1     0.0379
     11 C8         -1.3337    3.8500    0.0000 C.3     1  NONAME1    -0.0518
     12 C9          1.3337    3.8500    0.0000 C.2     1  NONAME1     0.1697
     13 O3          2.4498    4.3215   -0.2247 O.2     1  NONAME1    -0.2914
     14 C10         1.3497    2.1834    0.1462 C.ar    1  NONAME1     0.0181
     15 C11         2.2954    1.4125   -0.5607 C.ar    1  NONAME1    -0.0495
     16 C12         2.3064   -0.0565   -0.5780 C.ar    1  NONAME1    -0.0400
     17 C13         1.3558   -0.8774    0.0753 C.ar    1  NONAME1     0.0292
     18 N2          1.3337   -2.3100    0.0000 N.pl3   1  NONAME1    -0.3360
     19 C14         2.5966   -3.0270   -0.0418 C.3     1  NONAME1     0.0004
     20 C15         0.0000   -3.0800    0.0000 C.3     1  NONAME1     0.0004
     21 C16         0.4497   -0.1049    0.8266 C.ar    1  NONAME1    -0.0400
     22 C17         0.4803    1.3631    0.9045 C.ar    1  NONAME1    -0.0495
     23 H1          1.4700    5.6583    2.0284 H       1  NONAME1     0.0277
     24 H2          2.9466    6.4147    1.4155 H       1  NONAME1     0.0277
     25 H3          1.7424    7.3685    2.3045 H       1  NONAME1     0.0277
     26 H4          0.6612    8.6393   -0.9447 H       1  NONAME1     0.0622
     27 H5          3.2679    8.7051    0.6923 H       1  NONAME1     0.0670
     28 H6          4.4169   10.7132    0.4922 H       1  NONAME1     0.1825
     29 H7          2.8678   12.6251   -0.8103 H       1  NONAME1     0.2414
     30 H8          0.0153    6.3563   -1.3985 H       1  NONAME1     0.0582
     31 H9         -1.3337    5.3900    0.0000 H       1  NONAME1     0.0421
     32 H10        -1.5514    3.9966   -1.0946 H       1  NONAME1     0.0239
     33 H11        -2.6674    3.0800    0.0000 H       1  NONAME1     0.0239
     34 H12        -0.9361    2.8425   -0.0275 H       1  NONAME1     0.0239
     35 H13         3.0587    1.9284   -1.1448 H       1  NONAME1     0.0625
     36 H14         3.0841   -0.5278   -1.1783 H       1  NONAME1     0.0636
     37 H15         2.4823   -4.0427    0.3524 H       1  NONAME1     0.0428
     38 H16         2.9671   -3.0971   -1.0689 H       1  NONAME1     0.0428
     39 H17         3.3551   -2.5357    0.5785 H       1  NONAME1     0.0428
     40 H18        -0.4426   -2.5081   -0.8389 H       1  NONAME1     0.0428
     41 H19        -1.3337   -3.8500    0.0000 H       1  NONAME1     0.0428
     42 H20         0.4086   -4.0128   -0.4317 H       1  NONAME1     0.0428
     43 H21        -0.3045   -0.6167    1.4234 H       1  NONAME1     0.0636
     44 H22        -0.2386    1.8175    1.5857 H       1  NONAME1     0.0625
@<TRIPOS>BOND
     1     1     2    1
     2     2     3    1
     3     3     4    2
     4     4     5    1
     5     5     6    2
     6     5     7   am
     7     7     8    1
     8     2     9    2
     9    10     9    1
    10    10    11    1
    11    10    12    1
    12    12    13    2
    13    12    14    1
    14    14    15   ar
    15    15    16   ar
    16    16    17   ar
    17    17    18    1
    18    18    19    1
    19    18    20    1
    20    17    21   ar
    21    21    22   ar
    22    14    22   ar
    23     1    23    1
    24     1    24    1
    25     1    25    1
    26     3    26    1
    27     4    27    1
    28     7    28    1
    29     8    29    1
    30     9    30    1
    31    10    31    1
    32    11    32    1
    33    11    33    1
    34    11    34    1
    35    15    35    1
    36    16    36    1
    37    19    37    1
    38    19    38    1
    39    19    39    1
    40    20    40    1
    41    20    41    1
    42    20    42    1
    43    21    43    1
    44    22    44    1
