REMARK  10 active torsions:
REMARK  status: ('A' for Active; 'I' for Inactive)
REMARK    1  A    between atoms: C1_2  and  C2_4 
REMARK    2  A    between atoms: C2_4  and  C3_5 
REMARK    3  A    between atoms: C3_5  and  C4_6 
REMARK    4  A    between atoms: C4_6  and  C5_7 
REMARK    5  A    between atoms: C5_7  and  C6_8 
REMARK    6  A    between atoms: C6_8  and  C7_9 
REMARK    7  A    between atoms: C7_9  and  C8_10 
REMARK    8  A    between atoms: C8_10  and  C9_13 
REMARK    9  A    between atoms: N1_11  and  O3_12 
REMARK   10  A    between atoms: C12_16  and  C13_17 
ROOT
ATOM      1  C8  NON d   1       5.412 -15.555   0.028  0.00  0.00     0.071 C 
ATOM      2  N1  NON d   1       5.552 -16.849   0.125  0.00  0.00    -0.140 NA
ENDROOT
BRANCH   1   3
ATOM      3  C7  NON d   1       4.105 -14.753  -0.113  0.00  0.00     0.062 C 
BRANCH   3   4
ATOM      4  C6  NON d   1       2.743 -15.435  -0.052  0.00  0.00     0.006 C 
BRANCH   4   5
ATOM      5  C5  NON d   1       1.552 -14.465   0.005  0.00  0.00     0.000 C 
BRANCH   5   6
ATOM      6  C4  NON d   1       1.244 -13.702  -1.291  0.00  0.00     0.001 C 
BRANCH   6   7
ATOM      7  C3  NON d   1       1.972 -12.359  -1.413  0.00  0.00     0.010 C 
BRANCH   7   8
ATOM      8  C2  NON d   1       1.547 -11.576  -2.656  0.00  0.00     0.113 C 
BRANCH   8   9
ATOM      9  C1  NON d   1       0.206 -10.833  -2.607  0.00  0.00     0.172 C 
ATOM     10  O1  NON d   1      -0.125 -10.289  -3.700  0.00  0.00    -0.648 OA
ATOM     11  O2  NON d   1      -0.395 -10.829  -1.498  0.00  0.00    -0.648 OA
ENDBRANCH   8   9
ENDBRANCH   7   8
ENDBRANCH   6   7
ENDBRANCH   5   6
ENDBRANCH   4   5
ENDBRANCH   3   4
ENDBRANCH   1   3
BRANCH   1  12
ATOM     12  C9  NON d   1       6.696 -14.744   0.025  0.00  0.00    -0.009 A 
ATOM     13  C10 NON d   1       6.712 -13.350  -0.032  0.00  0.00     0.014 A 
ATOM     14  C11 NON d   1       7.928 -12.642  -0.050  0.00  0.00     0.013 A 
ATOM     15  C12 NON d   1       9.183 -13.282  -0.012  0.00  0.00    -0.026 A 
ATOM     16  C19 NON d   1       9.136 -14.688   0.048  0.00  0.00     0.013 A 
ATOM     17  C20 NON d   1       7.927 -15.404   0.065  0.00  0.00     0.014 A 
BRANCH  15  18
ATOM     18  C13 NON d   1      10.478 -12.522  -0.038  0.00  0.00    -0.026 A 
ATOM     19  C14 NON d   1      10.527 -11.113  -0.002  0.00  0.00     0.012 A 
ATOM     20  C15 NON d   1      11.735 -10.400  -0.034  0.00  0.00     0.001 A 
ATOM     21  C16 NON d   1      12.945 -11.077  -0.094  0.00  0.00     0.000 A 
ATOM     22  C17 NON d   1      12.942 -12.464  -0.127  0.00  0.00     0.001 A 
ATOM     23  C18 NON d   1      11.730 -13.170  -0.102  0.00  0.00     0.012 A 
ENDBRANCH  15  18
ENDBRANCH   1  12
BRANCH   2  24
ATOM     24  O3  NON d   1       4.365 -17.567   0.081  0.00  0.00    -0.266 OA
ATOM     25  H13 NON d   1       4.671 -18.488   0.170  0.00  0.00     0.247 HD
ENDBRANCH   2  24
TORSDOF 10
