@<TRIPOS>MOLECULE
*****
 18 18 0 0 0
SMALL
USER_CHARGES

@<TRIPOS>ATOM
      1 O1          2.0368    4.1063    0.3486 O.2     1  NONAME1    -0.2685
      2 C1          0.9977    3.4858    0.1377 C.2     1  NONAME1     0.2622
      3 N1         -0.2032    4.1176   -0.0305 N.am    1  NONAME1    -0.1937
      4 O2         -0.1873    5.5289    0.0221 O.3     1  NONAME1    -0.2949
      5 C2          0.9557    2.0119    0.0323 C.2     1  NONAME1     0.0124
      6 C3          2.0529    1.2518    0.1474 C.2     1  NONAME1    -0.0758
      7 C4          1.7513   -0.1962   -0.0305 C.3     1  NONAME1    -0.0338
      8 C5          0.2236   -0.2395   -0.0111 C.3     1  NONAME1    -0.0454
      9 C6         -0.2615    1.1948   -0.2352 C.3     1  NONAME1    -0.0227
     10 H1         -1.0864    3.6755   -0.2488 H       1  NONAME1     0.1825
     11 H2          0.7651    5.7170    0.1804 H       1  NONAME1     0.2414
     12 H3          3.0508    1.6353    0.3214 H       1  NONAME1     0.0576
     13 H4          2.1519   -0.5557   -0.9837 H       1  NONAME1     0.0308
     14 H5          2.1723   -0.7991    0.7795 H       1  NONAME1     0.0308
     15 H6         -0.1729   -0.9251   -0.7676 H       1  NONAME1     0.0271
     16 H7         -0.1262   -0.6027    0.9637 H       1  NONAME1     0.0271
     17 H8         -1.0832    1.4307    0.4483 H       1  NONAME1     0.0315
     18 H9         -0.6033    1.3372   -1.2659 H       1  NONAME1     0.0315
@<TRIPOS>BOND
     1     1     2    2
     2     2     3   am
     3     3     4    1
     4     2     5    1
     5     5     6    2
     6     6     7    1
     7     7     8    1
     8     8     9    1
     9     5     9    1
    10     3    10    1
    11     4    11    1
    12     6    12    1
    13     7    13    1
    14     7    14    1
    15     8    15    1
    16     8    16    1
    17     9    17    1
    18     9    18    1
