@<TRIPOS>MOLECULE
*****
 38 40 0 0 0
SMALL
USER_CHARGES

@<TRIPOS>ATOM
      1 C1          1.0069   -5.2931    1.1139 C.3     1  NONAME1     0.0038
      2 N1          0.2485   -4.7453   -0.0060 N.am    1  NONAME1    -0.2958
      3 C2          0.2516   -3.2963   -0.2180 C.3     1  NONAME1     0.0398
      4 C3          1.5445   -2.5221   -0.0900 C.ar    1  NONAME1    -0.0280
      5 C4          1.4598   -1.1568    0.2158 C.ar    1  NONAME1    -0.0549
      6 C5          2.6087   -0.3690    0.2925 C.ar    1  NONAME1    -0.0339
      7 C6          3.8644   -0.9097    0.0752 C.ar    1  NONAME1     0.0892
      8 N2          4.9491   -0.1193    0.1829 N.ar    1  NONAME1    -0.2519
      9 C7          6.1435   -0.7083   -0.0329 C.ar    1  NONAME1     0.0464
     10 C8          6.2535   -2.0456   -0.3496 C.ar    1  NONAME1     0.0464
     11 N3          5.1763   -2.8532   -0.4712 N.ar    1  NONAME1    -0.2519
     12 C9          3.9719   -2.2841   -0.2568 C.ar    1  NONAME1     0.0895
     13 C10         2.8130   -3.0535   -0.3594 C.ar    1  NONAME1    -0.0296
     14 C11        -0.9049   -5.3980   -0.4996 C.2     1  NONAME1     0.2533
     15 O1         -1.7867   -4.7447   -1.0621 O.2     1  NONAME1    -0.2694
     16 C12        -1.0277   -6.8442   -0.3417 C.ar    1  NONAME1     0.0747
     17 C13        -0.0870   -7.8483   -0.4541 C.ar    1  NONAME1    -0.0418
     18 C14        -0.6573   -9.1516   -0.2984 C.ar    1  NONAME1    -0.0431
     19 C15        -2.0232   -9.1134   -0.0800 C.ar    1  NONAME1     0.0643
     20 C16        -2.9920  -10.1998    0.0933 C.2     1  NONAME1     0.2720
     21 O2         -4.1694  -10.0030    0.4122 O.2     1  NONAME1    -0.2820
     22 C17        -2.4581  -11.6151   -0.1161 C.3     1  NONAME1     0.4559
     23 F1         -1.5814  -11.9819    0.8635 F       1  NONAME1    -0.1630
     24 F2         -3.4323  -12.5674   -0.1301 F       1  NONAME1    -0.1630
     25 F3         -1.7805  -11.7545   -1.2929 F       1  NONAME1    -0.1630
     26 S1         -2.5850   -7.4944   -0.0377 S.2     1  NONAME1    -0.0805
     27 H1          0.4221   -6.0282    1.6727 H       1  NONAME1     0.0429
     28 H2          1.9080   -5.7725    0.7207 H       1  NONAME1     0.0429
     29 H3          1.2919   -4.5001    1.8111 H       1  NONAME1     0.0429
     30 H4         -0.1426   -3.0823   -1.2194 H       1  NONAME1     0.0514
     31 H5         -0.4700   -2.8953    0.5077 H       1  NONAME1     0.0514
     32 H6          0.4910   -0.6883    0.3844 H       1  NONAME1     0.0621
     33 H7          2.5215    0.6900    0.5251 H       1  NONAME1     0.0639
     34 H8          7.0144   -0.0680    0.0592 H       1  NONAME1     0.0845
     35 H9          7.2191   -2.5102   -0.5142 H       1  NONAME1     0.0845
     36 H10         2.9208   -4.0934   -0.6565 H       1  NONAME1     0.0643
     37 H11         0.9584   -7.6662   -0.6749 H       1  NONAME1     0.0631
     38 H12        -0.0740  -10.0638   -0.3711 H       1  NONAME1     0.0630
@<TRIPOS>BOND
     1     1     2    1
     2     2     3    1
     3     3     4    1
     4     4     5   ar
     5     5     6   ar
     6     6     7   ar
     7     7     8   ar
     8     8     9   ar
     9     9    10   ar
    10    10    11   ar
    11    11    12   ar
    12     7    12   ar
    13    12    13   ar
    14     4    13   ar
    15     2    14   am
    16    14    15    2
    17    14    16    1
    18    16    17   ar
    19    17    18   ar
    20    18    19   ar
    21    19    20    1
    22    20    21    2
    23    20    22    1
    24    22    23    1
    25    22    24    1
    26    22    25    1
    27    19    26   ar
    28    16    26   ar
    29     1    27    1
    30     1    28    1
    31     1    29    1
    32     3    30    1
    33     3    31    1
    34     5    32    1
    35     6    33    1
    36     9    34    1
    37    10    35    1
    38    13    36    1
    39    17    37    1
    40    18    38    1
