REMARK  8 active torsions:
REMARK  status: ('A' for Active; 'I' for Inactive)
REMARK    1  A    between atoms: C3_3  and  C4_4 
REMARK    2  A    between atoms: C10_11  and  C11_12 
REMARK    3  A    between atoms: C15_16  and  C16_17 
REMARK    4  A    between atoms: C17_18  and  C18_19 
REMARK       I    between atoms: C18_19  and  N2_21 
REMARK    5  A    between atoms: N2_21  and  O2_22 
REMARK    6  A    between atoms: N3_24  and  C20_25 
REMARK    7  A    between atoms: C20_25  and  C21_26 
REMARK    8  A    between atoms: C21_26  and  C22_27 
ROOT
ATOM      1  C1  NON d   1       2.667  -3.080   0.000  0.00  0.00     0.071 C 
ATOM      2  C2  NON d   1       2.667  -4.620   0.000  0.00  0.00     0.039 A 
ATOM      3  C3  NON d   1       3.720  -5.501  -0.120  0.00  0.00     0.091 A 
ATOM      4  N1  NON d   1       3.239  -6.783  -0.189  0.00  0.00    -0.228 NA
ATOM      5  C10 NON d   1       1.910  -6.779  -0.123  0.00  0.00     0.141 A 
ATOM      6  N3  NON d   1       1.487  -5.438  -0.005  0.00  0.00    -0.332 N 
ENDROOT
BRANCH   5   7
ATOM      7  C11 NON d   1       1.200  -8.109  -0.077  0.00  0.00     0.011 C 
ATOM      8  C12 NON d   1       1.937  -9.232   0.342  0.00  0.00     0.015 C 
ATOM      9  C13 NON d   1       1.368 -10.513   0.456  0.00  0.00     0.002 C 
ATOM     10  C14 NON d   1       0.008 -10.709   0.218  0.00  0.00     0.011 C 
ATOM     11  C15 NON d   1      -0.764  -9.644  -0.226  0.00  0.00    -0.035 C 
ATOM     12  C19 NON d   1      -0.112  -8.401  -0.465  0.00  0.00     0.026 C 
BRANCH  11  13
ATOM     13  C16 NON d   1      -2.235  -9.680  -0.377  0.00  0.00     0.017 C 
ATOM     14  C17 NON d   1      -3.097 -10.692  -0.167  0.00  0.00     0.077 C 
BRANCH  14  15
ATOM     15  C18 NON d   1      -4.560 -10.391  -0.231  0.00  0.00     0.264 C 
ATOM     16  O1  NON d   1      -4.989  -9.237  -0.292  0.00  0.00    -0.266 OA
ATOM     17  N2  NON d   1      -5.432 -11.436  -0.218  0.00  0.00    -0.234 N 
ATOM     18  H14 NON d   1      -6.426 -11.223  -0.191  0.00  0.00     0.197 HD
BRANCH  17  19
ATOM     19  O2  NON d   1      -5.005 -12.757  -0.009  0.00  0.00    -0.287 OA
ATOM     20  H15 NON d   1      -5.814 -13.206   0.302  0.00  0.00     0.244 HD
ENDBRANCH  17  19
ENDBRANCH  14  15
ENDBRANCH  11  13
ENDBRANCH   5   7
BRANCH   6  21
ATOM     21  C20 NON d   1       0.168  -4.802   0.158  0.00  0.00     0.135 C 
BRANCH  21  22
ATOM     22  C21 NON d   1      -1.133  -5.575   0.015  0.00  0.00     0.058 C 
BRANCH  22  23
ATOM     23  C22 NON d   1      -2.491  -4.918   0.162  0.00  0.00    -0.057 A 
ATOM     24  C23 NON d   1      -3.600  -5.783   0.262  0.00  0.00     0.007 A 
ATOM     25  C24 NON d   1      -4.908  -5.303   0.241  0.00  0.00     0.001 A 
ATOM     26  C25 NON d   1      -5.133  -3.938   0.134  0.00  0.00     0.000 A 
ATOM     27  C26 NON d   1      -4.049  -3.062   0.054  0.00  0.00     0.001 A 
ATOM     28  C27 NON d   1      -2.732  -3.547   0.062  0.00  0.00     0.007 A 
ENDBRANCH  22  23
ENDBRANCH  21  22
ENDBRANCH   6  21
BRANCH   3  29
ATOM     29  C4  NON d   1       5.154  -5.202  -0.150  0.00  0.00    -0.005 A 
ATOM     30  C5  NON d   1       5.669  -3.910  -0.342  0.00  0.00     0.014 A 
ATOM     31  C6  NON d   1       7.046  -3.663  -0.298  0.00  0.00     0.001 A 
ATOM     32  C7  NON d   1       7.935  -4.710  -0.088  0.00  0.00     0.000 A 
ATOM     33  C8  NON d   1       7.449  -6.005   0.071  0.00  0.00     0.001 A 
ATOM     34  C9  NON d   1       6.071  -6.247   0.044  0.00  0.00     0.014 A 
ENDBRANCH   3  29
TORSDOF 8
