REMARK  11 active torsions:
REMARK  status: ('A' for Active; 'I' for Inactive)
REMARK    1  A    between atoms: C1_2  and  C2_3 
REMARK       I    between atoms: C1_2  and  N2_24 
REMARK    2  A    between atoms: C2_3  and  C3_4 
REMARK    3  A    between atoms: C3_4  and  C4_5 
REMARK    4  A    between atoms: C4_5  and  C5_6 
REMARK    5  A    between atoms: C5_6  and  C6_7 
REMARK    6  A    between atoms: C6_7  and  C7_8 
REMARK    7  A    between atoms: C7_8  and  C8_9 
REMARK    8  A    between atoms: C8_9  and  C9_12 
REMARK    9  A    between atoms: N1_10  and  O2_11 
REMARK   10  A    between atoms: C12_15  and  C13_16 
REMARK   11  A    between atoms: N2_24  and  O3_25 
ROOT
ATOM      1  C8  NON d   1      -3.850  -7.173  -0.035  0.00  0.00     0.071 C 
ATOM      2  N1  NON d   1      -5.035  -6.621  -0.110  0.00  0.00    -0.140 NA
ENDROOT
BRANCH   1   3
ATOM      3  C7  NON d   1      -2.600  -6.262   0.074  0.00  0.00     0.062 C 
BRANCH   3   4
ATOM      4  C6  NON d   1      -1.177  -6.786   0.014  0.00  0.00     0.006 C 
BRANCH   4   5
ATOM      5  C5  NON d   1      -0.086  -5.707  -0.039  0.00  0.00     0.000 C 
BRANCH   5   6
ATOM      6  C4  NON d   1       0.197  -5.002   1.294  0.00  0.00     0.000 C 
BRANCH   6   7
ATOM      7  C3  NON d   1      -0.579  -3.693   1.463  0.00  0.00     0.009 C 
BRANCH   7   8
ATOM      8  C2  NON d   1      -0.251  -2.979   2.776  0.00  0.00     0.105 C 
BRANCH   8   9
ATOM      9  C1  NON d   1       1.067  -2.223   2.777  0.00  0.00     0.240 C 
ATOM     10  O1  NON d   1       1.843  -2.188   1.829  0.00  0.00    -0.271 OA
ATOM     11  N2  NON d   1       1.250  -1.540   3.968  0.00  0.00    -0.237 N 
ATOM     12  H23 NON d   1       0.791  -1.868   4.812  0.00  0.00     0.197 HD
BRANCH  11  13
ATOM     13  O3  NON d   1       2.533  -0.983   4.165  0.00  0.00    -0.287 OA
ATOM     14  H24 NON d   1       2.441  -0.108   3.742  0.00  0.00     0.244 HD
ENDBRANCH  11  13
ENDBRANCH   8   9
ENDBRANCH   7   8
ENDBRANCH   6   7
ENDBRANCH   5   6
ENDBRANCH   4   5
ENDBRANCH   3   4
ENDBRANCH   1   3
BRANCH   1  15
ATOM     15  C9  NON d   1      -3.825  -8.696  -0.021  0.00  0.00    -0.009 A 
ATOM     16  C10 NON d   1      -2.699  -9.501   0.022  0.00  0.00     0.014 A 
ATOM     17  C11 NON d   1      -2.791 -10.908   0.035  0.00  0.00     0.013 A 
ATOM     18  C12 NON d   1      -4.014 -11.597   0.003  0.00  0.00    -0.026 A 
ATOM     19  C19 NON d   1      -5.151 -10.774  -0.040  0.00  0.00     0.013 A 
ATOM     20  C20 NON d   1      -5.061  -9.367  -0.050  0.00  0.00     0.014 A 
BRANCH  18  21
ATOM     21  C13 NON d   1      -4.087 -13.095   0.014  0.00  0.00    -0.026 A 
ATOM     22  C14 NON d   1      -2.930 -13.904  -0.009  0.00  0.00     0.012 A 
ATOM     23  C15 NON d   1      -2.989 -15.304   0.005  0.00  0.00     0.001 A 
ATOM     24  C16 NON d   1      -4.215 -15.950   0.036  0.00  0.00     0.000 A 
ATOM     25  C17 NON d   1      -5.379 -15.193   0.056  0.00  0.00     0.001 A 
ATOM     26  C18 NON d   1      -5.313 -13.791   0.047  0.00  0.00     0.012 A 
ENDBRANCH  18  21
ENDBRANCH   1  15
BRANCH   2  27
ATOM     27  O2  NON d   1      -4.990  -5.223  -0.081  0.00  0.00    -0.266 OA
ATOM     28  H13 NON d   1      -5.932  -4.982  -0.163  0.00  0.00     0.247 HD
ENDBRANCH   2  27
TORSDOF 11
