REMARK  8 active torsions:
REMARK  status: ('A' for Active; 'I' for Inactive)
REMARK       I    between atoms: N1_2  and  C3_4 
REMARK       I    between atoms: C3_4  and  N2_6 
REMARK    1  A    between atoms: N2_6  and  C4_7 
REMARK    2  A    between atoms: N2_6  and  C18_24 
REMARK    3  A    between atoms: C4_7  and  C5_8 
REMARK    4  A    between atoms: C8_11  and  C9_12 
REMARK       I    between atoms: C9_12  and  N3_14 
REMARK    5  A    between atoms: N3_14  and  C10_15 
REMARK    6  A    between atoms: C15_20  and  N4_21 
REMARK    7  A    between atoms: C18_24  and  C19_25 
REMARK    8  A    between atoms: C22_28  and  C23_29 
ROOT
ATOM      1  C5  NON d   1       5.380  14.025   0.102  0.00  0.00    -0.040 A 
ATOM      2  C6  NON d   1       5.507  15.287  -0.473  0.00  0.00     0.010 A 
ATOM      3  C7  NON d   1       6.773  15.883  -0.612  0.00  0.00     0.017 A 
ATOM      4  C8  NON d   1       7.954  15.222  -0.225  0.00  0.00     0.032 A 
ATOM      5  C16 NON d   1       7.839  13.941   0.313  0.00  0.00     0.017 A 
ATOM      6  C17 NON d   1       6.572  13.358   0.470  0.00  0.00     0.010 A 
ENDROOT
BRANCH   1   7
ATOM      7  C4  NON d   1       4.091  13.235   0.250  0.00  0.00     0.166 C 
BRANCH   7   8
ATOM      8  N2  NON d   1       2.726  13.739   0.110  0.00  0.00    -0.326 N 
ATOM      9  C3  NON d   1       2.420  15.027   0.559  0.00  0.00     0.320 C 
ATOM     10  N1  NON d   1       1.334  15.710   0.000  0.00  0.00    -0.343 N 
ATOM     11  O1  NON d   1       3.184  15.633   1.315  0.00  0.00    -0.247 OA
ATOM     12  C1  NON d   1       0.002  15.186  -0.235  0.00  0.00     0.154 C 
ATOM     13  C2  NON d   1       1.334  17.250   0.000  0.00  0.00     0.154 C 
BRANCH   8  14
ATOM     14  C18 NON d   1       1.709  12.766  -0.329  0.00  0.00     0.166 C 
BRANCH  14  15
ATOM     15  C19 NON d   1       1.747  11.246  -0.110  0.00  0.00    -0.040 A 
ATOM     16  C20 NON d   1       2.857  10.401  -0.044  0.00  0.00     0.010 A 
ATOM     17  C21 NON d   1       2.724   9.000   0.031  0.00  0.00     0.013 A 
ATOM     18  C22 NON d   1       1.476   8.364   0.027  0.00  0.00    -0.019 A 
ATOM     19  C27 NON d   1       0.358   9.201  -0.032  0.00  0.00     0.013 A 
ATOM     20  C28 NON d   1       0.491  10.599  -0.103  0.00  0.00     0.010 A 
BRANCH  18  21
ATOM     21  C23 NON d   1       1.387   6.882   0.058  0.00  0.00     0.015 A 
ATOM     22  C24 NON d   1       2.412   5.943   0.075  0.00  0.00     0.020 A 
ATOM     23  C25 NON d   1       1.951   4.593   0.083  0.00  0.00     0.008 A 
ATOM     24  C26 NON d   1       0.580   4.523   0.073  0.00  0.00     0.050 A 
ATOM     25  S1  NON d   1      -0.136   6.071   0.060  0.00  0.00    -0.101 SA
ENDBRANCH  18  21
ENDBRANCH  14  15
ENDBRANCH   8  14
ENDBRANCH   7   8
ENDBRANCH   1   7
BRANCH   4  26
ATOM     26  C9  NON d   1       9.261  15.948  -0.405  0.00  0.00     0.256 C 
ATOM     27  O2  NON d   1       9.212  17.109  -0.810  0.00  0.00    -0.267 OA
ATOM     28  N3  NON d   1      10.433  15.256  -0.136  0.00  0.00    -0.321 N 
ATOM     29  H11 NON d   1      10.395  14.278   0.108  0.00  0.00     0.169 HD
BRANCH  28  30
ATOM     30  C10 NON d   1      11.751  15.786  -0.114  0.00  0.00     0.056 A 
ATOM     31  C11 NON d   1      12.023  17.158  -0.152  0.00  0.00     0.031 A 
ATOM     32  C12 NON d   1      13.332  17.633  -0.025  0.00  0.00     0.002 A 
ATOM     33  C13 NON d   1      14.382  16.742   0.165  0.00  0.00     0.002 A 
ATOM     34  C14 NON d   1      14.130  15.372   0.202  0.00  0.00     0.025 A 
ATOM     35  C15 NON d   1      12.831  14.880   0.009  0.00  0.00     0.033 A 
BRANCH  35  36
ATOM     36  N4  NON d   1      12.612  13.480   0.062  0.00  0.00    -0.301 NA
ATOM     37  H16 NON d   1      11.971  13.195  -0.675  0.00  0.00     0.124 HD
ATOM     38  H17 NON d   1      13.483  12.958  -0.014  0.00  0.00     0.124 HD
ENDBRANCH  35  36
ENDBRANCH  28  30
ENDBRANCH   4  26
TORSDOF 8
