@<TRIPOS>MOLECULE
*****
 51 53 0 0 0
SMALL
USER_CHARGES

@<TRIPOS>ATOM
      1 C1          1.3338   -6.9300    0.0183 C.3     1  NONAME1    -0.0575
      2 C2          2.6674   -7.7000    0.0000 C.3     1  NONAME1    -0.0022
      3 C3          3.9622   -7.2863   -0.8232 C.3     1  NONAME1    -0.0575
      4 C4          2.6674   -9.2400    0.0000 C.3     1  NONAME1    -0.0042
      5 C5          4.0522   -9.9579   -0.2757 C.3     1  NONAME1     0.0568
      6 N1          4.0392  -11.3803    0.0906 N.pl3   1  NONAME1    -0.3048
      7 C6          5.2712  -12.0771    0.0151 C.ar    1  NONAME1     0.1216
      8 C7          6.5230  -11.4589    0.1550 C.ar    1  NONAME1    -0.0210
      9 C8          7.7293  -12.1950    0.0912 C.ar    1  NONAME1    -0.0449
     10 C9          7.6882  -13.5743   -0.0933 C.ar    1  NONAME1     0.0552
     11 C10         8.8688  -14.4982   -0.2050 C.2     1  NONAME1     0.2498
     12 O1          8.6329  -15.6423   -0.5597 O.2     1  NONAME1    -0.2698
     13 N2         10.1342  -13.9865    0.0567 N.am    1  NONAME1    -0.2799
     14 C11        11.3979  -14.6674    0.0281 C.ar    1  NONAME1     0.0545
     15 C12        12.5269  -13.8231   -0.0151 C.ar    1  NONAME1    -0.0387
     16 C13        13.8314  -14.3323   -0.0577 C.ar    1  NONAME1    -0.0599
     17 C14        14.0386  -15.7014   -0.0285 C.ar    1  NONAME1    -0.0599
     18 C15        12.9354  -16.5534    0.0437 C.ar    1  NONAME1    -0.0392
     19 C16        11.6162  -16.0673    0.0388 C.ar    1  NONAME1     0.0461
     20 N3         10.6099  -17.0101    0.3240 N.pl3   1  NONAME1    -0.3565
     21 C17         6.4138  -14.1170   -0.2044 C.ar    1  NONAME1     0.0418
     22 N4          5.2368  -13.4116   -0.1606 N.ar    1  NONAME1    -0.2396
     23 C18         2.8958  -12.1534   -0.4522 C.3     1  NONAME1     0.0537
     24 C19         1.5389  -11.4260   -0.2568 C.3     1  NONAME1    -0.0172
     25 N5          1.5781   -9.9652   -0.7154 N.4     1  NONAME1     0.2316
     26 H1          0.9638   -7.3959    0.9541 H       1  NONAME1     0.0234
     27 H2          0.0003   -6.1600    0.0366 H       1  NONAME1     0.0234
     28 H3          0.9099   -7.4213   -0.8787 H       1  NONAME1     0.0234
     29 H4          2.6674   -6.1600    0.0000 H       1  NONAME1     0.0351
     30 H5          4.1877   -7.9291   -1.6718 H       1  NONAME1     0.0234
     31 H6          4.8107   -7.2501   -0.1241 H       1  NONAME1     0.0234
     32 H7          3.9131   -6.2881   -1.2811 H       1  NONAME1     0.0234
     33 H8          2.4602   -9.4623    1.0581 H       1  NONAME1     0.0869
     34 H9          4.8036   -9.4360    0.3215 H       1  NONAME1     0.0520
     35 H10         4.3072   -9.8947   -1.3403 H       1  NONAME1     0.0520
     36 H11         6.6189  -10.3907    0.3202 H       1  NONAME1     0.0652
     37 H12         8.6645  -11.6529    0.1845 H       1  NONAME1     0.0627
     38 H13        10.2152  -12.9955    0.2053 H       1  NONAME1     0.1552
     39 H14        12.4106  -12.7416   -0.0321 H       1  NONAME1     0.0637
     40 H15        14.6825  -13.6567   -0.1000 H       1  NONAME1     0.0618
     41 H16        15.0453  -16.1094   -0.0372 H       1  NONAME1     0.0618
     42 H17        13.1178  -17.6238    0.1224 H       1  NONAME1     0.0636
     43 H18         9.6947  -16.6798   -0.0044 H       1  NONAME1     0.1424
     44 H19        10.7979  -17.9254   -0.0582 H       1  NONAME1     0.1424
     45 H20         6.2768  -15.1876   -0.3361 H       1  NONAME1     0.0838
     46 H21         3.0469  -12.3330   -1.5243 H       1  NONAME1     0.0517
     47 H22         2.8111  -13.1244    0.0520 H       1  NONAME1     0.0517
     48 H23         1.2596  -11.4074    0.8036 H       1  NONAME1     0.0829
     49 H24         0.7416  -11.9132   -0.8248 H       1  NONAME1     0.0829
     50 H25         0.6629   -9.5452   -0.5070 H       1  NONAME1     0.2017
     51 H26         1.7121   -9.9251   -1.7331 H       1  NONAME1     0.2017
@<TRIPOS>BOND
     1     1     2    1
     2     2     3    1
     3     4     2    1
     4     4     5    1
     5     5     6    1
     6     6     7    1
     7     7     8   ar
     8     8     9   ar
     9     9    10   ar
    10    10    11    1
    11    11    12    2
    12    11    13   am
    13    13    14    1
    14    14    15   ar
    15    15    16   ar
    16    16    17   ar
    17    17    18   ar
    18    18    19   ar
    19    14    19   ar
    20    19    20    1
    21    10    21   ar
    22    21    22   ar
    23     7    22   ar
    24     6    23    1
    25    23    24    1
    26    24    25    1
    27     4    25    1
    28     1    26    1
    29     1    27    1
    30     1    28    1
    31     2    29    1
    32     3    30    1
    33     3    31    1
    34     3    32    1
    35     4    33    1
    36     5    34    1
    37     5    35    1
    38     8    36    1
    39     9    37    1
    40    13    38    1
    41    15    39    1
    42    16    40    1
    43    17    41    1
    44    18    42    1
    45    20    43    1
    46    20    44    1
    47    21    45    1
    48    23    46    1
    49    23    47    1
    50    24    48    1
    51    24    49    1
    52    25    50    1
    53    25    51    1
