REMARK  4 active torsions:
REMARK  status: ('A' for Active; 'I' for Inactive)
REMARK    1  A    between atoms: O1_1  and  C1_2 
REMARK    2  A    between atoms: N1_6  and  C5_7 
REMARK    3  A    between atoms: C5_7  and  C6_8 
REMARK    4  A    between atoms: N2_10  and  C8_11 
ROOT
ATOM      1  C6  NON d   1       1.342  -2.485  -0.017  0.00  0.00     0.087 A 
ATOM      2  C7  NON d   1       2.518  -3.198   0.098  0.00  0.00     0.144 A 
ATOM      3  N2  NON d   1       2.216  -4.474  -0.314  0.00  0.00    -0.247 N 
ATOM      4  N3  NON d   1       0.941  -4.500  -0.768  0.00  0.00     0.009 NA
ATOM      5  N4  NON d   1       0.413  -3.287  -0.618  0.00  0.00    -0.161 NA
ENDROOT
BRANCH   1   6
ATOM      6  C5  NON d   1       1.102  -1.115   0.537  0.00  0.00     0.191 C 
BRANCH   6   7
ATOM      7  N1  NON d   1      -0.132  -0.394   0.142  0.00  0.00    -0.340 N 
ATOM      8  C4  NON d   1       0.071   0.868  -0.423  0.00  0.00     0.092 C 
ATOM      9  C3  NON d   1      -0.922   1.740  -0.617  0.00  0.00     0.020 C 
ATOM     10  C2  NON d   1      -2.274   1.366  -0.330  0.00  0.00     0.041 C 
ATOM     11  C1  NON d   1      -2.559   0.181   0.226  0.00  0.00     0.103 C 
ATOM     12  C14 NON d   1      -1.419  -0.760   0.629  0.00  0.00     0.136 C 
ATOM     13  S1  NON d   1      -1.717  -2.080   1.652  0.00  0.00    -0.057 SA
BRANCH  11  14
ATOM     14  O1  NON d   1      -3.868  -0.194   0.486  0.00  0.00    -0.358 OA
ATOM     15  H1  NON d   1      -4.464   0.495   0.154  0.00  0.00     0.217 HD
ENDBRANCH  11  14
ENDBRANCH   6   7
ENDBRANCH   1   6
BRANCH   3  16
ATOM     16  C8  NON d   1       3.040  -5.626  -0.238  0.00  0.00     0.054 A 
ATOM     17  C9  NON d   1       4.422  -5.497  -0.007  0.00  0.00     0.031 A 
ATOM     18  C10 NON d   1       5.224  -6.637   0.099  0.00  0.00     0.002 A 
ATOM     19  C11 NON d   1       4.658  -7.905  -0.006  0.00  0.00     0.000 A 
ATOM     20  C12 NON d   1       3.289  -8.040  -0.235  0.00  0.00     0.002 A 
ATOM     21  C13 NON d   1       2.480  -6.905  -0.367  0.00  0.00     0.031 A 
ENDBRANCH   3  16
TORSDOF 4
