REMARK  9 active torsions:
REMARK  status: ('A' for Active; 'I' for Inactive)
REMARK    1  A    between atoms: C5_5  and  C6_6 
REMARK       I    between atoms: C6_6  and  N1_8 
REMARK    2  A    between atoms: N1_8  and  O2_9 
REMARK    3  A    between atoms: O2_9  and  C7_10 
REMARK    4  A    between atoms: C7_10  and  C8_11 
REMARK    5  A    between atoms: C8_11  and  C9_12 
REMARK    6  A    between atoms: C9_12  and  C10_13 
REMARK    7  A    between atoms: C10_13  and  C11_14 
REMARK    8  A    between atoms: C11_14  and  C12_15 
REMARK       I    between atoms: C12_15  and  N2_17 
REMARK    9  A    between atoms: N2_17  and  O4_18 
ROOT
ATOM      1  C6  NON d   1       1.281   5.129  -0.283  0.00  0.00     0.275 C 
ATOM      2  O1  NON d   1       1.239   6.332  -0.530  0.00  0.00    -0.265 OA
ATOM      3  N1  NON d   1       2.448   4.407  -0.160  0.00  0.00    -0.231 N 
ATOM      4  H6  NON d   1       2.518   3.434   0.096  0.00  0.00     0.197 HD
ENDROOT
BRANCH   3   5
ATOM      5  O2  NON d   1       3.633   5.101  -0.501  0.00  0.00    -0.277 OA
BRANCH   5   6
ATOM      6  C7  NON d   1       4.798   4.415  -0.036  0.00  0.00     0.201 C 
BRANCH   6   7
ATOM      7  C8  NON d   1       5.475   3.652  -1.178  0.00  0.00     0.029 C 
BRANCH   7   8
ATOM      8  C9  NON d   1       4.746   2.352  -1.527  0.00  0.00     0.003 C 
BRANCH   8   9
ATOM      9  C10 NON d   1       5.306   1.632  -2.759  0.00  0.00     0.009 C 
BRANCH   9  10
ATOM     10  C11 NON d   1       6.522   0.743  -2.492  0.00  0.00     0.105 C 
BRANCH  10  11
ATOM     11  C12 NON d   1       7.874   1.428  -2.588  0.00  0.00     0.240 C 
ATOM     12  O3  NON d   1       8.038   2.584  -2.957  0.00  0.00    -0.271 OA
ATOM     13  N2  NON d   1       8.906   0.565  -2.275  0.00  0.00    -0.237 N 
ATOM     14  H17 NON d   1       8.761  -0.292  -1.753  0.00  0.00     0.197 HD
BRANCH  13  15
ATOM     15  O4  NON d   1      10.193   1.133  -2.179  0.00  0.00    -0.287 OA
ATOM     16  H18 NON d   1      10.355   1.436  -3.094  0.00  0.00     0.244 HD
ENDBRANCH  13  15
ENDBRANCH  10  11
ENDBRANCH   9  10
ENDBRANCH   8   9
ENDBRANCH   7   8
ENDBRANCH   6   7
ENDBRANCH   5   6
ENDBRANCH   3   5
BRANCH   1  17
ATOM     17  C5  NON d   1      -0.008   4.377  -0.125  0.00  0.00     0.034 A 
ATOM     18  C4  NON d   1      -1.197   5.112  -0.079  0.00  0.00     0.017 A 
ATOM     19  C3  NON d   1      -2.436   4.465  -0.032  0.00  0.00     0.008 A 
ATOM     20  C2  NON d   1      -2.521   3.065  -0.023  0.00  0.00    -0.056 A 
ATOM     21  C1  NON d   1      -3.878   2.416  -0.038  0.00  0.00     0.049 C 
ATOM     22  C14 NON d   1      -1.334   2.310   0.000  0.00  0.00    -0.055 A 
ATOM     23  C13 NON d   1      -0.088   2.979  -0.089  0.00  0.00     0.024 A 
ATOM     24  C15 NON d   1      -1.334   0.770   0.000  0.00  0.00     0.049 C 
ENDBRANCH   1  17
TORSDOF 9
