@<TRIPOS>MOLECULE
*****
 63 67 0 0 0
SMALL
USER_CHARGES

@<TRIPOS>ATOM
      1 N1         12.4946  -12.2721    0.0470 N.pl3   1  NONAME1    -0.3565
      2 C1         12.5917  -13.6866    0.1596 C.ar    1  NONAME1     0.0461
      3 C2         13.8498  -14.3022    0.1591 C.ar    1  NONAME1    -0.0392
      4 C3         13.9553  -15.6918    0.1031 C.ar    1  NONAME1    -0.0599
      5 C4         12.8060  -16.4718    0.0065 C.ar    1  NONAME1    -0.0599
      6 C5         11.5463  -15.8654   -0.0379 C.ar    1  NONAME1    -0.0387
      7 C6         11.4270  -14.4762    0.0257 C.ar    1  NONAME1     0.0545
      8 N2         10.1963  -13.7752   -0.0029 N.am    1  NONAME1    -0.2800
      9 C7          8.9352  -14.3083   -0.1774 C.2     1  NONAME1     0.2483
     10 O1          8.6973  -15.4946   -0.3930 O.2     1  NONAME1    -0.2699
     11 C8          7.7686  -13.3676   -0.0857 C.ar    1  NONAME1     0.0370
     12 C9          6.5030  -13.9487    0.0564 C.ar    1  NONAME1    -0.0493
     13 C10         5.3566  -13.1573    0.1325 C.ar    1  NONAME1    -0.0564
     14 C11         5.4290  -11.7550    0.0579 C.ar    1  NONAME1    -0.0303
     15 C12         4.1146  -11.0029    0.1675 C.3     1  NONAME1     0.0370
     16 N3          4.1485   -9.6045   -0.2279 N.pl3   1  NONAME1    -0.3093
     17 C13         2.8706   -9.0294   -0.2026 C.ar    1  NONAME1     0.2159
     18 N4          1.7969   -9.8227   -0.3192 N.ar    1  NONAME1    -0.2229
     19 C14         0.5906   -9.2495   -0.2764 C.ar    1  NONAME1     0.0332
     20 C15         0.4118   -7.9012   -0.1326 C.ar    1  NONAME1    -0.0174
     21 C16         1.5531   -7.1257   -0.0235 C.ar    1  NONAME1     0.0775
     22 C17         1.4903   -5.6472    0.0927 C.ar    1  NONAME1     0.0187
     23 C18         0.2934   -4.9383    0.2472 C.ar    1  NONAME1    -0.0479
     24 C19         0.2740   -3.5390    0.3196 C.ar    1  NONAME1    -0.0211
     25 C20         1.4508   -2.8051    0.2175 C.ar    1  NONAME1     0.1214
     26 N5          1.4548   -1.4012    0.2935 N.pl3   1  NONAME1    -0.3108
     27 C21         0.2764   -0.6920   -0.2456 C.3     1  NONAME1     0.0370
     28 C22         0.3993    0.8239   -0.0244 C.3     1  NONAME1     0.0634
     29 O2          1.6122    1.3443   -0.5807 O.3     1  NONAME1    -0.3767
     30 C23         2.7371    0.7187    0.0561 C.3     1  NONAME1     0.0634
     31 C24         2.7375   -0.8066   -0.1512 C.3     1  NONAME1     0.0370
     32 N6          2.6212   -3.4700    0.0980 N.ar    1  NONAME1    -0.2397
     33 C25         2.6190   -4.8371    0.0404 C.ar    1  NONAME1     0.0389
     34 N7          2.7889   -7.6964   -0.0409 N.ar    1  NONAME1    -0.2145
     35 C26         6.6937  -11.1709   -0.0799 C.ar    1  NONAME1    -0.0564
     36 C27         7.8548  -11.9694   -0.1544 C.ar    1  NONAME1    -0.0493
     37 H1         13.3403  -11.8243    0.3965 H       1  NONAME1     0.1424
     38 H2         12.3882  -12.0365   -0.9411 H       1  NONAME1     0.1424
     39 H3         14.7579  -13.7072    0.2044 H       1  NONAME1     0.0636
     40 H4         14.9329  -16.1675    0.1215 H       1  NONAME1     0.0618
     41 H5         12.8818  -17.5545   -0.0419 H       1  NONAME1     0.0618
     42 H6         10.6768  -16.5101   -0.1180 H       1  NONAME1     0.0637
     43 H7         10.3123  -12.7846    0.1741 H       1  NONAME1     0.1552
     44 H8          6.3974  -15.0315    0.1057 H       1  NONAME1     0.0625
     45 H9          4.3926  -13.6530    0.2402 H       1  NONAME1     0.0621
     46 H10         3.4169  -11.5498   -0.4822 H       1  NONAME1     0.0512
     47 H11         3.7683  -11.0909    1.2061 H       1  NONAME1     0.0512
     48 H12         4.7425   -9.0021    0.3266 H       1  NONAME1     0.1492
     49 H13        -0.2530   -9.9261   -0.3690 H       1  NONAME1     0.0831
     50 H14        -0.5918   -7.5024   -0.1253 H       1  NONAME1     0.0654
     51 H15        -0.6655   -5.4408    0.3229 H       1  NONAME1     0.0626
     52 H16        -0.6857   -3.0584    0.4615 H       1  NONAME1     0.0652
     53 H17        -0.6468   -1.0058    0.2516 H       1  NONAME1     0.0487
     54 H18         0.1883   -0.8965   -1.3199 H       1  NONAME1     0.0487
     55 H19        -0.4373    1.3366   -0.5107 H       1  NONAME1     0.0575
     56 H20         0.3601    1.0701    1.0440 H       1  NONAME1     0.0575
     57 H21         2.7267    0.9705    1.1232 H       1  NONAME1     0.0575
     58 H22         3.6436    1.1512   -0.3788 H       1  NONAME1     0.0575
     59 H23         2.8818   -1.0168   -1.2190 H       1  NONAME1     0.0487
     60 H24         3.5847   -1.2168    0.4106 H       1  NONAME1     0.0487
     61 H25         3.6125   -5.2700   -0.0616 H       1  NONAME1     0.0837
     62 H26         6.7960  -10.0905   -0.1501 H       1  NONAME1     0.0621
     63 H27         8.8071  -11.4667   -0.2897 H       1  NONAME1     0.0625
@<TRIPOS>BOND
     1     1     2    1
     2     2     3   ar
     3     3     4   ar
     4     4     5   ar
     5     5     6   ar
     6     6     7   ar
     7     2     7   ar
     8     7     8    1
     9     8     9   am
    10     9    10    2
    11     9    11    1
    12    11    12   ar
    13    12    13   ar
    14    13    14   ar
    15    14    15    1
    16    15    16    1
    17    16    17    1
    18    17    18   ar
    19    18    19   ar
    20    19    20   ar
    21    20    21   ar
    22    21    22    1
    23    22    23   ar
    24    23    24   ar
    25    24    25   ar
    26    25    26    1
    27    26    27    1
    28    27    28    1
    29    28    29    1
    30    29    30    1
    31    30    31    1
    32    26    31    1
    33    25    32   ar
    34    32    33   ar
    35    22    33   ar
    36    21    34   ar
    37    17    34   ar
    38    14    35   ar
    39    35    36   ar
    40    11    36   ar
    41     1    37    1
    42     1    38    1
    43     3    39    1
    44     4    40    1
    45     5    41    1
    46     6    42    1
    47     8    43    1
    48    12    44    1
    49    13    45    1
    50    15    46    1
    51    15    47    1
    52    16    48    1
    53    19    49    1
    54    20    50    1
    55    23    51    1
    56    24    52    1
    57    27    53    1
    58    27    54    1
    59    28    55    1
    60    28    56    1
    61    30    57    1
    62    30    58    1
    63    31    59    1
    64    31    60    1
    65    33    61    1
    66    35    62    1
    67    36    63    1
