@<TRIPOS>MOLECULE
*****
 57 60 0 0 0
SMALL
USER_CHARGES

@<TRIPOS>ATOM
      1 C1         25.1444   -2.6487   -1.5400 C.3     1  NONAME1     0.0130
      2 P1         25.1407   -2.6550    0.0000 P.3     1  NONAME1     0.2063
      3 O1         25.1370   -2.6613    1.5400 O.2     1  NONAME1    -0.2908
      4 C2         23.8070   -1.8850    0.0000 C.3     1  NONAME1     0.0493
      5 C3         22.4500   -2.6449    0.0255 C.ar    1  NONAME1    -0.0381
      6 C4         22.4087   -4.0420    0.1057 C.ar    1  NONAME1    -0.0574
      7 C5         21.1902   -4.7274    0.0844 C.ar    1  NONAME1    -0.0494
      8 C6         19.9638   -4.0495   -0.0039 C.ar    1  NONAME1     0.0370
      9 C7         18.7282   -4.9066   -0.1092 C.2     1  NONAME1     0.2483
     10 O2         18.9079   -6.0989   -0.3588 O.2     1  NONAME1    -0.2699
     11 N1         17.4902   -4.3176    0.0547 N.am    1  NONAME1    -0.2799
     12 C8         16.2210   -4.9783    0.0240 C.ar    1  NONAME1     0.0551
     13 C9         16.0720   -6.3761   -0.0244 C.ar    1  NONAME1    -0.0305
     14 C10        14.8120   -7.0118    0.0243 C.ar    1  NONAME1    -0.0094
     15 C11        14.7209   -8.4972   -0.0142 C.ar    1  NONAME1     0.0194
     16 C12        15.7445   -9.4361   -0.0259 C.ar    1  NONAME1    -0.0469
     17 C13        15.2854  -10.7862   -0.0579 C.ar    1  NONAME1    -0.0541
     18 C14        13.9141  -10.8576   -0.0737 C.ar    1  NONAME1    -0.0237
     19 S1         13.1974   -9.3102   -0.0571 S.2     1  NONAME1    -0.0967
     20 C15        13.6844   -6.1874    0.1349 C.ar    1  NONAME1    -0.0517
     21 C16        13.8072   -4.7934    0.1757 C.ar    1  NONAME1    -0.0386
     22 C17        15.0607   -4.1785    0.0752 C.ar    1  NONAME1     0.0461
     23 N2         15.1450   -2.7670    0.1273 N.pl3   1  NONAME1    -0.3565
     24 C18        19.9892   -2.6507   -0.0433 C.ar    1  NONAME1    -0.0494
     25 C19        21.2218   -1.9588   -0.0296 C.ar    1  NONAME1    -0.0574
     26 O3         26.4744   -3.4250   -0.0000 O.3     1  NONAME1    -0.3226
     27 C20        26.6171   -4.7786    0.4416 C.3     1  NONAME1     0.0813
     28 C21        26.5812   -5.0619    1.9296 C.ar    1  NONAME1    -0.0034
     29 C22        26.1208   -6.2981    2.4014 C.ar    1  NONAME1    -0.0535
     30 C23        26.0406   -6.5425    3.7719 C.ar    1  NONAME1    -0.0433
     31 C24        26.4518   -5.5487    4.6423 C.ar    1  NONAME1     0.0276
     32 N3         26.9636   -4.3709    4.2361 N.ar    1  NONAME1    -0.2629
     33 C25        27.0148   -4.1560    2.8953 C.ar    1  NONAME1     0.0329
     34 H1         26.0500   -2.0260   -1.6966 H       1  NONAME1     0.0328
     35 H2         25.1480   -2.6423   -3.0800 H       1  NONAME1     0.0328
     36 H3         25.2999   -3.7279   -1.7428 H       1  NONAME1     0.0328
     37 H4         23.6915   -1.1689    0.8336 H       1  NONAME1     0.0413
     38 H5         23.6566   -1.1752   -0.8345 H       1  NONAME1     0.0413
     39 H6         23.3133   -4.6373    0.1944 H       1  NONAME1     0.0621
     40 H7         21.2071   -5.8157    0.1301 H       1  NONAME1     0.0625
     41 H8         17.4237   -3.3361    0.2875 H       1  NONAME1     0.1552
     42 H9         16.9532   -7.0005   -0.0705 H       1  NONAME1     0.0643
     43 H10        16.7971   -9.1792   -0.0084 H       1  NONAME1     0.0629
     44 H11        15.9327  -11.6549   -0.0675 H       1  NONAME1     0.0623
     45 H12        13.2976  -11.7457   -0.0956 H       1  NONAME1     0.0693
     46 H13        12.6829   -6.6054    0.1953 H       1  NONAME1     0.0624
     47 H14        12.9027   -4.1971    0.2651 H       1  NONAME1     0.0637
     48 H15        15.7655   -2.4196   -0.5991 H       1  NONAME1     0.1424
     49 H16        14.2310   -2.3278    0.0389 H       1  NONAME1     0.1424
     50 H17        19.0755   -2.0690   -0.1087 H       1  NONAME1     0.0625
     51 H18        21.2114   -0.8703   -0.0653 H       1  NONAME1     0.0621
     52 H19        27.5884   -5.1247    0.0708 H       1  NONAME1     0.0615
     53 H20        25.8482   -5.3746   -0.0622 H       1  NONAME1     0.0615
     54 H21        25.8040   -7.0721    1.7080 H       1  NONAME1     0.0622
     55 H22        25.6576   -7.4823    4.1528 H       1  NONAME1     0.0633
     56 H23        26.3783   -5.6774    5.7183 H       1  NONAME1     0.0829
     57 H24        27.3884   -3.1736    2.6170 H       1  NONAME1     0.0833
@<TRIPOS>BOND
     1     1     2    1
     2     2     3    2
     3     2     4    1
     4     4     5    1
     5     5     6   ar
     6     6     7   ar
     7     7     8   ar
     8     8     9    1
     9     9    10    2
    10     9    11   am
    11    11    12    1
    12    12    13   ar
    13    13    14   ar
    14    14    15    1
    15    15    16   ar
    16    16    17   ar
    17    17    18   ar
    18    18    19   ar
    19    15    19   ar
    20    14    20   ar
    21    20    21   ar
    22    21    22   ar
    23    12    22   ar
    24    22    23    1
    25     8    24   ar
    26    24    25   ar
    27     5    25   ar
    28     2    26    1
    29    26    27    1
    30    27    28    1
    31    28    29   ar
    32    29    30   ar
    33    30    31   ar
    34    31    32   ar
    35    32    33   ar
    36    28    33   ar
    37     1    34    1
    38     1    35    1
    39     1    36    1
    40     4    37    1
    41     4    38    1
    42     6    39    1
    43     7    40    1
    44    11    41    1
    45    13    42    1
    46    16    43    1
    47    17    44    1
    48    18    45    1
    49    20    46    1
    50    21    47    1
    51    23    48    1
    52    23    49    1
    53    24    50    1
    54    25    51    1
    55    27    52    1
    56    27    53    1
    57    29    54    1
    58    30    55    1
    59    31    56    1
    60    33    57    1
