REMARK  5 active torsions:
REMARK  status: ('A' for Active; 'I' for Inactive)
REMARK       I    between atoms: C2_2  and  N1_4 
REMARK    1  A    between atoms: N2_11  and  C9_12 
REMARK    2  A    between atoms: C12_15  and  C13_16 
REMARK       I    between atoms: C13_16  and  N3_18 
REMARK    3  A    between atoms: N3_18  and  C14_19 
REMARK    4  A    between atoms: C16_21  and  C17_22 
REMARK    5  A    between atoms: C23_29  and  N4_30 
ROOT
ATOM      1  C9  NON d   1       5.675  -1.810  -0.575  0.00  0.00     0.105 A 
ATOM      2  C10 NON d   1       7.076  -1.883  -0.560  0.00  0.00     0.045 A 
ATOM      3  C11 NON d   1       7.746  -3.124  -0.550  0.00  0.00     0.022 A 
ATOM      4  C12 NON d   1       7.006  -4.298  -0.589  0.00  0.00     0.050 A 
ATOM      5  C24 NON d   1       5.628  -4.149  -0.659  0.00  0.00     0.135 A 
ATOM      6  N5  NON d   1       4.970  -2.958  -0.658  0.00  0.00    -0.248 NA
ENDROOT
BRANCH   4   7
ATOM      7  C13 NON d   1       7.552  -5.686  -0.593  0.00  0.00     0.257 C 
ATOM      8  O2  NON d   1       6.787  -6.574  -0.966  0.00  0.00    -0.267 OA
ATOM      9  N3  NON d   1       8.867  -5.883  -0.203  0.00  0.00    -0.321 N 
ATOM     10  H16 NON d   1       9.450  -5.066  -0.088  0.00  0.00     0.169 HD
BRANCH   9  11
ATOM     11  C14 NON d   1       9.558  -7.132  -0.064  0.00  0.00     0.057 A 
ATOM     12  C15 NON d   1      10.972  -7.061  -0.095  0.00  0.00     0.044 A 
ATOM     13  C16 NON d   1      11.798  -8.200   0.019  0.00  0.00    -0.017 A 
ATOM     14  C21 NON d   1      11.160  -9.432   0.203  0.00  0.00     0.014 A 
ATOM     15  C22 NON d   1       9.771  -9.520   0.272  0.00  0.00     0.026 A 
ATOM     16  C23 NON d   1       8.950  -8.395   0.108  0.00  0.00     0.033 A 
BRANCH  13  17
ATOM     17  C17 NON d   1      13.279  -8.089  -0.039  0.00  0.00     0.015 A 
ATOM     18  C18 NON d   1      14.080  -6.959   0.033  0.00  0.00     0.020 A 
ATOM     19  C19 NON d   1      15.477  -7.244  -0.050  0.00  0.00     0.008 A 
ATOM     20  C20 NON d   1      15.719  -8.589  -0.184  0.00  0.00     0.050 A 
ATOM     21  S1  NON d   1      14.274  -9.490  -0.233  0.00  0.00    -0.101 SA
ENDBRANCH  13  17
BRANCH  16  22
ATOM     22  N4  NON d   1       7.586  -8.570   0.419  0.00  0.00    -0.301 NA
ATOM     23  H23 NON d   1       7.018  -7.866  -0.060  0.00  0.00     0.124 HD
ATOM     24  H24 NON d   1       7.238  -9.492   0.182  0.00  0.00     0.124 HD
ENDBRANCH  16  22
ENDBRANCH   9  11
ENDBRANCH   4   7
BRANCH   1  25
ATOM     25  N2  NON d   1       4.964  -0.575  -0.485  0.00  0.00    -0.267 NA
ATOM     26  C8  NON d   1       5.690   0.472   0.242  0.00  0.00     0.097 C 
ATOM     27  C7  NON d   1       4.842   1.703   0.504  0.00  0.00     0.016 C 
ATOM     28  C6  NON d   1       3.575   1.301   1.233  0.00  0.00     0.013 C 
ATOM     29  C5  NON d   1       2.715   0.402   0.337  0.00  0.00    -0.010 C 
ATOM     30  C4  NON d   1       2.093   1.219  -0.823  0.00  0.00     0.032 C 
ATOM     31  C25 NON d   1       3.531  -0.825  -0.146  0.00  0.00     0.108 C 
ATOM     32  C26 NON d   1       1.483  -0.082   1.129  0.00  0.00     0.136 C 
ATOM     33  C3  NON d   1       0.627   0.811  -0.924  0.00  0.00     0.126 C 
ATOM     34  N1  NON d   1       0.350  -0.005   0.236  0.00  0.00    -0.352 N 
ATOM     35  C2  NON d   1      -0.860  -0.549   0.608  0.00  0.00     0.215 C 
ATOM     36  C1  NON d   1      -2.058  -0.301  -0.274  0.00  0.00     0.117 C 
ATOM     37  O1  NON d   1      -0.985  -1.222   1.633  0.00  0.00    -0.274 OA
ENDBRANCH   1  25
TORSDOF 5
