REMARK  7 active torsions:
REMARK  status: ('A' for Active; 'I' for Inactive)
REMARK    1  A    between atoms: C2_2  and  N1_3 
REMARK    2  A    between atoms: N1_3  and  C3_4 
REMARK    3  A    between atoms: C3_4  and  S2_6 
REMARK    4  A    between atoms: S2_6  and  C4_7 
REMARK    5  A    between atoms: C4_7  and  C5_8 
REMARK    6  A    between atoms: C5_8  and  C6_10 
REMARK    7  A    between atoms: C9_13  and  O2_14 
ROOT
ATOM      1  C5  NON d   1       9.274  -6.910  -0.047  0.00  0.00     0.169 C 
ATOM      2  O1  NON d   1       9.336  -5.683  -0.100  0.00  0.00    -0.291 OA
ENDROOT
BRANCH   1   3
ATOM      3  C4  NON d   1       7.963  -7.683   0.039  0.00  0.00     0.165 C 
BRANCH   3   4
ATOM      4  S2  NON d   1       6.496  -6.590   0.191  0.00  0.00    -0.093 SA
BRANCH   4   5
ATOM      5  C3  NON d   1       5.147  -7.718   0.251  0.00  0.00     0.134 C 
ATOM      6  S1  NON d   1       5.285  -9.388   0.356  0.00  0.00    -0.053 SA
BRANCH   5   7
ATOM      7  N1  NON d   1       3.940  -7.022   0.197  0.00  0.00    -0.376 N 
ATOM      8  H6  NON d   1       4.004  -6.021   0.049  0.00  0.00     0.160 HD
BRANCH   7   9
ATOM      9  C2  NON d   1       2.667  -7.700   0.037  0.00  0.00     0.116 C 
ATOM     10  C1  NON d   1       1.334  -6.930   0.037  0.00  0.00     0.026 C 
ENDBRANCH   7   9
ENDBRANCH   5   7
ENDBRANCH   4   5
ENDBRANCH   3   4
ENDBRANCH   1   3
BRANCH   1  11
ATOM     11  C6  NON d   1      10.564  -7.686  -0.075  0.00  0.00     0.011 A 
ATOM     12  C7  NON d   1      11.769  -6.970  -0.104  0.00  0.00     0.018 A 
ATOM     13  C8  NON d   1      13.007  -7.630  -0.112  0.00  0.00     0.037 A 
ATOM     14  C9  NON d   1      13.055  -9.021  -0.078  0.00  0.00     0.068 A 
ATOM     15  C11 NON d   1      11.854  -9.738  -0.075  0.00  0.00     0.037 A 
ATOM     16  C12 NON d   1      10.614  -9.082  -0.071  0.00  0.00     0.018 A 
BRANCH  14  17
ATOM     17  O2  NON d   1      14.182  -9.792  -0.043  0.00  0.00    -0.356 OA
ATOM     18  C10 NON d   1      15.432  -9.126   0.097  0.00  0.00     0.210 C 
ENDBRANCH  14  17
ENDBRANCH   1  11
TORSDOF 7
