REMARK  8 active torsions:
REMARK  status: ('A' for Active; 'I' for Inactive)
REMARK    1  A    between atoms: C14_18  and  C15_19 
REMARK    2  A    between atoms: C15_19  and  C16_20 
REMARK    3  A    between atoms: C16_20  and  C17_21 
REMARK    4  A    between atoms: C17_21  and  C18_22 
REMARK    5  A    between atoms: C18_22  and  C19_23 
REMARK    6  A    between atoms: C19_23  and  S1_24 
REMARK    7  A    between atoms: S1_24  and  S2_25 
REMARK    8  A    between atoms: S2_25  and  C20_26 
ROOT
ATOM      1  C1  NON d   1      -6.540 -10.143  -0.949  0.00  0.00     0.042 C 
ATOM      2  C2  NON d   1      -5.640 -10.054   0.257  0.00  0.00     0.167 C 
ATOM      3  N1  NON d   1      -4.297 -10.621   0.137  0.00  0.00    -0.346 N 
ATOM      4  C3  NON d   1      -3.701 -11.510  -0.758  0.00  0.00     0.247 C 
ATOM      5  O1  NON d   1      -4.243 -11.983  -1.744  0.00  0.00    -0.271 OA
ATOM      6  C4  NON d   1      -2.263 -11.871  -0.228  0.00  0.00     0.121 C 
ATOM      7  C5  NON d   1      -1.262 -12.597  -1.148  0.00  0.00     0.080 C 
ATOM      8  C6  NON d   1      -1.223 -13.993  -0.606  0.00  0.00    -0.049 C 
ATOM      9  C7  NON d   1      -0.463 -15.061  -1.060  0.00  0.00     0.007 C 
ATOM     10  C8  NON d   1      -0.654 -16.314  -0.472  0.00  0.00     0.001 C 
ATOM     11  C9  NON d   1      -1.615 -16.488   0.534  0.00  0.00     0.001 C 
ATOM     12  C10 NON d   1      -2.319 -15.391   1.034  0.00  0.00     0.007 C 
ATOM     13  C11 NON d   1      -2.068 -14.140   0.489  0.00  0.00    -0.049 C 
ATOM     14  C12 NON d   1      -2.550 -12.811   0.984  0.00  0.00     0.080 C 
ATOM     15  N2  NON d   1      -1.792 -10.487   0.045  0.00  0.00    -0.341 N 
ATOM     16  C13 NON d   1      -0.918  -9.996   0.982  0.00  0.00     0.241 C 
ATOM     17  O2  NON d   1      -0.222 -10.701   1.700  0.00  0.00    -0.271 OA
ATOM     18  C14 NON d   1      -0.900  -8.429   0.994  0.00  0.00     0.176 C 
ATOM     19  N4  NON d   1      -2.182  -7.970   0.392  0.00  0.00    -0.346 N 
ATOM     20  C25 NON d   1      -2.628  -6.670   0.496  0.00  0.00     0.236 C 
ATOM     21  O3  NON d   1      -1.870  -5.723   0.686  0.00  0.00    -0.272 OA
ATOM     22  C26 NON d   1      -4.176  -6.496   0.546  0.00  0.00     0.158 C 
ATOM     23  C27 NON d   1      -4.609  -5.265  -0.249  0.00  0.00     0.031 C 
ATOM     24  C28 NON d   1      -6.105  -5.494  -0.367  0.00  0.00     0.017 C 
ATOM     25  C29 NON d   1      -6.184  -6.989  -0.670  0.00  0.00     0.099 C 
ATOM     26  N5  NON d   1      -5.053  -7.587   0.041  0.00  0.00    -0.238 NA
ATOM     27  C30 NON d   1      -5.326  -8.662   0.888  0.00  0.00     0.223 C 
ATOM     28  O4  NON d   1      -4.967  -8.620   2.072  0.00  0.00    -0.277 OA
ATOM     29  H5  NON d   1      -3.749 -10.483   0.982  0.00  0.00     0.163 HD
ATOM     30  H14 NON d   1      -1.981  -9.831  -0.711  0.00  0.00     0.163 HD
ATOM     31  H30 NON d   1      -2.943  -8.631   0.475  0.00  0.00     0.163 HD
ENDROOT
BRANCH  18  32
ATOM     32  C15 NON d   1       0.362  -7.863   0.315  0.00  0.00     0.035 C 
BRANCH  32  33
ATOM     33  C16 NON d   1       1.583  -8.000   1.241  0.00  0.00     0.002 C 
BRANCH  33  34
ATOM     34  C17 NON d   1       2.831  -7.222   0.799  0.00  0.00     0.001 C 
BRANCH  34  35
ATOM     35  C18 NON d   1       2.710  -5.707   1.012  0.00  0.00     0.011 C 
BRANCH  35  36
ATOM     36  C19 NON d   1       4.051  -4.965   1.075  0.00  0.00     0.086 C 
BRANCH  36  37
ATOM     37  S1  NON d   1       4.982  -4.991  -0.492  0.00  0.00    -0.091 SA
BRANCH  37  38
ATOM     38  S2  NON d   1       6.306  -6.543  -0.206  0.00  0.00    -0.038 SA
BRANCH  38  39
ATOM     39  C20 NON d   1       7.330  -6.519  -1.674  0.00  0.00     0.103 A 
ATOM     40  C21 NON d   1       7.775  -7.742  -2.187  0.00  0.00     0.040 A 
ATOM     41  C22 NON d   1       8.599  -7.729  -3.308  0.00  0.00     0.004 A 
ATOM     42  C23 NON d   1       8.945  -6.520  -3.892  0.00  0.00     0.019 A 
ATOM     43  C24 NON d   1       8.461  -5.359  -3.312  0.00  0.00     0.118 A 
ATOM     44  N3  NON d   1       7.675  -5.332  -2.215  0.00  0.00    -0.253 NA
ENDBRANCH  38  39
ENDBRANCH  37  38
ENDBRANCH  36  37
ENDBRANCH  35  36
ENDBRANCH  34  35
ENDBRANCH  33  34
ENDBRANCH  32  33
ENDBRANCH  18  32
TORSDOF 8
