@<TRIPOS>MOLECULE
*****
 49 52 0 0 0
SMALL
USER_CHARGES

@<TRIPOS>ATOM
      1 O1          9.4275   -2.2940   -1.2696 O.2     1  NONAME1    -0.2705
      2 C1          9.4251   -1.3253   -0.5230 C.2     1  NONAME1     0.2411
      3 C2          8.1589   -0.7282    0.0017 C.2     1  NONAME1     0.0011
      4 C3          7.0275   -1.3862    0.3244 C.2     1  NONAME1    -0.0461
      5 C4          6.7457   -2.7890    0.2747 C.ar    1  NONAME1     0.0209
      6 C5          7.7002   -3.7605    0.4696 C.ar    1  NONAME1     0.0390
      7 N1          7.1079   -4.9716    0.2447 N.ar    1  NONAME1    -0.2387
      8 C6          7.7429   -6.2405    0.1485 C.ar    1  NONAME1     0.0654
      9 C7          9.1418   -6.3439    0.1084 C.ar    1  NONAME1    -0.0363
     10 C8          9.7495   -7.5968    0.0045 C.ar    1  NONAME1    -0.0598
     11 C9          8.9694   -8.7495   -0.0586 C.ar    1  NONAME1    -0.0616
     12 C10         7.5792   -8.6533   -0.0277 C.ar    1  NONAME1    -0.0598
     13 C11         6.9637   -7.4035    0.0699 C.ar    1  NONAME1    -0.0363
     14 N2          5.7691   -4.8425    0.1387 N.ar    1  NONAME1    -0.1658
     15 C12         5.5162   -3.5183    0.1208 C.ar    1  NONAME1     0.1002
     16 C13         4.1039   -3.0860   -0.0098 C.ar    1  NONAME1     0.0028
     17 C14         3.0797   -4.0539    0.0939 C.ar    1  NONAME1    -0.0503
     18 C15         1.7240   -3.7111    0.0347 C.ar    1  NONAME1    -0.0309
     19 C16         1.3675   -2.3728   -0.1244 C.ar    1  NONAME1     0.1262
     20 N3         -0.0506   -1.9926   -0.1470 N.pl3   1  NONAME1     0.0564
     21 O2         -0.3204   -0.7836   -0.1768 O.2     1  NONAME1    -0.1261
     22 O3         -0.8927   -2.9015   -0.1268 O.2     1  NONAME1    -0.1261
     23 C17         2.3571   -1.3927   -0.2586 C.ar    1  NONAME1    -0.0309
     24 C18         3.7139   -1.7561   -0.2180 C.ar    1  NONAME1    -0.0503
     25 N4         10.5376   -0.6408   -0.0774 N.am    1  NONAME1    -0.2820
     26 C19        11.8700   -1.1061   -0.1091 C.ar    1  NONAME1     0.0337
     27 C20        12.8921   -0.1804    0.1361 C.ar    1  NONAME1    -0.0394
     28 C21        14.2287   -0.5907    0.1725 C.ar    1  NONAME1    -0.0460
     29 C22        14.5434   -1.9354   -0.0075 C.ar    1  NONAME1     0.0180
     30 Br1        16.3453   -2.4990    0.0724 Br      1  NONAME1    -0.0503
     31 C23        13.5360   -2.8678   -0.2385 C.ar    1  NONAME1    -0.0460
     32 C24        12.2022   -2.4505   -0.3001 C.ar    1  NONAME1    -0.0394
     33 H1          8.1784    0.3493    0.1322 H       1  NONAME1     0.0670
     34 H2          6.2259   -0.7595    0.7058 H       1  NONAME1     0.0626
     35 H3          8.7517   -3.6859    0.6946 H       1  NONAME1     0.0837
     36 H4          9.7857   -5.4693    0.1260 H       1  NONAME1     0.0639
     37 H5         10.8330   -7.6715   -0.0367 H       1  NONAME1     0.0618
     38 H6          9.4457   -9.7226   -0.1409 H       1  NONAME1     0.0618
     39 H7          6.9704   -9.5519   -0.0834 H       1  NONAME1     0.0618
     40 H8          5.8771   -7.3511    0.0886 H       1  NONAME1     0.0639
     41 H9          3.3346   -5.1053    0.2295 H       1  NONAME1     0.0625
     42 H10         0.9760   -4.4961    0.1233 H       1  NONAME1     0.0640
     43 H11         2.0943   -0.3456   -0.3974 H       1  NONAME1     0.0640
     44 H12         4.4416   -0.9679   -0.3666 H       1  NONAME1     0.0625
     45 H13        10.4015    0.2783    0.3255 H       1  NONAME1     0.1551
     46 H14        12.6672    0.8728    0.2819 H       1  NONAME1     0.0636
     47 H15        15.0123    0.1428    0.3446 H       1  NONAME1     0.0629
     48 H16        13.7723   -3.9213   -0.3658 H       1  NONAME1     0.0629
     49 H17        11.4379   -3.2049   -0.4634 H       1  NONAME1     0.0636
@<TRIPOS>BOND
     1     1     2    2
     2     2     3    1
     3     3     4    2
     4     4     5    1
     5     5     6   ar
     6     6     7   ar
     7     7     8    1
     8     8     9   ar
     9     9    10   ar
    10    10    11   ar
    11    11    12   ar
    12    12    13   ar
    13     8    13   ar
    14     7    14   ar
    15    14    15   ar
    16     5    15   ar
    17    15    16    1
    18    16    17   ar
    19    17    18   ar
    20    18    19   ar
    21    19    20    1
    22    20    21    2
    23    20    22    1
    24    19    23   ar
    25    23    24   ar
    26    16    24   ar
    27     2    25   am
    28    25    26    1
    29    26    27   ar
    30    27    28   ar
    31    28    29   ar
    32    29    30    1
    33    29    31   ar
    34    31    32   ar
    35    26    32   ar
    36     3    33    1
    37     4    34    1
    38     6    35    1
    39     9    36    1
    40    10    37    1
    41    11    38    1
    42    12    39    1
    43    13    40    1
    44    17    41    1
    45    18    42    1
    46    23    43    1
    47    24    44    1
    48    25    45    1
    49    27    46    1
    50    28    47    1
    51    31    48    1
    52    32    49    1
