REMARK  10 active torsions:
REMARK  status: ('A' for Active; 'I' for Inactive)
REMARK    1  A    between atoms: C2_2  and  S1_3 
REMARK    2  A    between atoms: S1_3  and  C3_4 
REMARK    3  A    between atoms: C3_4  and  S3_6 
REMARK    4  A    between atoms: S3_6  and  C4_7 
REMARK    5  A    between atoms: C4_7  and  C5_8 
REMARK    6  A    between atoms: C5_8  and  C6_10 
REMARK    7  A    between atoms: C9_13  and  S4_14 
REMARK    8  A    between atoms: S4_14  and  N1_17 
REMARK    9  A    between atoms: N1_17  and  C10_18 
REMARK   10  A    between atoms: C13_21  and  O4_22 
ROOT
ATOM      1  C6  NON d   1      -0.860 -11.728   0.153  0.00  0.00     0.011 A 
ATOM      2  C7  NON d   1       0.343 -11.013   0.006  0.00  0.00     0.017 A 
ATOM      3  C8  NON d   1       1.569 -11.675  -0.180  0.00  0.00     0.026 A 
ATOM      4  C9  NON d   1       1.615 -13.069  -0.202  0.00  0.00     0.074 A 
ATOM      5  C17 NON d   1       0.426 -13.797  -0.028  0.00  0.00     0.026 A 
ATOM      6  C18 NON d   1      -0.804 -13.129   0.152  0.00  0.00     0.017 A 
ENDROOT
BRANCH   4   7
ATOM      7  S4  NON d   1       3.141 -13.896  -0.682  0.00  0.00     0.245 S 
ATOM      8  O2  NON d   1       2.848 -15.314  -0.760  0.00  0.00    -0.206 OA
ATOM      9  O3  NON d   1       3.675 -13.169  -1.811  0.00  0.00    -0.206 OA
BRANCH   7  10
ATOM     10  N1  NON d   1       4.156 -13.729   0.679  0.00  0.00    -0.181 NA
ATOM     11  H10 NON d   1       4.209 -14.654   1.112  0.00  0.00     0.146 HD
BRANCH  10  12
ATOM     12  C10 NON d   1       5.464 -13.163   0.462  0.00  0.00     0.023 A 
ATOM     13  C11 NON d   1       5.614 -11.783   0.364  0.00  0.00     0.027 A 
ATOM     14  C12 NON d   1       6.889 -11.213   0.204  0.00  0.00     0.038 A 
ATOM     15  C13 NON d   1       8.035 -12.016   0.133  0.00  0.00     0.068 A 
ATOM     16  C15 NON d   1       7.873 -13.403   0.193  0.00  0.00     0.038 A 
ATOM     17  C16 NON d   1       6.595 -13.976   0.351  0.00  0.00     0.027 A 
BRANCH  15  18
ATOM     18  O4  NON d   1       9.336 -11.550   0.000  0.00  0.00    -0.356 OA
ATOM     19  C14 NON d   1       9.336 -10.010   0.000  0.00  0.00     0.210 C 
ENDBRANCH  15  18
ENDBRANCH  10  12
ENDBRANCH   7  10
ENDBRANCH   4   7
BRANCH   1  20
ATOM     20  C5  NON d   1      -2.143 -10.938   0.254  0.00  0.00     0.169 C 
ATOM     21  O1  NON d   1      -2.062  -9.717   0.390  0.00  0.00    -0.291 OA
BRANCH  20  22
ATOM     22  C4  NON d   1      -3.479 -11.672   0.160  0.00  0.00     0.164 C 
BRANCH  22  23
ATOM     23  S3  NON d   1      -4.886 -10.553  -0.152  0.00  0.00    -0.104 SA
BRANCH  23  24
ATOM     24  C3  NON d   1      -5.478 -10.070   1.444  0.00  0.00     0.104 C 
ATOM     25  S2  NON d   1      -4.641 -10.202   2.890  0.00  0.00    -0.065 SA
BRANCH  24  26
ATOM     26  S1  NON d   1      -7.162  -9.514   1.353  0.00  0.00    -0.112 SA
BRANCH  26  27
ATOM     27  C2  NON d   1      -7.122  -8.008   2.370  0.00  0.00     0.076 C 
ATOM     28  C1  NON d   1      -8.445  -7.265   2.261  0.00  0.00     0.016 C 
ENDBRANCH  26  27
ENDBRANCH  24  26
ENDBRANCH  23  24
ENDBRANCH  22  23
ENDBRANCH  20  22
ENDBRANCH   1  20
TORSDOF 10
