@<TRIPOS>MOLECULE
*****
 41 43 0 0 0
SMALL
USER_CHARGES

@<TRIPOS>ATOM
      1 C1         16.2134    2.1966    0.0948 C.3     1  NONAME1     0.0788
      2 O1         14.9729    1.5101   -0.0236 O.3     1  NONAME1    -0.4951
      3 C2         13.8423    2.2788   -0.0268 C.ar    1  NONAME1     0.1201
      4 C3         12.6440    1.5630   -0.0693 C.ar    1  NONAME1    -0.0196
      5 C4         11.4089    2.2223   -0.0683 C.ar    1  NONAME1    -0.0536
      6 C5         11.3511    3.6185   -0.0109 C.ar    1  NONAME1    -0.0301
      7 C6         10.0715    4.4189    0.0019 C.3     1  NONAME1     0.0371
      8 N1          8.8450    3.6487    0.0358 N.am    1  NONAME1    -0.3072
      9 C7          7.6543    4.2798   -0.2694 C.2     1  NONAME1     0.2444
     10 O2          7.5968    5.4551   -0.6217 O.2     1  NONAME1    -0.2702
     11 C8          6.3954    3.4926   -0.1303 C.ar    1  NONAME1     0.0373
     12 C9          6.3711    2.0996   -0.1294 C.ar    1  NONAME1    -0.0485
     13 C10         5.1545    1.4078   -0.0413 C.ar    1  NONAME1    -0.0467
     14 C11         3.9505    2.1378    0.0303 C.ar    1  NONAME1     0.0201
     15 S1          2.3504    1.5119    0.1318 S.2     1  NONAME1    -0.0836
     16 C12         1.6381    3.0687    0.1427 C.ar    1  NONAME1     0.0770
     17 C13         0.1896    3.1927    0.2227 C.2     1  NONAME1     0.2731
     18 O3         -0.5894    2.2797    0.5051 O.2     1  NONAME1    -0.2675
     19 N2         -0.3108    4.4486   -0.0654 N.am    1  NONAME1    -0.1930
     20 O4         -1.7201    4.5704   -0.1075 O.3     1  NONAME1    -0.2949
     21 C14         2.6080    4.0506    0.0866 C.ar    1  NONAME1    -0.0347
     22 C15         3.9455    3.5320    0.0198 C.ar    1  NONAME1    -0.0094
     23 C16         5.1873    4.2063   -0.0571 C.ar    1  NONAME1    -0.0414
     24 C17        12.5639    4.3301    0.0123 C.ar    1  NONAME1    -0.0536
     25 C18        13.7972    3.6695    0.0009 C.ar    1  NONAME1    -0.0196
     26 H1         17.0071    1.4460    0.1594 H       1  NONAME1     0.0660
     27 H2         16.4059    2.8119   -0.7903 H       1  NONAME1     0.0660
     28 H3         16.2514    2.7975    1.0097 H       1  NONAME1     0.0660
     29 H4         12.6722    0.4764   -0.1062 H       1  NONAME1     0.0654
     30 H5         10.5066    1.6209   -0.1213 H       1  NONAME1     0.0622
     31 H6         10.0522    5.0644   -0.8845 H       1  NONAME1     0.0512
     32 H7         10.0601    5.0609    0.8914 H       1  NONAME1     0.0512
     33 H8          8.8138    2.8437    0.6439 H       1  NONAME1     0.1493
     34 H9          7.2847    1.5203   -0.2289 H       1  NONAME1     0.0625
     35 H10         5.1399    0.3207   -0.0481 H       1  NONAME1     0.0629
     36 H11         0.2157    5.1599   -0.5572 H       1  NONAME1     0.1825
     37 H12        -2.0183    3.6725    0.1601 H       1  NONAME1     0.2414
     38 H13         2.3957    5.1129    0.1038 H       1  NONAME1     0.0636
     39 H14         5.2013    5.2953   -0.0724 H       1  NONAME1     0.0631
     40 H15        12.5543    5.4192    0.0326 H       1  NONAME1     0.0622
     41 H16        14.6982    4.2730    0.0111 H       1  NONAME1     0.0654
@<TRIPOS>BOND
     1     1     2    1
     2     2     3    1
     3     3     4   ar
     4     4     5   ar
     5     5     6   ar
     6     6     7    1
     7     7     8    1
     8     8     9   am
     9     9    10    2
    10     9    11    1
    11    11    12   ar
    12    12    13   ar
    13    13    14   ar
    14    14    15   ar
    15    15    16   ar
    16    16    17    1
    17    17    18    2
    18    17    19   am
    19    19    20    1
    20    16    21   ar
    21    21    22   ar
    22    14    22   ar
    23    22    23   ar
    24    11    23   ar
    25     6    24   ar
    26    24    25   ar
    27     3    25   ar
    28     1    26    1
    29     1    27    1
    30     1    28    1
    31     4    29    1
    32     5    30    1
    33     7    31    1
    34     7    32    1
    35     8    33    1
    36    12    34    1
    37    13    35    1
    38    19    36    1
    39    20    37    1
    40    21    38    1
    41    23    39    1
    42    24    40    1
    43    25    41    1
