@<TRIPOS>MOLECULE
*****
 37 39 0 0 0
SMALL
USER_CHARGES

@<TRIPOS>ATOM
      1 N1          2.1818   -3.4368    0.0547 N.pl3   1  NONAME1    -0.3565
      2 C1          2.2902   -4.8480    0.0458 C.ar    1  NONAME1     0.0461
      3 C2          3.5330   -5.4553    0.2048 C.ar    1  NONAME1    -0.0387
      4 C3          3.6498   -6.8523    0.1914 C.ar    1  NONAME1    -0.0522
      5 C4          2.5352   -7.6965    0.0256 C.ar    1  NONAME1    -0.0160
      6 C5          2.6567   -9.1914    0.0032 C.ar    1  NONAME1    -0.0178
      7 C6          3.9036   -9.8443   -0.0897 C.ar    1  NONAME1    -0.0540
      8 C7          4.0176  -11.2420   -0.1001 C.ar    1  NONAME1    -0.0612
      9 C8          2.8824  -12.0376   -0.0321 C.ar    1  NONAME1    -0.0617
     10 C9          1.6357  -11.4352    0.0517 C.ar    1  NONAME1    -0.0612
     11 C10         1.5294  -10.0383    0.0755 C.ar    1  NONAME1    -0.0540
     12 C11         1.2853   -7.0493   -0.0942 C.ar    1  NONAME1    -0.0310
     13 C12         1.1434   -5.6557   -0.0446 C.ar    1  NONAME1     0.0551
     14 N2         -0.1086   -4.9878   -0.0298 N.am    1  NONAME1    -0.2799
     15 C13        -1.3660   -5.5507   -0.1504 C.2     1  NONAME1     0.2498
     16 O1         -1.5975   -6.7409   -0.3470 O.2     1  NONAME1    -0.2698
     17 C14        -2.5423   -4.6415   -0.0415 C.ar    1  NONAME1     0.0551
     18 C15        -3.8235   -5.2032    0.0282 C.ar    1  NONAME1    -0.0467
     19 C16        -4.9484   -4.3828    0.1006 C.ar    1  NONAME1    -0.0429
     20 C17        -4.7569   -3.0128    0.1036 C.ar    1  NONAME1     0.0276
     21 N3         -3.5414   -2.4285    0.0383 N.ar    1  NONAME1    -0.2625
     22 C18        -2.4650   -3.2547   -0.0362 C.ar    1  NONAME1     0.0397
     23 H1          3.0936   -2.9849    0.0365 H       1  NONAME1     0.1424
     24 H2          1.6306   -3.1223   -0.7414 H       1  NONAME1     0.1424
     25 H3          4.4313   -4.8565    0.3266 H       1  NONAME1     0.0637
     26 H4          4.6486   -7.2580    0.3224 H       1  NONAME1     0.0624
     27 H5          4.8306   -9.2838   -0.1631 H       1  NONAME1     0.0624
     28 H6          4.9995  -11.7037   -0.1639 H       1  NONAME1     0.0618
     29 H7          2.9674  -13.1199   -0.0450 H       1  NONAME1     0.0618
     30 H8          0.7369  -12.0448    0.1024 H       1  NONAME1     0.0618
     31 H9          0.5229   -9.6368    0.1592 H       1  NONAME1     0.0624
     32 H10         0.3941   -7.6501   -0.2079 H       1  NONAME1     0.0643
     33 H11        -0.0078   -4.0095    0.2049 H       1  NONAME1     0.1552
     34 H12        -3.9529   -6.2833    0.0189 H       1  NONAME1     0.0626
     35 H13        -5.9454   -4.8071    0.1487 H       1  NONAME1     0.0633
     36 H14        -5.6008   -2.3301    0.1546 H       1  NONAME1     0.0829
     37 H15        -1.5270   -2.7169   -0.1073 H       1  NONAME1     0.0837
@<TRIPOS>BOND
     1     1     2    1
     2     2     3   ar
     3     3     4   ar
     4     4     5   ar
     5     5     6    1
     6     6     7   ar
     7     7     8   ar
     8     8     9   ar
     9     9    10   ar
    10    10    11   ar
    11     6    11   ar
    12     5    12   ar
    13    12    13   ar
    14     2    13   ar
    15    13    14    1
    16    14    15   am
    17    15    16    2
    18    15    17    1
    19    17    18   ar
    20    18    19   ar
    21    19    20   ar
    22    20    21   ar
    23    21    22   ar
    24    17    22   ar
    25     1    23    1
    26     1    24    1
    27     3    25    1
    28     4    26    1
    29     7    27    1
    30     8    28    1
    31     9    29    1
    32    10    30    1
    33    11    31    1
    34    12    32    1
    35    14    33    1
    36    18    34    1
    37    19    35    1
    38    20    36    1
    39    22    37    1
