REMARK  8 active torsions:
REMARK  status: ('A' for Active; 'I' for Inactive)
REMARK    1  A    between atoms: C2_2  and  C3_3 
REMARK    2  A    between atoms: C4_4  and  C3_3 
REMARK    3  A    between atoms: C10_14  and  C11_15 
REMARK    4  A    between atoms: C11_15  and  C12_16 
REMARK    5  A    between atoms: C16_22  and  C17_23 
REMARK    6  A    between atoms: C17_23  and  C18_24 
REMARK    7  A    between atoms: N4_26  and  C20_27 
REMARK    8  A    between atoms: C20_27  and  N5_28 
ROOT
ATOM      1  C4  NON d   1      -2.417  -5.081   0.363  0.00  0.00     0.155 C 
ATOM      2  N1  NON d   1      -3.259  -4.582  -0.712  0.00  0.00    -0.248 NA
ATOM      3  C5  NON d   1      -4.568  -4.366  -0.351  0.00  0.00     0.220 C 
ATOM      4  O1  NON d   1      -5.404  -5.234  -0.597  0.00  0.00    -0.278 OA
ATOM      5  C6  NON d   1      -4.923  -2.908   0.000  0.00  0.00     0.166 C 
ATOM      6  C7  NON d   1      -6.458  -2.794   0.000  0.00  0.00     0.042 C 
ATOM      7  N2  NON d   1      -4.137  -1.991   0.778  0.00  0.00    -0.349 N 
ATOM      8  C8  NON d   1      -3.367  -1.086   0.071  0.00  0.00     0.219 C 
ATOM      9  O2  NON d   1      -3.139  -1.201  -1.129  0.00  0.00    -0.274 OA
ATOM     10  C9  NON d   1      -2.829   0.046   0.883  0.00  0.00     0.122 C 
ATOM     11  C10 NON d   1      -1.919   0.969   0.036  0.00  0.00     0.072 C 
ATOM     12  N3  NON d   1      -0.538   0.447  -0.058  0.00  0.00    -0.256 NA
ATOM     13  C15 NON d   1      -0.339  -0.744  -0.767  0.00  0.00     0.220 C 
ATOM     14  O3  NON d   1      -0.202  -0.702  -1.987  0.00  0.00    -0.278 OA
ATOM     15  C16 NON d   1      -0.151  -2.035   0.073  0.00  0.00     0.175 C 
ATOM     16  N6  NON d   1      -0.993  -3.164  -0.346  0.00  0.00    -0.347 N 
ATOM     17  C29 NON d   1      -1.089  -4.296   0.454  0.00  0.00     0.236 C 
ATOM     18  O4  NON d   1      -0.254  -4.569   1.315  0.00  0.00    -0.272 OA
ATOM     19  H9  NON d   1      -3.252  -5.242  -1.484  0.00  0.00     0.131 HD
ATOM     20  H14 NON d   1      -4.372  -1.844   1.750  0.00  0.00     0.163 HD
ATOM     21  H27 NON d   1      -0.050   1.121  -0.641  0.00  0.00     0.130 HD
ATOM     22  H45 NON d   1      -1.779  -2.963  -0.967  0.00  0.00     0.163 HD
ENDROOT
BRANCH  15  23
ATOM     23  C17 NON d   1       1.361  -2.356   0.042  0.00  0.00     0.075 C 
BRANCH  23  24
ATOM     24  C18 NON d   1       2.134  -1.849   1.239  0.00  0.00    -0.028 C 
ATOM     25  C19 NON d   1       1.710  -0.995   2.235  0.00  0.00     0.101 C 
ATOM     26  N4  NON d   1       2.644  -1.012   3.238  0.00  0.00    -0.331 N 
ATOM     27  C23 NON d   1       3.802  -1.611   2.773  0.00  0.00     0.046 A 
ATOM     28  C24 NON d   1       5.078  -1.740   3.345  0.00  0.00     0.030 A 
ATOM     29  C28 NON d   1       3.490  -2.179   1.535  0.00  0.00    -0.002 A 
ATOM     30  C25 NON d   1       6.046  -2.455   2.634  0.00  0.00     0.002 A 
ATOM     31  C26 NON d   1       5.750  -3.045   1.411  0.00  0.00     0.001 A 
ATOM     32  C27 NON d   1       4.474  -2.923   0.855  0.00  0.00     0.014 A 
BRANCH  26  33
ATOM     33  C20 NON d   1       2.461  -0.594   4.626  0.00  0.00     0.363 C 
BRANCH  33  34
ATOM     34  N5  NON d   1       1.338   0.403   4.877  0.00  0.00    -0.063 N 
ATOM     35  C21 NON d   1       1.548   1.121   6.182  0.00  0.00     0.271 C 
ATOM     36  C22 NON d   1      -0.049  -0.180   4.815  0.00  0.00     0.271 C 
ATOM     37  H34 NON d   1       1.431   1.099   4.125  0.00  0.00     0.280 HD
ENDBRANCH  33  34
ENDBRANCH  26  33
ENDBRANCH  23  24
ENDBRANCH  15  23
BRANCH  11  38
ATOM     38  C11 NON d   1      -2.046   2.383   0.670  0.00  0.00     0.024 C 
BRANCH  38  39
ATOM     39  C12 NON d   1      -1.028   3.494   0.376  0.00  0.00    -0.021 C 
ATOM     40  C13 NON d   1       0.312   3.244   1.064  0.00  0.00     0.009 C 
ATOM     41  C14 NON d   1      -0.883   3.834  -1.103  0.00  0.00     0.009 C 
ENDBRANCH  38  39
ENDBRANCH  11  38
BRANCH   1  42
ATOM     42  C3  NON d   1      -2.263  -6.617   0.278  0.00  0.00     0.029 C 
BRANCH  42  43
ATOM     43  C2  NON d   1      -2.753  -7.357   1.532  0.00  0.00    -0.002 C 
ATOM     44  C1  NON d   1      -4.261  -7.299   1.744  0.00  0.00     0.005 C 
ENDBRANCH  42  43
ENDBRANCH   1  42
TORSDOF 8
