@<TRIPOS>MOLECULE
*****
 52 55 0 0 0
SMALL
USER_CHARGES

@<TRIPOS>ATOM
      1 O1          1.4527   -9.6129   -0.5911 O.2     1  NONAME1    -0.2699
      2 C1          2.5577   -9.2063   -0.2373 C.2     1  NONAME1     0.2483
      3 N1          3.6260  -10.0337    0.0583 N.am    1  NONAME1    -0.2785
      4 C2          3.6415  -11.4614    0.0773 C.ar    1  NONAME1     0.0762
      5 C3          4.9225  -12.0692    0.0537 C.ar    1  NONAME1    -0.0292
      6 C4          5.1256  -13.4743    0.0496 C.ar    1  NONAME1    -0.0159
      7 C5          6.4888  -14.1079   -0.0017 C.ar    1  NONAME1    -0.0178
      8 C6          7.6791  -13.3526   -0.0174 C.ar    1  NONAME1    -0.0540
      9 C7          8.9484  -13.9523   -0.0480 C.ar    1  NONAME1    -0.0612
     10 C8          9.0724  -15.3347   -0.0673 C.ar    1  NONAME1    -0.0617
     11 C9          7.9272  -16.1155   -0.0611 C.ar    1  NONAME1    -0.0612
     12 C10         6.6631  -15.5103   -0.0319 C.ar    1  NONAME1    -0.0540
     13 C11         3.9574  -14.2545    0.1010 C.ar    1  NONAME1    -0.0505
     14 C12         2.6865  -13.6830    0.1620 C.ar    1  NONAME1    -0.0178
     15 C13         2.5270  -12.3031    0.1459 C.ar    1  NONAME1     0.1380
     16 O2          1.2279  -11.9047    0.2561 O.3     1  NONAME1    -0.5049
     17 C14         2.7487   -7.7229   -0.1406 C.ar    1  NONAME1     0.0370
     18 C15         1.5944   -6.9266   -0.2191 C.ar    1  NONAME1    -0.0493
     19 C16         1.6638   -5.5308   -0.1578 C.ar    1  NONAME1    -0.0564
     20 C17         2.8935   -4.8852    0.0049 C.ar    1  NONAME1    -0.0304
     21 C18         3.0541   -3.3768    0.0847 C.3     1  NONAME1     0.0344
     22 N2          1.7831   -2.6536    0.0681 N.pl3   1  NONAME1    -0.3396
     23 C19         1.7202   -1.2653    0.0715 C.ar    1  NONAME1     0.0301
     24 C20         0.4564   -0.6627    0.1040 C.ar    1  NONAME1    -0.0249
     25 C21         0.3298    0.7207    0.0315 C.ar    1  NONAME1     0.0033
     26 N3          1.4270    1.4811   -0.0792 N.ar    1  NONAME1    -0.3668
     27 C22         2.6565    0.9515   -0.1453 C.ar    1  NONAME1     0.0033
     28 C23         2.8249   -0.4298   -0.0890 C.ar    1  NONAME1    -0.0249
     29 C24         4.0500   -5.6850    0.0757 C.ar    1  NONAME1    -0.0564
     30 C25         3.9840   -7.0860   -0.0015 C.ar    1  NONAME1    -0.0493
     31 H1          4.5241   -9.6018    0.2112 H       1  NONAME1     0.1552
     32 H2          5.7841  -11.4106    0.0121 H       1  NONAME1     0.0643
     33 H3          7.6611  -12.2678   -0.0017 H       1  NONAME1     0.0624
     34 H4          9.8396  -13.3301   -0.0549 H       1  NONAME1     0.0618
     35 H5         10.0533  -15.8008   -0.0857 H       1  NONAME1     0.0618
     36 H6          8.0070  -17.2001   -0.0786 H       1  NONAME1     0.0618
     37 H7          5.8159  -16.1888   -0.0314 H       1  NONAME1     0.0624
     38 H8          3.9881  -15.3387    0.1036 H       1  NONAME1     0.0625
     39 H9          1.8089  -14.3224    0.2214 H       1  NONAME1     0.0655
     40 H10         1.1645  -10.9933   -0.0982 H       1  NONAME1     0.2922
     41 H11         0.6166   -7.3931   -0.3396 H       1  NONAME1     0.0625
     42 H12         0.7355   -4.9750   -0.2546 H       1  NONAME1     0.0621
     43 H13         3.6655   -3.0682   -0.7721 H       1  NONAME1     0.0511
     44 H14         3.5901   -3.1365    1.0117 H       1  NONAME1     0.0511
     45 H15         1.0913   -3.0801    0.6825 H       1  NONAME1     0.1464
     46 H16        -0.4421   -1.2757    0.1662 H       1  NONAME1     0.0650
     47 H17        -0.6266    1.2293    0.0528 H       1  NONAME1     0.0807
     48 H18         1.3214    2.4954   -0.1304 H       1  NONAME1     0.1648
     49 H19         3.4851    1.6439   -0.2496 H       1  NONAME1     0.0807
     50 H20         3.8312   -0.8308   -0.1642 H       1  NONAME1     0.0650
     51 H21         5.0297   -5.2178    0.1783 H       1  NONAME1     0.0621
     52 H22         4.9173   -7.6369    0.0310 H       1  NONAME1     0.0625
@<TRIPOS>BOND
     1     1     2    2
     2     2     3   am
     3     3     4    1
     4     4     5   ar
     5     5     6   ar
     6     6     7    1
     7     7     8   ar
     8     8     9   ar
     9     9    10   ar
    10    10    11   ar
    11    11    12   ar
    12     7    12   ar
    13     6    13   ar
    14    13    14   ar
    15    14    15   ar
    16     4    15   ar
    17    15    16    1
    18     2    17    1
    19    17    18   ar
    20    18    19   ar
    21    19    20   ar
    22    20    21    1
    23    21    22    1
    24    22    23    1
    25    23    24   ar
    26    24    25   ar
    27    25    26   ar
    28    26    27   ar
    29    27    28   ar
    30    23    28   ar
    31    20    29   ar
    32    29    30   ar
    33    17    30   ar
    34     3    31    1
    35     5    32    1
    36     8    33    1
    37     9    34    1
    38    10    35    1
    39    11    36    1
    40    12    37    1
    41    13    38    1
    42    14    39    1
    43    16    40    1
    44    18    41    1
    45    19    42    1
    46    21    43    1
    47    21    44    1
    48    22    45    1
    49    24    46    1
    50    25    47    1
    51    26    48    1
    52    27    49    1
    53    28    50    1
    54    29    51    1
    55    30    52    1
