@<TRIPOS>MOLECULE
*****
 35 35 0 0 0
SMALL
USER_CHARGES

@<TRIPOS>ATOM
      1 C1         -5.6696    3.8625    0.2365 C.3     1  NONAME1     0.0788
      2 O1         -5.1106    4.9923   -0.4100 O.3     1  NONAME1    -0.4940
      3 C2         -3.8365    5.3914   -0.1218 C.ar    1  NONAME1     0.1340
      4 C3         -3.6365    6.7365   -0.4601 C.ar    1  NONAME1    -0.0186
      5 C4         -2.3854    7.3463   -0.3353 C.ar    1  NONAME1    -0.0547
      6 C5         -1.2804    6.6367    0.1519 C.ar    1  NONAME1    -0.0401
      7 C6          0.0350    7.3721    0.2958 C.3     1  NONAME1     0.0214
      8 C7          1.4057    6.7718    0.0572 C.2     1  NONAME1     0.1242
      9 N1          1.8237    5.6238   -0.4191 N.2     1  NONAME1    -0.1889
     10 N2          0.9450    4.6964   -0.8149 N.pl3   1  NONAME1    -0.2821
     11 C8          2.5609    7.7562    0.3634 C.2     1  NONAME1     0.2601
     12 O2          2.3314    8.9257    0.6266 O.2     1  NONAME1    -0.2688
     13 N3          3.8126    7.1944    0.2404 N.am    1  NONAME1    -0.3095
     14 C9          5.0029    8.0055    0.1013 C.3     1  NONAME1     0.0207
     15 C10         6.2870    7.1898    0.2359 C.3     1  NONAME1     0.0063
     16 S1          6.4131    5.9085   -1.0566 S.3     1  NONAME1    -0.1767
     17 C11        -1.5076    5.3274    0.5870 C.ar    1  NONAME1    -0.0407
     18 C12        -2.7473    4.6793    0.3924 C.ar    1  NONAME1     0.0597
     19 Br1        -2.7257    2.8126    0.7622 Br      1  NONAME1    -0.0465
     20 H1         -6.7590    3.9661    0.1992 H       1  NONAME1     0.0660
     21 H2         -5.4180    2.9524   -0.3150 H       1  NONAME1     0.0660
     22 H3         -5.3918    3.8006    1.2924 H       1  NONAME1     0.0660
     23 H4         -4.4730    7.3226   -0.8379 H       1  NONAME1     0.0654
     24 H5         -2.2900    8.3944   -0.6153 H       1  NONAME1     0.0622
     25 H6         -0.0011    8.2256   -0.3980 H       1  NONAME1     0.0379
     26 H7          0.0423    7.7951    1.3085 H       1  NONAME1     0.0379
     27 H8          0.4351    4.9747   -1.6573 H       1  NONAME1     0.1642
     28 H9          1.4285    3.8271   -1.0555 H       1  NONAME1     0.1642
     29 H10         3.8089    6.2649   -0.1809 H       1  NONAME1     0.1491
     30 H11         4.9776    8.7905    0.8654 H       1  NONAME1     0.0470
     31 H12         4.9538    8.5040   -0.8744 H       1  NONAME1     0.0470
     32 H13         6.3241    6.6926    1.2106 H       1  NONAME1     0.0389
     33 H14         7.1584    7.8463    0.1535 H       1  NONAME1     0.0389
     34 H15         7.6193    5.4458   -0.6966 H       1  NONAME1     0.1017
     35 H16        -0.6889    4.7723    1.0431 H       1  NONAME1     0.0633
@<TRIPOS>BOND
     1     1     2    1
     2     2     3    1
     3     3     4   ar
     4     4     5   ar
     5     5     6   ar
     6     6     7    1
     7     7     8    1
     8     8     9    2
     9     9    10    1
    10     8    11    1
    11    11    12    2
    12    11    13   am
    13    13    14    1
    14    14    15    1
    15    15    16    1
    16     6    17   ar
    17    17    18   ar
    18     3    18   ar
    19    18    19    1
    20     1    20    1
    21     1    21    1
    22     1    22    1
    23     4    23    1
    24     5    24    1
    25     7    25    1
    26     7    26    1
    27    10    27    1
    28    10    28    1
    29    13    29    1
    30    14    30    1
    31    14    31    1
    32    15    32    1
    33    15    33    1
    34    16    34    1
    35    17    35    1
