@<TRIPOS>MOLECULE
*****
 73 74 0 0 0
SMALL
USER_CHARGES

@<TRIPOS>ATOM
      1 C1          0.3018   -1.5312    1.4391 C.3     1  NONAME1    -0.0643
      2 C2          1.2686   -0.9074    0.4285 C.3     1  NONAME1    -0.0406
      3 C3          1.2130    0.6362    0.3722 C.3     1  NONAME1     0.0619
      4 C4          1.3604    1.2170    1.7938 C.3     1  NONAME1    -0.0497
      5 C5         -0.1437    1.0690   -0.2300 C.3     1  NONAME1    -0.0497
      6 C6          2.3016    1.1688   -0.5955 C.2     1  NONAME1     0.3130
      7 O1          2.3625    0.8815   -1.7865 O.2     1  NONAME1    -0.2502
      8 O2          3.0691    2.1338   -0.0189 O.3     1  NONAME1    -0.4603
      9 C7          3.1874    3.4069   -0.7335 C.3     1  NONAME1     0.1106
     10 C8          1.7517    3.9572   -0.7508 C.3     1  NONAME1    -0.0090
     11 C9          1.5312    5.4395   -0.9809 C.3     1  NONAME1    -0.0218
     12 C10         0.2462    5.8561   -0.2471 C.3     1  NONAME1    -0.0588
     13 C11         2.6811    6.2737   -0.5320 C.2     1  NONAME1    -0.0775
     14 C12         3.8521    5.7996   -0.0795 C.2     1  NONAME1    -0.0444
     15 C13         4.8578    6.7565    0.3227 C.2     1  NONAME1    -0.0621
     16 C14         6.1038    6.4006    0.6416 C.2     1  NONAME1    -0.0806
     17 C15         6.6142    4.9854    0.5688 C.3     1  NONAME1    -0.0219
     18 C16         8.0820    5.0387    0.1327 C.3     1  NONAME1    -0.0587
     19 C17         5.7081    4.0659   -0.3261 C.3     1  NONAME1    -0.0248
     20 C18         6.1421    2.5732   -0.2306 C.3     1  NONAME1    -0.0467
     21 C19         7.2765    2.2026   -1.1981 C.3     1  NONAME1    -0.0265
     22 C20         7.5873    0.7036   -1.3438 C.3     1  NONAME1     0.0576
     23 O3          7.0213   -0.0374   -0.2641 O.3     1  NONAME1    -0.3917
     24 C21         9.0843    0.3541   -1.4273 C.3     1  NONAME1    -0.0003
     25 C22        10.0362    1.2955   -2.1858 C.3     1  NONAME1     0.0659
     26 O4         11.2651    0.5723   -2.3596 O.3     1  NONAME1    -0.3912
     27 C23         9.5513    1.7666   -3.5593 C.3     1  NONAME1     0.0520
     28 C24         9.3986    3.2731   -3.6153 C.2     1  NONAME1     0.2379
     29 O5         10.1699    4.0560   -3.0668 O.2     1  NONAME1    -0.2736
     30 N1          8.3360    3.6916   -4.3879 N.am    1  NONAME1    -0.1974
     31 O6          8.0376    5.0671   -4.3840 O.3     1  NONAME1    -0.2952
     32 C25         4.1890    4.3145    0.0493 C.3     1  NONAME1     0.0243
     33 H1         -0.6746   -1.0388    1.4482 H       1  NONAME1     0.0230
     34 H2          0.7115   -1.4764    2.4531 H       1  NONAME1     0.0230
     35 H3          0.1320   -2.5858    1.2047 H       1  NONAME1     0.0230
     36 H4          2.2865   -1.2393    0.6696 H       1  NONAME1     0.0273
     37 H5          1.0466   -1.3184   -0.5648 H       1  NONAME1     0.0273
     38 H6          1.5840    2.2875    1.8063 H       1  NONAME1     0.0240
     39 H7          2.1743    0.7193    2.3338 H       1  NONAME1     0.0240
     40 H8          0.4415    1.0912    2.3753 H       1  NONAME1     0.0240
     41 H9         -0.1961    2.1428   -0.4156 H       1  NONAME1     0.0240
     42 H10        -0.9844    0.8309    0.4267 H       1  NONAME1     0.0240
     43 H11        -0.3217    0.5739   -1.1930 H       1  NONAME1     0.0240
     44 H12         3.5493    3.2267   -1.7556 H       1  NONAME1     0.0740
     45 H13         1.1830    3.4171   -1.5187 H       1  NONAME1     0.0307
     46 H14         1.2827    3.6896    0.2018 H       1  NONAME1     0.0307
     47 H15         1.3879    5.6174   -2.0526 H       1  NONAME1     0.0342
     48 H16         0.0062    6.9100   -0.4181 H       1  NONAME1     0.0235
     49 H17         0.3403    5.7091    0.8369 H       1  NONAME1     0.0235
     50 H18        -0.6058    5.2554   -0.5863 H       1  NONAME1     0.0235
     51 H19         2.5225    7.3495   -0.6005 H       1  NONAME1     0.0578
     52 H20         4.5848    7.8084    0.3734 H       1  NONAME1     0.0617
     53 H21         6.7895    7.1785    0.9712 H       1  NONAME1     0.0575
     54 H22         6.5977    4.6003    1.5968 H       1  NONAME1     0.0343
     55 H23         8.6167    4.1421    0.4546 H       1  NONAME1     0.0235
     56 H24         8.1782    5.1456   -0.9511 H       1  NONAME1     0.0235
     57 H25         8.6194    5.8781    0.5896 H       1  NONAME1     0.0235
     58 H26         5.8215    4.3832   -1.3759 H       1  NONAME1     0.0313
     59 H27         6.4419    2.3409    0.7987 H       1  NONAME1     0.0269
     60 H28         5.3118    1.9127   -0.4736 H       1  NONAME1     0.0269
     61 H29         8.1867    2.7202   -0.9107 H       1  NONAME1     0.0290
     62 H30         7.0151    2.5802   -2.1932 H       1  NONAME1     0.0290
     63 H31         7.0920    0.3460   -2.2549 H       1  NONAME1     0.0594
     64 H32         7.1727   -0.9824   -0.4407 H       1  NONAME1     0.2098
     65 H33         9.4774    0.2467   -0.4048 H       1  NONAME1     0.0315
     66 H34         9.1739   -0.6637   -1.8337 H       1  NONAME1     0.0315
     67 H35        10.2733    2.1360   -1.5240 H       1  NONAME1     0.0599
     68 H36        11.9599    1.2281   -2.5518 H       1  NONAME1     0.2098
     69 H37        10.2746    1.5060   -4.3429 H       1  NONAME1     0.0384
     70 H38         8.6051    1.2842   -3.8321 H       1  NONAME1     0.0384
     71 H39         7.5895    3.0740   -4.6986 H       1  NONAME1     0.1822
     72 H40         8.9227    5.4793   -4.4484 H       1  NONAME1     0.2414
     73 H41         4.0934    4.0558    1.1185 H       1  NONAME1     0.0388
@<TRIPOS>BOND
     1     1     2    1
     2     2     3    1
     3     3     4    1
     4     3     5    1
     5     3     6    1
     6     6     7    2
     7     6     8    1
     8     9     8    1
     9     9    10    1
    10    11    10    1
    11    11    12    1
    12    11    13    1
    13    13    14    2
    14    14    15    1
    15    15    16    2
    16    17    16    1
    17    17    18    1
    18    19    17    1
    19    19    20    1
    20    20    21    1
    21    22    21    1
    22    22    23    1
    23    22    24    1
    24    25    24    1
    25    25    26    1
    26    25    27    1
    27    27    28    1
    28    28    29    2
    29    28    30   am
    30    30    31    1
    31    19    32    1
    32    32    14    1
    33    32     9    1
    34     1    33    1
    35     1    34    1
    36     1    35    1
    37     2    36    1
    38     2    37    1
    39     4    38    1
    40     4    39    1
    41     4    40    1
    42     5    41    1
    43     5    42    1
    44     5    43    1
    45     9    44    1
    46    10    45    1
    47    10    46    1
    48    11    47    1
    49    12    48    1
    50    12    49    1
    51    12    50    1
    52    13    51    1
    53    15    52    1
    54    16    53    1
    55    17    54    1
    56    18    55    1
    57    18    56    1
    58    18    57    1
    59    19    58    1
    60    20    59    1
    61    20    60    1
    62    21    61    1
    63    21    62    1
    64    22    63    1
    65    23    64    1
    66    24    65    1
    67    24    66    1
    68    25    67    1
    69    26    68    1
    70    27    69    1
    71    27    70    1
    72    30    71    1
    73    31    72    1
    74    32    73    1
