REMARK  4 active torsions:
REMARK  status: ('A' for Active; 'I' for Inactive)
REMARK       I    between atoms: C1_2  and  N1_3 
REMARK    1  A    between atoms: C1_2  and  C14_17 
REMARK    2  A    between atoms: N1_3  and  C2_4 
REMARK    3  A    between atoms: C4_6  and  C5_7 
REMARK    4  A    between atoms: C13_15  and  O2_16 
ROOT
ATOM      1  C2  NON d   1      -4.703  -2.962  -0.032  0.00  0.00     0.069 A 
ATOM      2  C3  NON d   1      -6.000  -2.391   0.002  0.00  0.00     0.044 A 
ATOM      3  C4  NON d   1      -6.245  -0.995   0.019  0.00  0.00    -0.024 A 
ATOM      4  C11 NON d   1      -5.098  -0.183   0.017  0.00  0.00     0.015 A 
ATOM      5  C12 NON d   1      -3.808  -0.716  -0.037  0.00  0.00     0.040 A 
ATOM      6  C13 NON d   1      -3.613  -2.093  -0.083  0.00  0.00     0.092 A 
ENDROOT
BRANCH   1   7
ATOM      7  N1  NON d   1      -4.650  -4.381  -0.027  0.00  0.00    -0.319 N 
ATOM      8  C1  NON d   1      -3.571  -5.239   0.135  0.00  0.00     0.282 C 
ATOM      9  O1  NON d   1      -2.411  -4.937   0.385  0.00  0.00    -0.265 OA
ATOM     10  H1  NON d   1      -5.546  -4.849  -0.098  0.00  0.00     0.169 HD
BRANCH   8  11
ATOM     11  C14 NON d   1      -3.937  -6.639   0.034  0.00  0.00     0.170 A 
ATOM     12  C15 NON d   1      -3.168  -7.783   0.047  0.00  0.00     0.067 A 
ATOM     13  C16 NON d   1      -4.098  -8.830  -0.048  0.00  0.00     0.149 A 
ATOM     14  N2  NON d   1      -5.353  -8.380  -0.121  0.00  0.00    -0.140 NA
ATOM     15  O3  NON d   1      -5.251  -6.998  -0.074  0.00  0.00    -0.208 OA
ENDBRANCH   8  11
ENDBRANCH   1   7
BRANCH   6  16
ATOM     16  O2  NON d   1      -2.340  -2.536  -0.261  0.00  0.00    -0.358 OA
ATOM     17  H10 NON d   1      -1.709  -1.860   0.028  0.00  0.00     0.217 HD
ENDBRANCH   6  16
BRANCH   3  18
ATOM     18  C5  NON d   1      -7.629  -0.406   0.026  0.00  0.00    -0.026 A 
ATOM     19  C6  NON d   1      -8.794  -1.202   0.023  0.00  0.00     0.012 A 
ATOM     20  C7  NON d   1     -10.082  -0.646   0.016  0.00  0.00     0.001 A 
ATOM     21  C8  NON d   1     -10.253   0.731   0.011  0.00  0.00     0.000 A 
ATOM     22  C9  NON d   1      -9.136   1.552   0.016  0.00  0.00     0.001 A 
ATOM     23  C10 NON d   1      -7.851   0.990   0.023  0.00  0.00     0.012 A 
ENDBRANCH   3  18
TORSDOF 4
