REMARK  10 active torsions:
REMARK  status: ('A' for Active; 'I' for Inactive)
REMARK    1  A    between atoms: C2_2  and  S1_3 
REMARK    2  A    between atoms: S1_3  and  C3_4 
REMARK    3  A    between atoms: C3_4  and  S3_6 
REMARK    4  A    between atoms: S3_6  and  C4_7 
REMARK    5  A    between atoms: C4_7  and  C5_8 
REMARK    6  A    between atoms: C5_8  and  C6_10 
REMARK    7  A    between atoms: C9_13  and  C10_14 
REMARK    8  A    between atoms: C13_17  and  C14_18 
REMARK    9  A    between atoms: C14_18  and  N1_19 
REMARK   10  A    between atoms: N1_19  and  C15_20 
ROOT
ATOM      1  C10 NON d   1      31.773  -6.679  -0.001  0.00  0.00     0.073 A 
ATOM      2  C11 NON d   1      32.617  -5.574   0.057  0.00  0.00     0.033 A 
ATOM      3  C12 NON d   1      34.006  -5.766   0.068  0.00  0.00     0.012 A 
ATOM      4  C13 NON d   1      34.539  -7.055   0.012  0.00  0.00    -0.027 A 
ATOM      5  C24 NON d   1      33.613  -8.094  -0.040  0.00  0.00     0.125 A 
ATOM      6  N3  NON d   1      32.268  -7.936  -0.048  0.00  0.00    -0.259 NA
ENDROOT
BRANCH   1   7
ATOM      7  C9  NON d   1      30.296  -6.561  -0.010  0.00  0.00     0.034 A 
ATOM      8  C8  NON d   1      29.490  -5.434   0.030  0.00  0.00     0.023 A 
ATOM      9  C7  NON d   1      28.089  -5.735   0.010  0.00  0.00     0.024 A 
ATOM     10  C6  NON d   1      27.840  -7.092  -0.049  0.00  0.00     0.052 A 
ATOM     11  S4  NON d   1      29.311  -7.972  -0.082  0.00  0.00    -0.084 SA
BRANCH  10  12
ATOM     12  C5  NON d   1      26.575  -7.834  -0.093  0.00  0.00     0.175 C 
ATOM     13  O1  NON d   1      26.531  -9.048  -0.299  0.00  0.00    -0.291 OA
BRANCH  12  14
ATOM     14  C4  NON d   1      25.293  -7.010   0.069  0.00  0.00     0.165 C 
BRANCH  14  15
ATOM     15  S3  NON d   1      23.873  -8.056   0.527  0.00  0.00    -0.104 SA
BRANCH  15  16
ATOM     16  C3  NON d   1      22.463  -7.041   0.195  0.00  0.00     0.104 C 
ATOM     17  S2  NON d   1      22.468  -5.370   0.292  0.00  0.00    -0.065 SA
BRANCH  16  18
ATOM     18  S1  NON d   1      21.078  -8.057  -0.219  0.00  0.00    -0.112 SA
BRANCH  18  19
ATOM     19  C2  NON d   1      19.596  -7.047   0.043  0.00  0.00     0.076 C 
ATOM     20  C1  NON d   1      19.172  -6.341  -1.235  0.00  0.00     0.016 C 
ENDBRANCH  18  19
ENDBRANCH  16  18
ENDBRANCH  15  16
ENDBRANCH  14  15
ENDBRANCH  12  14
ENDBRANCH  10  12
ENDBRANCH   1   7
BRANCH   4  21
ATOM     21  C14 NON d   1      36.010  -7.409  -0.014  0.00  0.00     0.132 C 
BRANCH  21  22
ATOM     22  N1  NON d   1      36.902  -6.259   0.126  0.00  0.00    -0.287 NA
ATOM     23  H14 NON d   1      36.625  -5.481  -0.469  0.00  0.00     0.128 HD
BRANCH  22  24
ATOM     24  C15 NON d   1      38.289  -6.437   0.058  0.00  0.00     0.027 A 
ATOM     25  C16 NON d   1      39.128  -5.322   0.034  0.00  0.00     0.140 A 
ATOM     26  N2  NON d   1      40.483  -5.345   0.001  0.00  0.00    -0.259 NA
ATOM     27  C17 NON d   1      41.083  -6.544   0.021  0.00  0.00     0.066 A 
ATOM     28  C18 NON d   1      42.472  -6.615  -0.025  0.00  0.00     0.032 A 
ATOM     29  C22 NON d   1      40.351  -7.746   0.089  0.00  0.00    -0.006 A 
ATOM     30  C19 NON d   1      43.145  -7.838  -0.009  0.00  0.00     0.002 A 
ATOM     31  C20 NON d   1      42.423  -9.023   0.056  0.00  0.00     0.001 A 
ATOM     32  C21 NON d   1      41.031  -8.980   0.108  0.00  0.00     0.014 A 
ATOM     33  C23 NON d   1      38.943  -7.668   0.130  0.00  0.00     0.038 A 
ENDBRANCH  22  24
ENDBRANCH  21  22
ENDBRANCH   4  21
TORSDOF 10
