REMARK  5 active torsions:
REMARK  status: ('A' for Active; 'I' for Inactive)
REMARK    1  A    between atoms: C1_2  and  C2_3 
REMARK       I    between atoms: C1_2  and  N2_22 
REMARK    2  A    between atoms: C3_4  and  C4_5 
REMARK    3  A    between atoms: C8_9  and  C9_10 
REMARK    4  A    between atoms: C9_10  and  C10_12 
REMARK    5  A    between atoms: N2_22  and  O3_23 
ROOT
ATOM      1  C4  NON d   1      -3.216   1.600  -0.001  0.00  0.00    -0.035 A 
ATOM      2  C5  NON d   1      -2.612   2.862   0.003  0.00  0.00     0.011 A 
ATOM      3  C6  NON d   1      -1.229   2.990   0.008  0.00  0.00     0.002 A 
ATOM      4  C7  NON d   1      -0.419   1.856   0.009  0.00  0.00     0.015 A 
ATOM      5  C8  NON d   1      -0.966   0.573   0.003  0.00  0.00     0.017 A 
ATOM      6  C18 NON d   1      -2.378   0.466  -0.001  0.00  0.00     0.027 A 
ENDROOT
BRANCH   5   7
ATOM      7  C9  NON d   1      -0.155  -0.698   0.002  0.00  0.00     0.208 C 
ATOM      8  O2  NON d   1      -0.793  -1.752   0.003  0.00  0.00    -0.285 OA
BRANCH   7   9
ATOM      9  C10 NON d   1       1.307  -0.770   0.000  0.00  0.00     0.085 A 
ATOM     10  C11 NON d   1       2.356   0.135  -0.008  0.00  0.00     0.047 A 
ATOM     11  C12 NON d   1       3.592  -0.569  -0.005  0.00  0.00    -0.007 A 
ATOM     12  C13 NON d   1       4.941  -0.165  -0.006  0.00  0.00     0.014 A 
ATOM     13  C17 NON d   1       3.289  -1.923  -0.000  0.00  0.00     0.043 A 
ATOM     14  C14 NON d   1       5.943  -1.139  -0.003  0.00  0.00     0.001 A 
ATOM     15  C15 NON d   1       5.613  -2.493  -0.000  0.00  0.00     0.002 A 
ATOM     16  C16 NON d   1       4.277  -2.914   0.001  0.00  0.00     0.030 A 
ATOM     17  N1  NON d   1       1.918  -2.018   0.002  0.00  0.00    -0.352 N 
ATOM     18  H11 NON d   1       1.395  -2.884   0.004  0.00  0.00     0.166 HD
ENDBRANCH   7   9
ENDBRANCH   5   7
BRANCH   1  19
ATOM     19  C3  NON d   1      -4.684   1.427  -0.003  0.00  0.00     0.017 C 
ATOM     20  C2  NON d   1      -5.575   2.434  -0.002  0.00  0.00     0.077 C 
BRANCH  20  21
ATOM     21  C1  NON d   1      -7.042   2.185  -0.004  0.00  0.00     0.264 C 
ATOM     22  O1  NON d   1      -7.511   1.055  -0.002  0.00  0.00    -0.266 OA
ATOM     23  N2  NON d   1      -7.753   3.363  -0.011  0.00  0.00    -0.234 N 
ATOM     24  H13 NON d   1      -7.331   4.283  -0.008  0.00  0.00     0.197 HD
BRANCH  23  25
ATOM     25  O3  NON d   1      -9.157   3.266  -0.014  0.00  0.00    -0.287 OA
ATOM     26  H14 NON d   1      -9.457   4.191   0.013  0.00  0.00     0.244 HD
ENDBRANCH  23  25
ENDBRANCH  20  21
ENDBRANCH   1  19
TORSDOF 5
