REMARK  8 active torsions:
REMARK  status: ('A' for Active; 'I' for Inactive)
REMARK    1  A    between atoms: N1_1  and  C1_2 
REMARK    2  A    between atoms: C6_7  and  N2_8 
REMARK       I    between atoms: N2_8  and  C7_9 
REMARK    3  A    between atoms: C7_9  and  C8_11 
REMARK    4  A    between atoms: C8_11  and  C9_12 
REMARK    5  A    between atoms: C9_12  and  C10_13 
REMARK    6  A    between atoms: C10_13  and  C11_14 
REMARK    7  A    between atoms: C11_14  and  C12_15 
REMARK    8  A    between atoms: C12_15  and  N3_16 
ROOT
ATOM      1  C11 NON d   1      17.449   8.560  -0.047  0.00  0.00     0.020 C 
ENDROOT
BRANCH   1   2
ATOM      2  C10 NON d   1      16.261   9.526   0.100  0.00  0.00     0.002 C 
BRANCH   2   3
ATOM      3  C9  NON d   1      15.855  10.313  -1.155  0.00  0.00     0.009 C 
BRANCH   3   4
ATOM      4  C8  NON d   1      16.820  11.424  -1.571  0.00  0.00     0.103 C 
BRANCH   4   5
ATOM      5  C7  NON d   1      18.002  10.921  -2.382  0.00  0.00     0.222 C 
ATOM      6  N2  NON d   1      19.017  11.851  -2.450  0.00  0.00    -0.325 N 
ATOM      7  H7  NON d   1      18.768  12.785  -2.152  0.00  0.00     0.169 HD
ATOM      8  O1  NON d   1      17.997   9.807  -2.891  0.00  0.00    -0.273 OA
BRANCH   6   9
ATOM      9  C6  NON d   1      20.381  11.689  -2.817  0.00  0.00     0.061 A 
ATOM     10  C5  NON d   1      21.122  12.889  -2.812  0.00  0.00     0.032 A 
ATOM     11  C4  NON d   1      22.494  12.904  -3.069  0.00  0.00     0.002 A 
ATOM     12  C3  NON d   1      23.152  11.714  -3.326  0.00  0.00     0.002 A 
ATOM     13  C2  NON d   1      22.439  10.518  -3.343  0.00  0.00     0.031 A 
ATOM     14  C1  NON d   1      21.056  10.478  -3.084  0.00  0.00     0.052 A 
BRANCH  14  15
ATOM     15  N1  NON d   1      20.435   9.243  -3.275  0.00  0.00    -0.397 N 
ATOM     16  H1  NON d   1      20.948   8.423  -2.987  0.00  0.00     0.156 HD
ATOM     17  H2  NON d   1      19.441   9.214  -3.038  0.00  0.00     0.156 HD
ENDBRANCH  14  15
ENDBRANCH   6   9
ENDBRANCH   4   5
ENDBRANCH   3   4
ENDBRANCH   2   3
ENDBRANCH   1   2
BRANCH   1  18
ATOM     18  C12 NON d   1      18.767   9.147   0.477  0.00  0.00     0.135 C 
BRANCH  18  19
ATOM     19  N3  NON d   1      20.010   8.403   0.228  0.00  0.00    -0.280 N 
ATOM     20  C13 NON d   1      21.182   9.163   0.330  0.00  0.00     0.261 C 
ATOM     21  O2  NON d   1      21.194  10.360   0.617  0.00  0.00    -0.267 OA
ATOM     22  C14 NON d   1      22.476   8.464   0.148  0.00  0.00     0.044 A 
ATOM     23  C15 NON d   1      23.657   9.216   0.116  0.00  0.00     0.018 A 
ATOM     24  C23 NON d   1      22.512   7.069   0.041  0.00  0.00     0.007 A 
ATOM     25  C16 NON d   1      24.884   8.579  -0.017  0.00  0.00     0.002 A 
ATOM     26  C17 NON d   1      24.935   7.189  -0.117  0.00  0.00     0.014 A 
ATOM     27  C18 NON d   1      23.761   6.399  -0.090  0.00  0.00    -0.006 A 
ATOM     28  C19 NON d   1      23.758   4.982  -0.173  0.00  0.00     0.022 A 
ATOM     29 Br1  NON d   1      25.357   3.956  -0.323  0.00  0.00    -0.050 Br
ATOM     30  C20 NON d   1      22.563   4.260  -0.133  0.00  0.00     0.021 A 
ATOM     31  C21 NON d   1      21.353   4.931  -0.003  0.00  0.00     0.019 A 
ATOM     32  C22 NON d   1      21.327   6.329   0.089  0.00  0.00     0.044 A 
ATOM     33  C24 NON d   1      20.022   7.010   0.275  0.00  0.00     0.261 C 
ATOM     34  O3  NON d   1      19.043   6.305   0.497  0.00  0.00    -0.267 OA
ENDBRANCH  18  19
ENDBRANCH   1  18
TORSDOF 8
