@<TRIPOS>MOLECULE
*****
 60 62 0 0 0
SMALL
USER_CHARGES

@<TRIPOS>ATOM
      1 N1         18.1783  -20.9609   -2.7487 N.pl3   1  NONAME1    -0.3565
      2 C1         19.4743  -20.4050   -2.7083 C.ar    1  NONAME1     0.0461
      3 C2         20.5455  -21.3014   -2.8754 C.ar    1  NONAME1    -0.0392
      4 C3         21.8536  -20.8518   -3.0460 C.ar    1  NONAME1    -0.0599
      5 C4         22.1078  -19.4886   -3.1072 C.ar    1  NONAME1    -0.0599
      6 C5         21.0524  -18.5800   -3.0018 C.ar    1  NONAME1    -0.0387
      7 C6         19.7295  -19.0162   -2.7977 C.ar    1  NONAME1     0.0543
      8 N2         18.7580  -17.9803   -2.7149 N.am    1  NONAME1    -0.2840
      9 C7         17.5078  -18.0412   -2.1342 C.2     1  NONAME1     0.2172
     10 O1         17.0487  -19.0052   -1.5252 O.2     1  NONAME1    -0.2755
     11 C8         16.7180  -16.7477   -2.2827 C.3     1  NONAME1     0.0243
     12 C9         15.4452  -16.8042   -1.4349 C.3     1  NONAME1    -0.0448
     13 C10        14.7514  -15.4602   -1.2363 C.3     1  NONAME1    -0.0526
     14 C11        15.1318  -14.7461    0.0688 C.3     1  NONAME1    -0.0526
     15 C12        16.4002  -13.9003   -0.0133 C.3     1  NONAME1    -0.0448
     16 C13        17.6810  -14.5600    0.5202 C.3     1  NONAME1     0.0243
     17 C14        18.8653  -13.6301    0.2758 C.2     1  NONAME1     0.2172
     18 O2         18.6774  -12.4482   -0.0068 O.2     1  NONAME1    -0.2755
     19 N3         20.1040  -14.2439    0.4060 N.am    1  NONAME1    -0.2855
     20 C15        21.3664  -13.6025    0.2744 C.ar    1  NONAME1     0.0340
     21 C16        21.4971  -12.2187    0.1659 C.ar    1  NONAME1    -0.0404
     22 C17        22.7474  -11.6376    0.0152 C.ar    1  NONAME1    -0.0594
     23 C18        23.8895  -12.4336   -0.0214 C.ar    1  NONAME1    -0.0539
     24 C19        23.8341  -13.8353    0.1149 C.ar    1  NONAME1    -0.0161
     25 C20        25.0899  -14.6601    0.0935 C.ar    1  NONAME1    -0.0178
     26 C21        26.3712  -14.0648    0.1534 C.ar    1  NONAME1    -0.0540
     27 C22        27.5564  -14.8110    0.1198 C.ar    1  NONAME1    -0.0612
     28 C23        27.5013  -16.1939    0.0420 C.ar    1  NONAME1    -0.0617
     29 C24        26.2635  -16.8208   -0.0107 C.ar    1  NONAME1    -0.0612
     30 C25        25.0792  -16.0661    0.0098 C.ar    1  NONAME1    -0.0540
     31 C26        22.5364  -14.3934    0.2654 C.ar    1  NONAME1    -0.0328
     32 H1         18.1268  -21.8900   -2.3470 H       1  NONAME1     0.1424
     33 H2         17.5054  -20.3487   -2.2750 H       1  NONAME1     0.1424
     34 H3         20.3554  -22.3726   -2.8879 H       1  NONAME1     0.0636
     35 H4         22.6625  -21.5690   -3.1579 H       1  NONAME1     0.0618
     36 H5         23.1236  -19.1317   -3.2557 H       1  NONAME1     0.0618
     37 H6         21.2838  -17.5199   -3.0708 H       1  NONAME1     0.0637
     38 H7         19.0774  -17.0615   -2.9944 H       1  NONAME1     0.1549
     39 H8         17.3529  -15.9064   -1.9953 H       1  NONAME1     0.0358
     40 H9         16.4582  -16.6203   -3.3398 H       1  NONAME1     0.0358
     41 H10        15.6440  -17.2583   -0.4566 H       1  NONAME1     0.0270
     42 H11        14.7448  -17.4813   -1.9425 H       1  NONAME1     0.0270
     43 H12        14.8901  -14.8061   -2.1049 H       1  NONAME1     0.0265
     44 H13        13.6732  -15.6625   -1.1792 H       1  NONAME1     0.0265
     45 H14        14.3056  -14.0569    0.2923 H       1  NONAME1     0.0265
     46 H15        15.1734  -15.4465    0.9105 H       1  NONAME1     0.0265
     47 H16        16.2271  -12.9940    0.5840 H       1  NONAME1     0.0270
     48 H17        16.5520  -13.5523   -1.0427 H       1  NONAME1     0.0270
     49 H18        17.5952  -14.7259    1.6001 H       1  NONAME1     0.0358
     50 H19        17.8650  -15.5255    0.0451 H       1  NONAME1     0.0358
     51 H20        20.1174  -15.2445    0.5603 H       1  NONAME1     0.1548
     52 H21        20.6466  -11.5490    0.2017 H       1  NONAME1     0.0636
     53 H22        22.8329  -10.5580   -0.0714 H       1  NONAME1     0.0618
     54 H23        24.8287  -11.9079   -0.1640 H       1  NONAME1     0.0624
     55 H24        26.4932  -12.9891    0.2367 H       1  NONAME1     0.0624
     56 H25        28.5168  -14.3025    0.1597 H       1  NONAME1     0.0618
     57 H26        28.4191  -16.7759    0.0212 H       1  NONAME1     0.0618
     58 H27        26.2129  -17.9058   -0.0671 H       1  NONAME1     0.0618
     59 H28        24.1479  -16.6211   -0.0466 H       1  NONAME1     0.0624
     60 H29        22.4228  -15.4674    0.3751 H       1  NONAME1     0.0642
@<TRIPOS>BOND
     1     1     2    1
     2     2     3   ar
     3     3     4   ar
     4     4     5   ar
     5     5     6   ar
     6     6     7   ar
     7     2     7   ar
     8     7     8    1
     9     8     9   am
    10     9    10    2
    11     9    11    1
    12    11    12    1
    13    12    13    1
    14    13    14    1
    15    14    15    1
    16    15    16    1
    17    16    17    1
    18    17    18    2
    19    17    19   am
    20    19    20    1
    21    20    21   ar
    22    21    22   ar
    23    22    23   ar
    24    23    24   ar
    25    24    25    1
    26    25    26   ar
    27    26    27   ar
    28    27    28   ar
    29    28    29   ar
    30    29    30   ar
    31    25    30   ar
    32    24    31   ar
    33    20    31   ar
    34     1    32    1
    35     1    33    1
    36     3    34    1
    37     4    35    1
    38     5    36    1
    39     6    37    1
    40     8    38    1
    41    11    39    1
    42    11    40    1
    43    12    41    1
    44    12    42    1
    45    13    43    1
    46    13    44    1
    47    14    45    1
    48    14    46    1
    49    15    47    1
    50    15    48    1
    51    16    49    1
    52    16    50    1
    53    19    51    1
    54    21    52    1
    55    22    53    1
    56    23    54    1
    57    26    55    1
    58    27    56    1
    59    28    57    1
    60    29    58    1
    61    30    59    1
    62    31    60    1
