@<TRIPOS>MOLECULE
*****
 67 68 0 0 0
SMALL
USER_CHARGES

@<TRIPOS>ATOM
      1 C1        -10.5239    8.3112   -2.2170 C.3     1  NONAME1    -0.0433
      2 N1         -9.4346    8.6338   -1.2158 N.4     1  NONAME1     0.2313
      3 C2         -9.6936   10.0589   -0.7352 C.3     1  NONAME1    -0.0433
      4 C3         -9.2834    7.6922   -0.0246 C.3     1  NONAME1    -0.0255
      5 C4         -8.7117    6.2377   -0.2618 C.3     1  NONAME1     0.0230
      6 C5         -9.8244    5.2997    0.2922 C.3     1  NONAME1    -0.0533
      7 C6         -8.4511    5.8351   -1.7153 C.3     1  NONAME1    -0.0533
      8 C7         -7.4440    5.8927    0.6370 C.3     1  NONAME1     0.0347
      9 N2         -6.0775    6.0530    0.1500 N.ar    1  NONAME1    -0.3294
     10 C8         -5.3903    7.2376    0.1435 C.ar    1  NONAME1     0.0971
     11 N3         -4.0953    7.0626    0.0003 N.ar    1  NONAME1    -0.2357
     12 C9         -3.9001    5.7024   -0.0373 C.ar    1  NONAME1     0.0897
     13 C10        -2.6846    4.9702   -0.0748 C.ar    1  NONAME1    -0.0221
     14 C11        -2.7207    3.5680   -0.0675 C.ar    1  NONAME1     0.0393
     15 C12        -1.5007    2.6597   -0.0188 C.2     1  NONAME1     0.2515
     16 O1         -1.7114    1.4592    0.1095 O.2     1  NONAME1    -0.2697
     17 N4         -0.2238    3.2184   -0.0380 N.am    1  NONAME1    -0.2362
     18 C13         0.9402    2.4694   -0.1754 C.2     1  NONAME1     0.3061
     19 O2          0.9936    1.2991   -0.5340 O.2     1  NONAME1    -0.2524
     20 N5          2.0858    3.2159    0.0992 N.am    1  NONAME1    -0.2991
     21 C14         3.3673    2.5128    0.1668 C.3     1  NONAME1     0.0131
     22 C15         4.6069    3.3850   -0.0628 C.3     1  NONAME1    -0.0373
     23 C16         5.1757    4.0952    1.1745 C.3     1  NONAME1    -0.0512
     24 C17         4.3558    5.3067    1.6185 C.3     1  NONAME1    -0.0447
     25 C18         5.0978    6.2022    2.6157 C.3     1  NONAME1     0.0259
     26 C19         5.1669    5.6531    4.0314 C.2     1  NONAME1     0.2354
     27 O3          4.7074    4.5636    4.3528 O.2     1  NONAME1    -0.2737
     28 N6          5.7651    6.5500    4.8908 N.am    1  NONAME1    -0.1975
     29 O4          6.0245    6.1320    6.2090 O.3     1  NONAME1    -0.2952
     30 C20        -3.9832    2.9360   -0.0650 C.ar    1  NONAME1    -0.0475
     31 C21        -5.2000    3.6454   -0.0249 C.ar    1  NONAME1    -0.0353
     32 C22        -5.1304    5.0423    0.0087 C.ar    1  NONAME1     0.0687
     33 H1        -10.4222    7.2925   -2.5733 H       1  NONAME1     0.0777
     34 H2        -11.5001    8.4547   -1.7449 H       1  NONAME1     0.0777
     35 H3        -10.4040    8.9956   -3.0644 H       1  NONAME1     0.0777
     36 H4         -8.5448    8.6646   -1.7289 H       1  NONAME1     0.2028
     37 H5         -9.6782   10.7200   -1.6071 H       1  NONAME1     0.0777
     38 H6        -10.6759   10.0862   -0.2503 H       1  NONAME1     0.0777
     39 H7         -8.9049   10.3410   -0.0351 H       1  NONAME1     0.0777
     40 H8         -8.6407    8.2186    0.6892 H       1  NONAME1     0.0820
     41 H9        -10.2854    7.6594    0.4253 H       1  NONAME1     0.0820
     42 H10       -10.8025    5.5013   -0.1602 H       1  NONAME1     0.0237
     43 H11        -9.9304    5.4232    1.3682 H       1  NONAME1     0.0237
     44 H12        -9.5832    4.2399    0.1086 H       1  NONAME1     0.0237
     45 H13        -7.8848    4.8996   -1.7691 H       1  NONAME1     0.0237
     46 H14        -9.3839    5.6332   -2.2496 H       1  NONAME1     0.0237
     47 H15        -7.8876    6.5977   -2.2561 H       1  NONAME1     0.0237
     48 H16        -7.5108    4.8357    0.9249 H       1  NONAME1     0.0499
     49 H17        -7.4990    6.4472    1.5829 H       1  NONAME1     0.0499
     50 H18        -5.8632    8.1971    0.2987 H       1  NONAME1     0.1029
     51 H19        -1.7574    5.5279   -0.0699 H       1  NONAME1     0.0647
     52 H20        -0.1003    4.2083   -0.1079 H       1  NONAME1     0.1594
     53 H21         1.9580    3.9400    0.7902 H       1  NONAME1     0.1502
     54 H22         3.4198    2.0042    1.1358 H       1  NONAME1     0.0462
     55 H23         3.3667    1.7323   -0.6043 H       1  NONAME1     0.0462
     56 H24         5.4047    2.7167   -0.4172 H       1  NONAME1     0.0280
     57 H25         4.4317    4.1064   -0.8697 H       1  NONAME1     0.0280
     58 H26         5.2835    3.3800    1.9991 H       1  NONAME1     0.0266
     59 H27         6.1911    4.4303    0.9249 H       1  NONAME1     0.0266
     60 H28         4.1205    5.9133    0.7354 H       1  NONAME1     0.0270
     61 H29         3.4061    4.9773    2.0500 H       1  NONAME1     0.0270
     62 H30         6.1176    6.4024    2.2650 H       1  NONAME1     0.0359
     63 H31         4.5711    7.1627    2.6711 H       1  NONAME1     0.0359
     64 H32         6.2047    7.4108    4.5860 H       1  NONAME1     0.1822
     65 H33         5.4704    6.7371    6.7355 H       1  NONAME1     0.2414
     66 H34        -4.0337    1.8442   -0.0731 H       1  NONAME1     0.0626
     67 H35        -6.1412    3.1064    0.0014 H       1  NONAME1     0.0639
@<TRIPOS>BOND
     1     1     2    1
     2     2     3    1
     3     2     4    1
     4     4     5    1
     5     5     6    1
     6     5     7    1
     7     5     8    1
     8     8     9    1
     9     9    10   ar
    10    10    11   ar
    11    11    12   ar
    12    12    13   ar
    13    13    14   ar
    14    14    15    1
    15    15    16    2
    16    15    17   am
    17    17    18   am
    18    18    19    2
    19    18    20   am
    20    20    21    1
    21    21    22    1
    22    22    23    1
    23    23    24    1
    24    24    25    1
    25    25    26    1
    26    26    27    2
    27    26    28   am
    28    28    29    1
    29    14    30   ar
    30    30    31   ar
    31    31    32   ar
    32    12    32   ar
    33     9    32   ar
    34     1    33    1
    35     1    34    1
    36     1    35    1
    37     2    36    1
    38     3    37    1
    39     3    38    1
    40     3    39    1
    41     4    40    1
    42     4    41    1
    43     6    42    1
    44     6    43    1
    45     6    44    1
    46     7    45    1
    47     7    46    1
    48     7    47    1
    49     8    48    1
    50     8    49    1
    51    10    50    1
    52    13    51    1
    53    17    52    1
    54    20    53    1
    55    21    54    1
    56    21    55    1
    57    22    56    1
    58    22    57    1
    59    23    58    1
    60    23    59    1
    61    24    60    1
    62    24    61    1
    63    25    62    1
    64    25    63    1
    65    28    64    1
    66    29    65    1
    67    30    66    1
    68    31    67    1
