@<TRIPOS>MOLECULE
*****
 52 54 0 0 0
SMALL
USER_CHARGES

@<TRIPOS>ATOM
      1 O1          6.0394  -12.9553   -0.2010 O.2     1  NONAME1    -0.2687
      2 C1          4.9756  -13.5096    0.0506 C.2     1  NONAME1     0.2593
      3 C2          3.6788  -12.8014    0.1688 C.2     1  NONAME1     0.0027
      4 C3          3.6246  -11.4637    0.0752 C.2     1  NONAME1    -0.0496
      5 C4          2.3915  -10.6508    0.1228 C.ar    1  NONAME1    -0.0246
      6 C5          1.1115  -11.2049    0.0583 C.ar    1  NONAME1    -0.0546
      7 C6         -0.0152  -10.3863    0.0690 C.ar    1  NONAME1    -0.0609
      8 C7          0.1253   -8.9986    0.1075 C.ar    1  NONAME1    -0.0573
      9 C8          1.3928   -8.3895    0.1176 C.ar    1  NONAME1    -0.0262
     10 C9          1.5328   -6.8514    0.1709 C.3     1  NONAME1     0.1371
     11 C10         0.2886   -6.1137   -0.3463 C.2     1  NONAME1     0.2336
     12 O2         -0.2726   -6.4168   -1.3961 O.2     1  NONAME1    -0.2743
     13 N1         -0.0722   -5.0226    0.4441 N.am    1  NONAME1    -0.2846
     14 C11        -1.2161   -4.2215    0.2400 C.ar    1  NONAME1     0.0334
     15 C12        -2.3847   -4.7131   -0.3463 C.ar    1  NONAME1    -0.0405
     16 C13        -3.5039   -3.8887   -0.4901 C.ar    1  NONAME1    -0.0600
     17 C14        -3.4511   -2.5596   -0.0768 C.ar    1  NONAME1    -0.0616
     18 C15        -2.2863   -2.0603    0.5025 C.ar    1  NONAME1    -0.0600
     19 C16        -1.1796   -2.8952    0.6834 C.ar    1  NONAME1    -0.0405
     20 C17         2.7999   -6.2415   -0.4723 C.2     1  NONAME1     0.2336
     21 O3          3.7049   -6.9063   -0.9719 O.2     1  NONAME1    -0.2743
     22 N2          2.8766   -4.8554   -0.3208 N.am    1  NONAME1    -0.2846
     23 C18         4.0552   -4.0789   -0.2795 C.ar    1  NONAME1     0.0334
     24 C19         3.9105   -2.6850   -0.2746 C.ar    1  NONAME1    -0.0405
     25 C20         5.0296   -1.8557   -0.1578 C.ar    1  NONAME1    -0.0600
     26 C21         6.3009   -2.4122   -0.0426 C.ar    1  NONAME1    -0.0616
     27 C22         6.4533   -3.7947   -0.0484 C.ar    1  NONAME1    -0.0600
     28 C23         5.3347   -4.6256   -0.1619 C.ar    1  NONAME1    -0.0405
     29 C24         2.5119   -9.2479    0.1783 C.ar    1  NONAME1    -0.0502
     30 N3          4.8654  -14.8630    0.2269 N.am    1  NONAME1    -0.1940
     31 O4          6.0370  -15.6273    0.0367 O.3     1  NONAME1    -0.2949
     32 H1          2.7989  -13.4116    0.3114 H       1  NONAME1     0.0670
     33 H2          4.5501  -10.9046   -0.0682 H       1  NONAME1     0.0625
     34 H3          0.9561  -12.2763   -0.0100 H       1  NONAME1     0.0623
     35 H4         -1.0065  -10.8282    0.0270 H       1  NONAME1     0.0618
     36 H5         -0.7892   -8.4078    0.1063 H       1  NONAME1     0.0621
     37 H6          1.6226   -6.6361    1.2463 H       1  NONAME1     0.0539
     38 H7          0.5764   -4.6918    1.1494 H       1  NONAME1     0.1548
     39 H8         -2.4620   -5.7487   -0.6671 H       1  NONAME1     0.0636
     40 H9         -4.4161   -4.2888   -0.9260 H       1  NONAME1     0.0618
     41 H10        -4.3175   -1.9157   -0.2063 H       1  NONAME1     0.0618
     42 H11        -2.2398   -1.0187    0.8105 H       1  NONAME1     0.0618
     43 H12        -0.2831   -2.4778    1.1330 H       1  NONAME1     0.0636
     44 H13         2.0129   -4.3298   -0.3721 H       1  NONAME1     0.1548
     45 H14         2.9306   -2.2237   -0.3591 H       1  NONAME1     0.0636
     46 H15         4.9088   -0.7754   -0.1552 H       1  NONAME1     0.0618
     47 H16         7.1729   -1.7698    0.0507 H       1  NONAME1     0.0618
     48 H17         7.4408   -4.2386    0.0467 H       1  NONAME1     0.0618
     49 H18         5.4942   -5.6983   -0.1424 H       1  NONAME1     0.0636
     50 H19         3.5133   -8.8269    0.2513 H       1  NONAME1     0.0626
     51 H20         4.0048  -15.3751    0.3769 H       1  NONAME1     0.1825
     52 H21         6.6930  -14.9443   -0.2256 H       1  NONAME1     0.2414
@<TRIPOS>BOND
     1     1     2    2
     2     2     3    1
     3     3     4    2
     4     4     5    1
     5     5     6   ar
     6     6     7   ar
     7     7     8   ar
     8     8     9   ar
     9     9    10    1
    10    10    11    1
    11    11    12    2
    12    11    13   am
    13    13    14    1
    14    14    15   ar
    15    15    16   ar
    16    16    17   ar
    17    17    18   ar
    18    18    19   ar
    19    14    19   ar
    20    10    20    1
    21    20    21    2
    22    20    22   am
    23    22    23    1
    24    23    24   ar
    25    24    25   ar
    26    25    26   ar
    27    26    27   ar
    28    27    28   ar
    29    23    28   ar
    30     9    29   ar
    31     5    29   ar
    32     2    30   am
    33    30    31    1
    34     3    32    1
    35     4    33    1
    36     6    34    1
    37     7    35    1
    38     8    36    1
    39    10    37    1
    40    13    38    1
    41    15    39    1
    42    16    40    1
    43    17    41    1
    44    18    42    1
    45    19    43    1
    46    22    44    1
    47    24    45    1
    48    25    46    1
    49    26    47    1
    50    27    48    1
    51    28    49    1
    52    29    50    1
    53    30    51    1
    54    31    52    1
