@<TRIPOS>MOLECULE
*****
 29 29 0 0 0
SMALL
USER_CHARGES

@<TRIPOS>ATOM
      1 C1          1.3337    5.3900    0.0000 C.3     1  NONAME1    -0.0560
      2 C2          1.3337    3.8500    0.0000 C.3     1  NONAME1    -0.0127
      3 C3         -0.2063    3.8500    0.0000 C.3     1  NONAME1    -0.0560
      4 C4          2.8737    3.8500    0.0000 C.3     1  NONAME1    -0.0560
      5 C5          1.3337    2.3100    0.0000 C.ar    1  NONAME1    -0.0419
      6 C6          1.7165    1.6014    1.1584 C.ar    1  NONAME1    -0.0574
      7 C7          1.7114    0.2066    1.1780 C.ar    1  NONAME1    -0.0493
      8 C8          1.2602   -0.5057    0.0629 C.ar    1  NONAME1     0.0387
      9 C9          1.2107   -1.9857    0.1475 C.2     1  NONAME1     0.2665
     10 O1          2.0284   -2.6159    0.8145 O.2     1  NONAME1    -0.2681
     11 N1          0.1608   -2.5953   -0.5006 N.am    1  NONAME1    -0.1935
     12 O2          0.0124   -3.9746   -0.2049 O.3     1  NONAME1    -0.2949
     13 C10         0.8711    0.1789   -1.0952 C.ar    1  NONAME1    -0.0493
     14 C11         0.9323    1.5754   -1.1339 C.ar    1  NONAME1    -0.0574
     15 H1          1.7881    5.5951    0.9866 H       1  NONAME1     0.0238
     16 H2          1.3337    6.9300    0.0000 H       1  NONAME1     0.0238
     17 H3          1.8176    5.5977   -0.9716 H       1  NONAME1     0.0238
     18 H4         -0.3667    4.4264   -0.9382 H       1  NONAME1     0.0238
     19 H5         -1.7463    3.8500    0.0000 H       1  NONAME1     0.0238
     20 H6         -0.3620    4.3967    0.9562 H       1  NONAME1     0.0238
     21 H7          3.0765    4.3004   -0.9897 H       1  NONAME1     0.0238
     22 H8          4.4137    3.8500    0.0000 H       1  NONAME1     0.0238
     23 H9          3.0856    4.3490    0.9639 H       1  NONAME1     0.0238
     24 H10         2.0466    2.1389    2.0465 H       1  NONAME1     0.0621
     25 H11         2.0440   -0.3224    2.0688 H       1  NONAME1     0.0625
     26 H12        -0.6960   -2.0928   -0.7058 H       1  NONAME1     0.1825
     27 H13         0.7909   -4.1476    0.3717 H       1  NONAME1     0.2414
     28 H14         0.5400   -0.3605   -1.9786 H       1  NONAME1     0.0625
     29 H15         0.6320    2.0952   -2.0429 H       1  NONAME1     0.0621
@<TRIPOS>BOND
     1     1     2    1
     2     2     3    1
     3     2     4    1
     4     2     5    1
     5     5     6   ar
     6     6     7   ar
     7     7     8   ar
     8     8     9    1
     9     9    10    2
    10     9    11   am
    11    11    12    1
    12     8    13   ar
    13    13    14   ar
    14     5    14   ar
    15     1    15    1
    16     1    16    1
    17     1    17    1
    18     3    18    1
    19     3    19    1
    20     3    20    1
    21     4    21    1
    22     4    22    1
    23     4    23    1
    24     6    24    1
    25     7    25    1
    26    11    26    1
    27    12    27    1
    28    13    28    1
    29    14    29    1
