@<TRIPOS>MOLECULE
*****
 58 60 0 0 0
SMALL
USER_CHARGES

@<TRIPOS>ATOM
      1 C1         -1.4848   -3.5820   -5.9750 C.3     1  NONAME1    -0.0061
      2 C2         -1.8471   -4.2695   -4.6866 C.2     1  NONAME1     0.1303
      3 O1         -2.9672   -4.1293   -4.1977 O.2     1  NONAME1    -0.2977
      4 C3         -0.7893   -5.1652   -4.0718 C.3     1  NONAME1     0.0055
      5 C4         -1.1007   -5.5839   -2.6384 C.3     1  NONAME1    -0.0464
      6 C5         -0.5969   -4.5936   -1.5858 C.3     1  NONAME1    -0.0526
      7 C6         -1.2541   -3.1993   -1.5832 C.3     1  NONAME1    -0.0512
      8 C7         -0.9990   -2.3320   -0.3170 C.3     1  NONAME1    -0.0289
      9 C8          0.4794   -1.8591    0.0000 C.3     1  NONAME1     0.0864
     10 N1          1.8131   -2.6291    0.0000 N.3     1  NONAME1    -0.1796
     11 S1          3.1467   -1.8592    0.0183 S.O2    1  NONAME1     0.0591
     12 O2          3.8068   -3.1163   -0.3602 O.2     1  NONAME1    -0.1530
     13 O3          2.8852   -1.5934    1.4430 O.2     1  NONAME1    -0.1530
     14 C9          4.4804   -1.0893    0.0366 C.ar    1  NONAME1     0.1065
     15 C10         5.0548   -0.4008    1.1348 C.ar    1  NONAME1    -0.0353
     16 C11         6.2459    0.3350    1.0418 C.ar    1  NONAME1    -0.0587
     17 C12         6.9261    0.4090   -0.1606 C.ar    1  NONAME1    -0.0442
     18 C13         6.4114   -0.2449   -1.2761 C.ar    1  NONAME1     0.0536
     19 C14         7.1140   -0.1921   -2.5284 C.1     1  NONAME1     0.0992
     20 N2          7.6731   -0.1484   -3.5413 N.1     1  NONAME1    -0.1909
     21 C15         5.2011   -0.9620   -1.1762 C.ar    1  NONAME1    -0.0180
     22 C16         0.4794   -0.3191    0.0000 C.ar    1  NONAME1     0.1265
     23 N3         -0.4041    0.4925   -0.5628 N.ar    1  NONAME1    -0.2309
     24 C17        -0.1135    1.7658   -0.1159 C.ar    1  NONAME1     0.0889
     25 C18        -1.0065    2.9106   -0.2140 C.ar    1  NONAME1     0.0018
     26 C19        -2.3940    2.7051   -0.2093 C.ar    1  NONAME1    -0.0525
     27 C20        -3.2759    3.7889   -0.1461 C.ar    1  NONAME1    -0.0611
     28 C21        -2.7796    5.0901   -0.0990 C.ar    1  NONAME1    -0.0617
     29 C22        -1.4041    5.3102   -0.1244 C.ar    1  NONAME1    -0.0611
     30 C23        -0.5220    4.2266   -0.1812 C.ar    1  NONAME1    -0.0525
     31 C24         1.0645    1.7529    0.5940 C.ar    1  NONAME1     0.0293
     32 N4          1.3216    0.4284    0.7946 N.ar    1  NONAME1    -0.3464
     33 H1         -1.5589   -2.5009   -5.8366 H       1  NONAME1     0.0306
     34 H2         -2.1651   -3.9158   -6.7619 H       1  NONAME1     0.0306
     35 H3         -0.4614   -3.8295   -6.2690 H       1  NONAME1     0.0306
     36 H4         -0.7324   -6.0598   -4.7029 H       1  NONAME1     0.0341
     37 H5          0.1815   -4.6589   -4.1171 H       1  NONAME1     0.0341
     38 H6         -2.1675   -5.7824   -2.4910 H       1  NONAME1     0.0269
     39 H7         -0.5825   -6.5346   -2.4516 H       1  NONAME1     0.0269
     40 H8          0.4831   -4.4885   -1.7377 H       1  NONAME1     0.0265
     41 H9         -0.7447   -5.0639   -0.6048 H       1  NONAME1     0.0265
     42 H10        -2.3403   -3.3431   -1.6483 H       1  NONAME1     0.0266
     43 H11        -0.9474   -2.6346   -2.4688 H       1  NONAME1     0.0266
     44 H12        -1.3729   -2.8762    0.5659 H       1  NONAME1     0.0285
     45 H13        -1.6849   -1.4793   -0.3847 H       1  NONAME1     0.0285
     46 H14         0.4794   -3.3991    0.0000 H       1  NONAME1     0.0557
     47 H15         1.9559   -3.4237   -0.6311 H       1  NONAME1     0.1488
     48 H16         4.5915   -0.4238    2.1211 H       1  NONAME1     0.0637
     49 H17         6.6319    0.8438    1.9270 H       1  NONAME1     0.0619
     50 H18         7.8579    0.9709   -0.2202 H       1  NONAME1     0.0630
     51 H19         4.8358   -1.4658   -2.0748 H       1  NONAME1     0.0650
     52 H20        -2.7938    1.6928   -0.2124 H       1  NONAME1     0.0624
     53 H21        -4.3489    3.6157   -0.1153 H       1  NONAME1     0.0618
     54 H22        -3.4640    5.9322   -0.0362 H       1  NONAME1     0.0618
     55 H23        -1.0163    6.3248   -0.0839 H       1  NONAME1     0.0618
     56 H24         0.5467    4.4233   -0.1807 H       1  NONAME1     0.0624
     57 H25         1.6309    2.5267    1.0918 H       1  NONAME1     0.0829
     58 H26         2.0054    0.0404    1.4373 H       1  NONAME1     0.1666
@<TRIPOS>BOND
     1     1     2    1
     2     2     3    2
     3     2     4    1
     4     4     5    1
     5     5     6    1
     6     6     7    1
     7     7     8    1
     8     9     8    1
     9     9    10    1
    10    10    11    1
    11    11    12    2
    12    11    13    2
    13    11    14    1
    14    14    15   ar
    15    15    16   ar
    16    16    17   ar
    17    17    18   ar
    18    18    19    1
    19    19    20    3
    20    18    21   ar
    21    14    21   ar
    22     9    22    1
    23    22    23   ar
    24    23    24   ar
    25    24    25    1
    26    25    26   ar
    27    26    27   ar
    28    27    28   ar
    29    28    29   ar
    30    29    30   ar
    31    25    30   ar
    32    24    31   ar
    33    31    32   ar
    34    22    32   ar
    35     1    33    1
    36     1    34    1
    37     1    35    1
    38     4    36    1
    39     4    37    1
    40     5    38    1
    41     5    39    1
    42     6    40    1
    43     6    41    1
    44     7    42    1
    45     7    43    1
    46     8    44    1
    47     8    45    1
    48     9    46    1
    49    10    47    1
    50    15    48    1
    51    16    49    1
    52    17    50    1
    53    21    51    1
    54    26    52    1
    55    27    53    1
    56    28    54    1
    57    29    55    1
    58    30    56    1
    59    31    57    1
    60    32    58    1
