@<TRIPOS>MOLECULE
*****
 51 52 0 0 0
SMALL
USER_CHARGES

@<TRIPOS>ATOM
      1 C1         12.4224  -17.5731   -0.9906 C.3     1  NONAME1    -0.0061
      2 C2         11.7229  -16.7760    0.1261 C.2     1  NONAME1     0.1303
      3 O1         11.0153  -17.3238    0.9707 O.2     1  NONAME1    -0.2977
      4 C3         11.9676  -15.2707    0.1131 C.3     1  NONAME1     0.0055
      5 C4         11.3143  -14.5382    1.2833 C.3     1  NONAME1    -0.0464
      6 C5         11.2432  -13.0098    1.1428 C.3     1  NONAME1    -0.0526
      7 C6         12.5865  -12.2622    1.1242 C.3     1  NONAME1    -0.0509
      8 C7         13.1787  -12.1580   -0.2849 C.3     1  NONAME1    -0.0259
      9 C8         14.4807  -11.3297   -0.4090 C.3     1  NONAME1     0.1000
     10 N1         14.3786   -9.9163    0.0034 N.am    1  NONAME1    -0.2995
     11 C9         13.4615   -9.0510   -0.6012 C.2     1  NONAME1     0.2546
     12 O2         12.6599   -9.4717   -1.4340 O.2     1  NONAME1    -0.2695
     13 C10        13.5187   -7.6542   -0.2381 C.ar    1  NONAME1     0.1166
     14 S1         12.0992   -6.6938   -0.1826 S.2     1  NONAME1     0.0415
     15 N2         12.9406   -5.2950    0.2017 N.ar    1  NONAME1    -0.1096
     16 N3         14.2485   -5.4795    0.2680 N.ar    1  NONAME1    -0.1457
     17 C11        14.5827   -6.7948    0.0000 C.ar    1  NONAME1     0.0813
     18 C12        16.0473   -7.2707    0.0000 C.3     1  NONAME1    -0.0193
     19 C13        15.6779  -12.1362    0.1804 C.2     1  NONAME1     0.2375
     20 O3         15.5221  -13.2539    0.6659 O.2     1  NONAME1    -0.2734
     21 N4         16.9187  -11.5449   -0.0255 N.am    1  NONAME1    -0.2839
     22 C14        18.1791  -12.1950    0.0608 C.ar    1  NONAME1     0.0348
     23 C15        19.3296  -11.4014   -0.0334 C.ar    1  NONAME1    -0.0404
     24 C16        20.6070  -11.9805   -0.0070 C.ar    1  NONAME1    -0.0586
     25 C17        20.7468  -13.3628    0.0953 C.ar    1  NONAME1    -0.0433
     26 C18        19.6082  -14.1578    0.1800 C.ar    1  NONAME1     0.0427
     27 Cl1        19.7764  -15.8698    0.2693 Cl      1  NONAME1    -0.0835
     28 C19        18.3333  -13.5834    0.1707 C.ar    1  NONAME1    -0.0221
     29 H1         11.8464  -18.5069   -0.8121 H       1  NONAME1     0.0306
     30 H2         13.1220  -18.3702   -2.1072 H       1  NONAME1     0.0306
     31 H3         11.9078  -17.0284   -1.8114 H       1  NONAME1     0.0306
     32 H4         13.0514  -15.1248    0.1394 H       1  NONAME1     0.0341
     33 H5         11.5725  -14.8838   -0.8336 H       1  NONAME1     0.0341
     34 H6         10.2844  -14.8999    1.4031 H       1  NONAME1     0.0269
     35 H7         11.8359  -14.7992    2.2122 H       1  NONAME1     0.0269
     36 H8         10.6755  -12.6399    2.0065 H       1  NONAME1     0.0265
     37 H9         10.6502  -12.7467    0.2579 H       1  NONAME1     0.0265
     38 H10        13.2864  -12.7353    1.8212 H       1  NONAME1     0.0266
     39 H11        12.4093  -11.2468    1.4978 H       1  NONAME1     0.0266
     40 H12        12.4141  -11.7549   -0.9571 H       1  NONAME1     0.0288
     41 H13        13.3860  -13.1586   -0.6711 H       1  NONAME1     0.0288
     42 H14        14.6955  -11.2839   -1.4874 H       1  NONAME1     0.0595
     43 H15        14.8292   -9.6243    0.8627 H       1  NONAME1     0.1498
     44 H16        16.0884   -7.3928    1.1037 H       1  NONAME1     0.0293
     45 H17        17.5119   -7.7466    0.0000 H       1  NONAME1     0.0293
     46 H18        16.4658   -6.2760   -0.2623 H       1  NONAME1     0.0293
     47 H19        16.9261  -10.5703   -0.2936 H       1  NONAME1     0.1549
     48 H20        19.2592  -10.3217   -0.1219 H       1  NONAME1     0.0636
     49 H21        21.4914  -11.3536   -0.0739 H       1  NONAME1     0.0619
     50 H22        21.7351  -13.8118    0.1026 H       1  NONAME1     0.0632
     51 H23        17.4795  -14.2517    0.2175 H       1  NONAME1     0.0651
@<TRIPOS>BOND
     1     1     2    1
     2     2     3    2
     3     2     4    1
     4     4     5    1
     5     5     6    1
     6     6     7    1
     7     7     8    1
     8     9     8    1
     9     9    10    1
    10    10    11   am
    11    11    12    2
    12    11    13    1
    13    13    14   ar
    14    14    15   ar
    15    15    16   ar
    16    16    17   ar
    17    13    17   ar
    18    17    18    1
    19     9    19    1
    20    19    20    2
    21    19    21   am
    22    21    22    1
    23    22    23   ar
    24    23    24   ar
    25    24    25   ar
    26    25    26   ar
    27    26    27    1
    28    26    28   ar
    29    22    28   ar
    30     1    29    1
    31     1    30    1
    32     1    31    1
    33     4    32    1
    34     4    33    1
    35     5    34    1
    36     5    35    1
    37     6    36    1
    38     6    37    1
    39     7    38    1
    40     7    39    1
    41     8    40    1
    42     8    41    1
    43     9    42    1
    44    10    43    1
    45    18    44    1
    46    18    45    1
    47    18    46    1
    48    21    47    1
    49    23    48    1
    50    24    49    1
    51    25    50    1
    52    28    51    1
