@<TRIPOS>MOLECULE
*****
 42 43 0 0 0
SMALL
USER_CHARGES

@<TRIPOS>ATOM
      1 C1         -4.7977   -2.4717    0.1622 C.3     1  NONAME1    -0.0652
      2 C2         -4.0679   -1.6899    1.2443 C.3     1  NONAME1    -0.0544
      3 C3         -2.5486   -1.8934    1.2425 C.3     1  NONAME1    -0.0324
      4 C4         -1.8596   -1.3028    0.0000 C.3     1  NONAME1     0.0820
      5 S1         -0.3196   -1.3028    0.0000 S.O2    1  NONAME1     0.0324
      6 O1         -0.3348   -0.1424    0.9122 O.2     1  NONAME1    -0.1580
      7 O2         -0.3170   -1.0817   -1.4598 O.2     1  NONAME1    -0.1580
      8 N1          1.2204   -1.3028    0.0000 N.3     1  NONAME1    -0.1725
      9 C5          2.1090   -0.1357   -0.2217 C.3     1  NONAME1     0.0458
     10 C6          3.4971   -0.7281   -0.2143 C.ar    1  NONAME1    -0.0272
     11 C7          4.7214   -0.0877   -0.1989 C.ar    1  NONAME1    -0.0564
     12 C8          5.8839   -0.8728   -0.1587 C.ar    1  NONAME1    -0.0543
     13 C9          5.8331   -2.2867   -0.1398 C.ar    1  NONAME1    -0.0246
     14 C10         7.1142   -3.0268   -0.0744 C.2     1  NONAME1    -0.0496
     15 C11         7.2744   -4.3621   -0.0852 C.2     1  NONAME1     0.0027
     16 C12         8.6352   -4.9729    0.0049 C.2     1  NONAME1     0.2593
     17 O3          9.6485   -4.3096    0.1967 O.2     1  NONAME1    -0.2687
     18 N2          8.6100   -6.3381   -0.1494 N.am    1  NONAME1    -0.1940
     19 O4          9.8529   -6.9777   -0.3394 O.3     1  NONAME1    -0.2949
     20 C13         4.5741   -2.9089   -0.1651 C.ar    1  NONAME1    -0.0498
     21 C14         3.4259   -2.1216   -0.2002 C.ar    1  NONAME1    -0.0267
     22 C15         1.9894   -2.5489   -0.2113 C.3     1  NONAME1     0.0458
     23 H1         -4.4593   -2.1957   -0.8403 H       1  NONAME1     0.0230
     24 H2         -4.6526   -3.5487    0.2930 H       1  NONAME1     0.0230
     25 H3         -5.8723   -2.2676    0.2143 H       1  NONAME1     0.0230
     26 H4         -4.4605   -2.0022    2.2192 H       1  NONAME1     0.0263
     27 H5         -4.2970   -0.6231    1.1394 H       1  NONAME1     0.0263
     28 H6         -2.3190   -2.9645    1.3161 H       1  NONAME1     0.0281
     29 H7         -2.1483   -1.4313    2.1533 H       1  NONAME1     0.0281
     30 H8         -2.2237   -1.9329   -0.8257 H       1  NONAME1     0.0515
     31 H9         -2.2896   -0.3103   -0.2053 H       1  NONAME1     0.0515
     32 H10         1.9139    0.3374   -1.1896 H       1  NONAME1     0.0493
     33 H11         2.0243    0.5891    0.5947 H       1  NONAME1     0.0493
     34 H12         4.7890    0.9962   -0.2019 H       1  NONAME1     0.0621
     35 H13         6.8458   -0.3618   -0.1362 H       1  NONAME1     0.0624
     36 H14         8.0070   -2.4019   -0.0106 H       1  NONAME1     0.0625
     37 H15         6.4366   -5.0422   -0.1461 H       1  NONAME1     0.0670
     38 H16         7.8068   -6.8380   -0.5100 H       1  NONAME1     0.1825
     39 H17        10.2782   -6.8718    0.5335 H       1  NONAME1     0.2414
     40 H18         4.4714   -3.9879   -0.1433 H       1  NONAME1     0.0627
     41 H19         1.7984   -3.2446    0.6122 H       1  NONAME1     0.0493
     42 H20         1.7409   -3.0083   -1.1725 H       1  NONAME1     0.0493
@<TRIPOS>BOND
     1     1     2    1
     2     2     3    1
     3     3     4    1
     4     4     5    1
     5     5     6    2
     6     5     7    2
     7     5     8    1
     8     8     9    1
     9     9    10    1
    10    10    11   ar
    11    11    12   ar
    12    12    13   ar
    13    13    14    1
    14    14    15    2
    15    15    16    1
    16    16    17    2
    17    16    18   am
    18    18    19    1
    19    13    20   ar
    20    20    21   ar
    21    10    21   ar
    22    21    22    1
    23     8    22    1
    24     1    23    1
    25     1    24    1
    26     1    25    1
    27     2    26    1
    28     2    27    1
    29     3    28    1
    30     3    29    1
    31     4    30    1
    32     4    31    1
    33     9    32    1
    34     9    33    1
    35    11    34    1
    36    12    35    1
    37    14    36    1
    38    15    37    1
    39    18    38    1
    40    19    39    1
    41    20    40    1
    42    22    41    1
    43    22    42    1
