REMARK  10 active torsions:
REMARK  status: ('A' for Active; 'I' for Inactive)
REMARK    1  A    between atoms: C1_2  and  C2_3 
REMARK       I    between atoms: C1_2  and  N5_28 
REMARK    2  A    between atoms: C2_3  and  C3_4 
REMARK    3  A    between atoms: C3_4  and  C4_5 
REMARK    4  A    between atoms: C4_5  and  C5_6 
REMARK    5  A    between atoms: C5_6  and  C6_7 
REMARK    6  A    between atoms: C6_7  and  N1_8 
REMARK       I    between atoms: N1_8  and  C7_9 
REMARK       I    between atoms: C7_9  and  N2_11 
REMARK       I    between atoms: N2_11  and  C8_12 
REMARK    7  A    between atoms: C8_12  and  C9_14 
REMARK    8  A    between atoms: C12_17  and  N3_18 
REMARK    9  A    between atoms: C17_23  and  N4_24 
REMARK   10  A    between atoms: N5_28  and  O6_29 
ROOT
ATOM      1  N1  NON d   1       4.859  -1.669  -0.035  0.00  0.00    -0.343 N 
ATOM      2  C7  NON d   1       3.687  -2.406  -0.158  0.00  0.00     0.323 C 
ATOM      3  O2  NON d   1       3.701  -3.606  -0.405  0.00  0.00    -0.247 OA
ATOM      4  N2  NON d   1       2.562  -1.622  -0.008  0.00  0.00    -0.275 N 
ATOM      5  C8  NON d   1       1.307  -2.185   0.168  0.00  0.00     0.259 C 
ATOM      6  O3  NON d   1       1.110  -3.353   0.494  0.00  0.00    -0.267 OA
ATOM      7  H11 NON d   1       4.798  -0.871   0.583  0.00  0.00     0.164 HD
ATOM      8  H12 NON d   1       2.656  -0.668  -0.299  0.00  0.00     0.173 HD
ENDROOT
BRANCH   5   9
ATOM      9  C9  NON d   1       0.101  -1.308   0.042  0.00  0.00     0.035 A 
ATOM     10  C10 NON d   1      -1.138  -1.941  -0.063  0.00  0.00     0.019 A 
ATOM     11  C11 NON d   1      -2.336  -1.211  -0.106  0.00  0.00     0.033 A 
ATOM     12  C12 NON d   1      -2.398   0.197  -0.038  0.00  0.00     0.063 A 
ATOM     13  C17 NON d   1      -1.120   0.801   0.047  0.00  0.00     0.130 A 
ATOM     14  C18 NON d   1       0.110   0.081   0.086  0.00  0.00     0.055 A 
BRANCH  12  15
ATOM     15  N3  NON d   1      -3.637   0.811  -0.078  0.00  0.00    -0.379 N 
ATOM     16  C13 NON d   1      -4.889   0.040   0.018  0.00  0.00     0.123 C 
ATOM     17  C14 NON d   1      -5.999   1.068   0.205  0.00  0.00     0.021 C 
ATOM     18  C15 NON d   1      -5.413   2.345  -0.359  0.00  0.00     0.021 C 
ATOM     19  C16 NON d   1      -3.930   2.244  -0.013  0.00  0.00     0.123 C 
ENDBRANCH  12  15
BRANCH  13  20
ATOM     20  N4  NON d   1      -0.951   2.237   0.118  0.00  0.00    -0.113 N 
ATOM     21  O4  NON d   1      -0.463   2.789  -0.879  0.00  0.00    -0.532 OA
ATOM     22  O5  NON d   1      -1.205   2.791   1.196  0.00  0.00    -0.532 OA
ENDBRANCH  13  20
ENDBRANCH   5   9
BRANCH   1  23
ATOM     23  C6  NON d   1       6.106  -2.418   0.021  0.00  0.00     0.124 C 
BRANCH  23  24
ATOM     24  C5  NON d   1       7.341  -1.565  -0.248  0.00  0.00     0.020 C 
BRANCH  24  25
ATOM     25  C4  NON d   1       8.667  -2.327  -0.068  0.00  0.00     0.002 C 
BRANCH  25  26
ATOM     26  C3  NON d   1       9.146  -3.149  -1.276  0.00  0.00     0.009 C 
BRANCH  26  27
ATOM     27  C2  NON d   1       8.396  -4.463  -1.481  0.00  0.00     0.105 C 
BRANCH  27  28
ATOM     28  C1  NON d   1       8.962  -5.333  -2.590  0.00  0.00     0.240 C 
ATOM     29  O1  NON d   1       9.920  -5.015  -3.287  0.00  0.00    -0.271 OA
ATOM     30  N5  NON d   1       8.221  -6.492  -2.744  0.00  0.00    -0.237 N 
ATOM     31  H24 NON d   1       7.702  -6.869  -1.957  0.00  0.00     0.197 HD
BRANCH  30  32
ATOM     32  O6  NON d   1       8.761  -7.454  -3.625  0.00  0.00    -0.287 OA
ATOM     33  H25 NON d   1       8.361  -7.192  -4.476  0.00  0.00     0.244 HD
ENDBRANCH  30  32
ENDBRANCH  27  28
ENDBRANCH  26  27
ENDBRANCH  25  26
ENDBRANCH  24  25
ENDBRANCH  23  24
ENDBRANCH   1  23
TORSDOF 10
