REMARK  11 active torsions:
REMARK  status: ('A' for Active; 'I' for Inactive)
REMARK    1  A    between atoms: N1_1  and  C1_2 
REMARK    2  A    between atoms: C4_5  and  C5_6 
REMARK    3  A    between atoms: C10_12  and  N2_13 
REMARK       I    between atoms: N2_13  and  C11_14 
REMARK    4  A    between atoms: C11_14  and  C12_16 
REMARK    5  A    between atoms: C15_19  and  C16_20 
REMARK    6  A    between atoms: C16_20  and  N3_21 
REMARK    7  A    between atoms: N3_21  and  C17_22 
REMARK    8  A    between atoms: N3_21  and  C19_25 
REMARK    9  A    between atoms: C17_22  and  C18_23 
REMARK   10  A    between atoms: C18_23  and  O2_24 
REMARK   11  A    between atoms: C19_25  and  C20_26 
ROOT
ATOM      1  C12 NON d   1      14.152   2.092  -0.222  0.00  0.00     0.032 A 
ATOM      2  C13 NON d   1      12.947   1.480  -0.613  0.00  0.00     0.017 A 
ATOM      3  C14 NON d   1      11.724   2.167  -0.622  0.00  0.00     0.010 A 
ATOM      4  C15 NON d   1      11.637   3.490  -0.186  0.00  0.00    -0.033 A 
ATOM      5  C27 NON d   1      12.855   4.114   0.174  0.00  0.00     0.010 A 
ATOM      6  C28 NON d   1      14.094   3.436   0.159  0.00  0.00     0.017 A 
ENDROOT
BRANCH   1   7
ATOM      7  C11 NON d   1      15.384   1.235  -0.242  0.00  0.00     0.256 C 
ATOM      8  N2  NON d   1      16.623   1.834  -0.079  0.00  0.00    -0.321 N 
ATOM      9  H9  NON d   1      16.692   2.833   0.065  0.00  0.00     0.169 HD
ATOM     10  O1  NON d   1      15.198   0.034  -0.425  0.00  0.00    -0.267 OA
BRANCH   8  11
ATOM     11  C10 NON d   1      17.890   1.175  -0.055  0.00  0.00     0.057 A 
ATOM     12  C9  NON d   1      18.041  -0.222  -0.060  0.00  0.00     0.044 A 
ATOM     13  C4  NON d   1      19.300  -0.852   0.028  0.00  0.00    -0.017 A 
ATOM     14  C3  NON d   1      20.423  -0.022   0.146  0.00  0.00     0.014 A 
ATOM     15  C2  NON d   1      20.298   1.372   0.149  0.00  0.00     0.026 A 
ATOM     16  C1  NON d   1      19.045   1.980   0.003  0.00  0.00     0.033 A 
BRANCH  13  17
ATOM     17  C5  NON d   1      19.459  -2.333   0.009  0.00  0.00     0.015 A 
ATOM     18  C6  NON d   1      20.622  -3.093  -0.011  0.00  0.00     0.020 A 
ATOM     19  C7  NON d   1      20.386  -4.500  -0.025  0.00  0.00     0.008 A 
ATOM     20  C8  NON d   1      19.045  -4.794  -0.019  0.00  0.00     0.050 A 
ATOM     21  S1  NON d   1      18.089  -3.386   0.008  0.00  0.00    -0.101 SA
ENDBRANCH  13  17
BRANCH  16  22
ATOM     22  N1  NON d   1      18.956   3.392  -0.006  0.00  0.00    -0.301 NA
ATOM     23  H1  NON d   1      19.870   3.835  -0.057  0.00  0.00     0.124 HD
ATOM     24  H2  NON d   1      18.376   3.705  -0.782  0.00  0.00     0.124 HD
ENDBRANCH  16  22
ENDBRANCH   8  11
ENDBRANCH   1   7
BRANCH   4  25
ATOM     25  C16 NON d   1      10.361   4.310  -0.149  0.00  0.00     0.273 C 
BRANCH  25  26
ATOM     26  N3  NON d   1       8.964   3.709   0.092  0.00  0.00    -0.061 N 
ATOM     27  H14 NON d   1       8.381   4.553   0.123  0.00  0.00     0.280 HD
BRANCH  26  28
ATOM     28  C17 NON d   1       8.740   3.142   1.486  0.00  0.00     0.261 C 
BRANCH  28  29
ATOM     29  C18 NON d   1       9.415   1.794   1.751  0.00  0.00     0.192 C 
BRANCH  29  30
ATOM     30  O2  NON d   1      10.724   2.021   2.249  0.00  0.00    -0.399 OA
ATOM     31  H19 NON d   1      11.227   1.185   2.191  0.00  0.00     0.209 HD
ENDBRANCH  29  30
ENDBRANCH  28  29
ENDBRANCH  26  28
BRANCH  26  32
ATOM     32  C19 NON d   1       8.373   2.982  -1.099  0.00  0.00     0.274 C 
BRANCH  32  33
ATOM     33  C20 NON d   1       6.909   2.590  -1.050  0.00  0.00    -0.030 A 
ATOM     34  C21 NON d   1       6.462   1.528  -0.223  0.00  0.00     0.012 A 
ATOM     35  C22 NON d   1       5.143   1.060  -0.268  0.00  0.00     0.040 A 
ATOM     36  C23 NON d   1       4.292   1.627  -1.186  0.00  0.00     0.105 A 
ATOM     37  C24 NON d   1       4.702   2.649  -2.005  0.00  0.00     0.105 A 
ATOM     38  O4  NON d   1       3.014   1.244  -1.425  0.00  0.00    -0.323 OA
ATOM     39  C25 NON d   1       5.987   3.165  -1.949  0.00  0.00     0.048 A 
ATOM     40  O3  NON d   1       3.727   3.030  -2.873  0.00  0.00    -0.323 OA
ATOM     41  C26 NON d   1       2.689   2.071  -2.562  0.00  0.00     0.352 A 
ENDBRANCH  32  33
ENDBRANCH  26  32
ENDBRANCH  25  26
ENDBRANCH   4  25
TORSDOF 11
