REMARK  6 active torsions:
REMARK  status: ('A' for Active; 'I' for Inactive)
REMARK    1  A    between atoms: N1_1  and  C1_2 
REMARK    2  A    between atoms: C4_5  and  C5_6 
REMARK    3  A    between atoms: C10_12  and  N2_13 
REMARK       I    between atoms: N2_13  and  C11_14 
REMARK    4  A    between atoms: C11_14  and  C12_16 
REMARK    5  A    between atoms: C15_19  and  C16_20 
REMARK    6  A    between atoms: C16_20  and  N3_21 
ROOT
ATOM      1  C12 non d   1       9.300   4.771   0.000  0.00  0.00     0.018 A 
ATOM      2  C13 non d   1      10.070   3.437   0.000  0.00  0.00     0.016 A 
ATOM      3  C14 non d   1       9.300   2.104   0.000  0.00  0.00     0.010 A 
ATOM      4  C15 non d   1       7.760   2.104   0.000  0.00  0.00    -0.041 A 
ATOM      5  C25 non d   1       6.990   3.437   0.000  0.00  0.00     0.010 A 
ATOM      6  C26 non d   1       7.760   4.771   0.000  0.00  0.00     0.016 A 
ENDROOT
BRANCH   1   7
ATOM      7  C11 non d   1      10.070   6.105   0.000  0.00  0.00     0.189 C 
ATOM      8  N2  non d   1       9.300   7.438   0.000  0.00  0.00    -0.332 N 
ATOM      9  H9  non d   1       7.760   7.438   0.000  0.00  0.00     0.168 HD
ATOM     10  O1  non d   1      11.610   6.105   0.000  0.00  0.00    -0.171 OA
BRANCH   8  11
ATOM     11  C10 non d   1      10.070   8.772   0.000  0.00  0.00     0.061 A 
ATOM     12  C9  non d   1      11.610   8.772   0.000  0.00  0.00     0.044 A 
ATOM     13  C4  non d   1      12.380  10.106   0.000  0.00  0.00    -0.017 A 
ATOM     14  C3  non d   1      11.610  11.439   0.000  0.00  0.00     0.015 A 
ATOM     15  C2  non d   1      10.070  11.439   0.000  0.00  0.00     0.032 A 
ATOM     16  C1  non d   1       9.300  10.106   0.000  0.00  0.00     0.052 A 
BRANCH  13  17
ATOM     17  C5  non d   1      13.920  10.106   0.000  0.00  0.00     0.015 A 
ATOM     18  C6  non d   1      14.825  11.352   0.000  0.00  0.00     0.020 A 
ATOM     19  C7  non d   1      16.290  10.876   0.000  0.00  0.00     0.008 A 
ATOM     20  C8  non d   1      16.290   9.336   0.000  0.00  0.00     0.050 A 
ATOM     21  S1  non d   1      14.825   8.860   0.000  0.00  0.00    -0.101 SA
ENDBRANCH  13  17
BRANCH  16  22
ATOM     22  N1  non d   1       7.760  10.106   0.000  0.00  0.00    -0.397 N 
ATOM     23  H1  non d   1       6.990  11.439   0.000  0.00  0.00     0.156 HD
ATOM     24  H2  non d   1       6.990   8.772   0.000  0.00  0.00     0.156 HD
ENDBRANCH  16  22
ENDBRANCH   8  11
ENDBRANCH   1   7
BRANCH   4  25
ATOM     25  C16 non d   1       6.990   0.770   0.000  0.00  0.00     0.155 C 
BRANCH  25  26
ATOM     26  N3  non d   1       5.450   0.770   0.000  0.00  0.00    -0.408 N 
ATOM     27  C17 non d   1       4.680  -0.564   0.000  0.00  0.00     0.119 A 
ATOM     28  C18 non d   1       3.140  -0.564   0.000  0.00  0.00     0.058 A 
ATOM     29  C19 non d   1       2.370   0.770   0.000  0.00  0.00     0.129 A 
ATOM     30  C20 non d   1       1.465  -0.476   0.000  0.00  0.00     0.040 A 
ATOM     31  N4  non d   1       1.465   2.016   0.000  0.00  0.00    -0.066 N 
ATOM     32  C23 non d   1       3.140   2.104   0.000  0.00  0.00     0.058 A 
ATOM     33  C21 non d   1       0.000  -0.000   0.000  0.00  0.00     0.030 A 
ATOM     34  C22 non d   1      -0.000   1.540   0.000  0.00  0.00     0.233 A 
ATOM     35  H24 non d   1       1.160   3.526   0.000  0.00  0.00     0.278 HD
ATOM     36  H25 non d   1       2.598   3.058   0.000  0.00  0.00     0.278 HD
ATOM     37  C24 non d   1       4.680   2.104   0.000  0.00  0.00     0.119 A 
ENDBRANCH  25  26
ENDBRANCH   4  25
TORSDOF 6
