@<TRIPOS>MOLECULE
*****
 40 40 0 0 0
SMALL
USER_CHARGES

@<TRIPOS>ATOM
      1 O1         10.8262   -1.4041    1.1070 O.2     1  NONAME1    -0.2737
      2 C1         11.2562   -1.4861   -0.0384 C.2     1  NONAME1     0.2354
      3 C2         10.6991   -0.6875   -1.2095 C.3     1  NONAME1     0.0259
      4 C3          9.4269    0.1250   -0.9398 C.3     1  NONAME1    -0.0447
      5 C4          8.1121   -0.6490   -1.1425 C.3     1  NONAME1    -0.0512
      6 C5          7.6902   -1.4586    0.0845 C.3     1  NONAME1    -0.0373
      7 C6          6.4655   -2.3390   -0.1618 C.3     1  NONAME1     0.0131
      8 N1          5.1933   -1.6312   -0.1410 N.am    1  NONAME1    -0.2991
      9 C7          4.0592   -2.3904   -0.4180 C.2     1  NONAME1     0.3061
     10 O2          4.1190   -3.5077   -0.9102 O.2     1  NONAME1    -0.2524
     11 N2          2.8998   -1.7011   -0.1310 N.am    1  NONAME1    -0.2362
     12 C8          1.6818   -2.3369    0.0463 C.2     1  NONAME1     0.2514
     13 O3          1.5698   -3.5254    0.3464 O.2     1  NONAME1    -0.2697
     14 C9          0.4340   -1.5164   -0.0262 C.ar    1  NONAME1     0.0372
     15 C10        -0.7930   -2.2054   -0.0558 C.ar    1  NONAME1    -0.0486
     16 C11        -2.0098   -1.5169   -0.0722 C.ar    1  NONAME1    -0.0479
     17 C12        -2.0100   -0.1256   -0.0597 C.ar    1  NONAME1     0.0134
     18 I1         -3.8138    0.9066   -0.0542 I       1  NONAME1    -0.0438
     19 C13        -0.8038    0.5768   -0.0373 C.ar    1  NONAME1    -0.0479
     20 C14         0.4165   -0.1152   -0.0192 C.ar    1  NONAME1    -0.0486
     21 N3         12.3447   -2.2555   -0.4271 N.am    1  NONAME1    -0.1975
     22 O4         12.7766   -3.2149    0.5121 O.3     1  NONAME1    -0.2952
     23 H1         11.4942    0.0167   -1.4911 H       1  NONAME1     0.0359
     24 H2         10.5456   -1.3612   -2.0602 H       1  NONAME1     0.0359
     25 H3          9.4214    0.9466   -1.6682 H       1  NONAME1     0.0270
     26 H4          9.4528    0.5896    0.0518 H       1  NONAME1     0.0270
     27 H5          8.1974   -1.3023   -2.0191 H       1  NONAME1     0.0266
     28 H6          7.3187    0.0742   -1.3693 H       1  NONAME1     0.0266
     29 H7          7.5107   -0.7842    0.9306 H       1  NONAME1     0.0280
     30 H8          8.5106   -2.1244    0.3661 H       1  NONAME1     0.0280
     31 H9          6.5604   -2.8764   -1.1125 H       1  NONAME1     0.0462
     32 H10         6.4103   -3.0931    0.6330 H       1  NONAME1     0.0462
     33 H11         5.0714   -0.9949    0.6343 H       1  NONAME1     0.1502
     34 H12         2.9417   -0.7193   -0.3298 H       1  NONAME1     0.1594
     35 H13        -0.8073   -3.2951   -0.0562 H       1  NONAME1     0.0625
     36 H14        -2.9379   -2.0819   -0.0860 H       1  NONAME1     0.0628
     37 H15        -0.8004    1.6641   -0.0213 H       1  NONAME1     0.0628
     38 H16         1.3253    0.4750    0.0266 H       1  NONAME1     0.0625
     39 H17        12.4308   -2.5362   -1.3974 H       1  NONAME1     0.1822
     40 H18        13.5366   -2.7699    0.9304 H       1  NONAME1     0.2414
@<TRIPOS>BOND
     1     1     2    2
     2     2     3    1
     3     3     4    1
     4     4     5    1
     5     5     6    1
     6     6     7    1
     7     7     8    1
     8     8     9   am
     9     9    10    2
    10     9    11   am
    11    11    12   am
    12    12    13    2
    13    12    14    1
    14    14    15   ar
    15    15    16   ar
    16    16    17   ar
    17    17    18    1
    18    17    19   ar
    19    19    20   ar
    20    14    20   ar
    21     2    21   am
    22    21    22    1
    23     3    23    1
    24     3    24    1
    25     4    25    1
    26     4    26    1
    27     5    27    1
    28     5    28    1
    29     6    29    1
    30     6    30    1
    31     7    31    1
    32     7    32    1
    33     8    33    1
    34    11    34    1
    35    15    35    1
    36    16    36    1
    37    19    37    1
    38    20    38    1
    39    21    39    1
    40    22    40    1
