@<TRIPOS>MOLECULE
*****
 41 42 0 0 0
SMALL
USER_CHARGES

@<TRIPOS>ATOM
      1 O1          5.4284  -16.0877    0.3005 O.2     1  NONAME1    -0.2754
      2 C1          5.6978  -14.9252    0.0136 C.2     1  NONAME1     0.2186
      3 C2          4.5888  -13.8941   -0.1786 C.3     1  NONAME1     0.0243
      4 C3          3.1803  -14.4874    0.0064 C.3     1  NONAME1    -0.0448
      5 C4          2.7270  -15.3214   -1.1996 C.3     1  NONAME1    -0.0526
      6 C5          1.5035  -16.2094   -0.9359 C.3     1  NONAME1    -0.0523
      7 C6          0.1339  -15.5439   -1.1137 C.3     1  NONAME1    -0.0442
      8 C7         -0.2699  -14.6338    0.0405 C.3     1  NONAME1    -0.0093
      9 S1         -2.0399  -14.2198   -0.0609 S.3     1  NONAME1    -0.1783
     10 N1          6.9611  -14.3880   -0.1575 N.am    1  NONAME1    -0.2647
     11 C8          8.1525  -15.0802   -0.0945 C.ar    1  NONAME1     0.1649
     12 N2          9.3257  -14.4838   -0.1576 N.ar    1  NONAME1    -0.2246
     13 C9         10.3513  -15.4329   -0.0748 C.ar    1  NONAME1     0.0802
     14 C10        11.7755  -15.0732   -0.0872 C.ar    1  NONAME1     0.0009
     15 C11        12.1714  -13.7304   -0.0028 C.ar    1  NONAME1    -0.0525
     16 C12        13.5272  -13.3797    0.0151 C.ar    1  NONAME1    -0.0611
     17 C13        14.5101  -14.3652   -0.0542 C.ar    1  NONAME1    -0.0617
     18 C14        14.1398  -15.7012   -0.1484 C.ar    1  NONAME1    -0.0611
     19 C15        12.7850  -16.0508   -0.1677 C.ar    1  NONAME1    -0.0525
     20 C16         9.8998  -16.7343    0.0398 C.ar    1  NONAME1     0.0049
     21 S2          8.1970  -16.7791    0.0290 S.2     1  NONAME1    -0.0599
     22 H1          4.7388  -13.1100    0.5733 H       1  NONAME1     0.0358
     23 H2          4.6835  -13.4399   -1.1713 H       1  NONAME1     0.0358
     24 H3          2.4797  -13.6606    0.1552 H       1  NONAME1     0.0270
     25 H4          3.1516  -15.0977    0.9173 H       1  NONAME1     0.0270
     26 H5          3.5457  -15.9888   -1.4948 H       1  NONAME1     0.0265
     27 H6          2.5434  -14.6662   -2.0591 H       1  NONAME1     0.0265
     28 H7          1.5729  -16.6823    0.0509 H       1  NONAME1     0.0266
     29 H8          1.5448  -17.0299   -1.6654 H       1  NONAME1     0.0266
     30 H9          0.1115  -14.9889   -2.0599 H       1  NONAME1     0.0273
     31 H10        -0.6026  -16.3535   -1.2088 H       1  NONAME1     0.0273
     32 H11        -0.0910  -15.1165    1.0059 H       1  NONAME1     0.0374
     33 H12         0.2899  -13.6968    0.0121 H       1  NONAME1     0.0374
     34 H13        -2.0439  -13.8423   -1.3477 H       1  NONAME1     0.1016
     35 H14         7.0770  -13.3924   -0.2831 H       1  NONAME1     0.1567
     36 H15        11.4225  -12.9430    0.0562 H       1  NONAME1     0.0624
     37 H16        13.8176  -12.3347    0.0841 H       1  NONAME1     0.0618
     38 H17        15.5635  -14.0952   -0.0350 H       1  NONAME1     0.0618
     39 H18        14.8986  -16.4784   -0.2032 H       1  NONAME1     0.0618
     40 H19        12.5462  -17.1070   -0.2497 H       1  NONAME1     0.0624
     41 H20        10.4543  -17.6544    0.1326 H       1  NONAME1     0.0716
@<TRIPOS>BOND
     1     1     2    2
     2     2     3    1
     3     3     4    1
     4     4     5    1
     5     5     6    1
     6     6     7    1
     7     7     8    1
     8     8     9    1
     9     2    10   am
    10    10    11    1
    11    11    12   ar
    12    12    13   ar
    13    13    14    1
    14    14    15   ar
    15    15    16   ar
    16    16    17   ar
    17    17    18   ar
    18    18    19   ar
    19    14    19   ar
    20    13    20   ar
    21    20    21   ar
    22    11    21   ar
    23     3    22    1
    24     3    23    1
    25     4    24    1
    26     4    25    1
    27     5    26    1
    28     5    27    1
    29     6    28    1
    30     6    29    1
    31     7    30    1
    32     7    31    1
    33     8    32    1
    34     8    33    1
    35     9    34    1
    36    10    35    1
    37    15    36    1
    38    16    37    1
    39    17    38    1
    40    18    39    1
    41    19    40    1
    42    20    41    1
