REMARK  11 active torsions:
REMARK  status: ('A' for Active; 'I' for Inactive)
REMARK    1  A    between atoms: C2_2  and  C3_4 
REMARK    2  A    between atoms: C3_4  and  C4_5 
REMARK    3  A    between atoms: C4_5  and  C5_6 
REMARK    4  A    between atoms: C5_6  and  C6_7 
REMARK    5  A    between atoms: C6_7  and  C7_8 
REMARK    6  A    between atoms: C8_9  and  C7_8 
REMARK    7  A    between atoms: C8_9  and  N1_10 
REMARK    8  A    between atoms: C8_9  and  C12_16 
REMARK    9  A    between atoms: N1_10  and  C9_11 
REMARK       I    between atoms: C12_16  and  N3_18 
REMARK   10  A    between atoms: N3_18  and  C13_19 
REMARK   11  A    between atoms: C17_23  and  C18_24 
ROOT
ATOM      1  C8  NON d   1      17.338 -14.630   0.000  0.00  0.00     0.174 C 
ENDROOT
BRANCH   1   2
ATOM      2  C7  NON d   1      16.352 -13.652  -0.838  0.00  0.00     0.035 C 
BRANCH   2   3
ATOM      3  C6  NON d   1      16.194 -12.205  -0.378  0.00  0.00     0.002 C 
BRANCH   3   4
ATOM      4  C5  NON d   1      16.552 -11.287  -1.531  0.00  0.00     0.000 C 
BRANCH   4   5
ATOM      5  C4  NON d   1      17.952 -11.637  -2.013  0.00  0.00     0.007 C 
BRANCH   5   6
ATOM      6  C3  NON d   1      18.394 -10.797  -3.148  0.00  0.00     0.077 C 
BRANCH   6   7
ATOM      7  C2  NON d   1      18.832  -9.459  -2.648  0.00  0.00     0.123 C 
ATOM      8  C1  NON d   1      19.484  -8.686  -3.810  0.00  0.00     0.091 C 
ATOM      9  O1  NON d   1      18.723  -9.020  -1.512  0.00  0.00    -0.298 OA
ENDBRANCH   6   7
ENDBRANCH   5   6
ENDBRANCH   4   5
ENDBRANCH   3   4
ENDBRANCH   2   3
ENDBRANCH   1   2
BRANCH   1  10
ATOM     10  N1  NON d   1      17.780 -15.812  -0.926  0.00  0.00    -0.370 N 
ATOM     11  H15 NON d   1      17.107 -16.020  -1.664  0.00  0.00     0.161 HD
BRANCH  10  12
ATOM     12  C9  NON d   1      18.444 -16.882  -0.391  0.00  0.00     0.089 A 
ATOM     13  C10 NON d   1      19.214 -16.988   0.758  0.00  0.00     0.153 A 
ATOM     14  N2  NON d   1      19.882 -18.184   0.941  0.00  0.00    -0.263 NA
ATOM     15  C11 NON d   1      19.597 -18.990  -0.056  0.00  0.00     0.167 A 
ATOM     16  S1  NON d   1      18.521 -18.377  -1.240  0.00  0.00    -0.064 SA
ENDBRANCH  10  12
ENDBRANCH   1  10
BRANCH   1  17
ATOM     17  C12 NON d   1      18.672 -13.860   0.000  0.00  0.00     0.244 C 
ATOM     18  O2  NON d   1      18.773 -13.063   0.952  0.00  0.00    -0.271 OA
ATOM     19  N3  NON d   1      19.768 -14.135  -0.801  0.00  0.00    -0.325 N 
ATOM     20  H18 NON d   1      19.727 -15.031  -1.271  0.00  0.00     0.169 HD
BRANCH  19  21
ATOM     21  C13 NON d   1      21.052 -13.546  -0.553  0.00  0.00     0.035 A 
ATOM     22  C14 NON d   1      21.171 -12.228  -0.097  0.00  0.00     0.029 A 
ATOM     23  C15 NON d   1      22.402 -11.677   0.229  0.00  0.00     0.003 A 
ATOM     24  C16 NON d   1      23.549 -12.454   0.126  0.00  0.00     0.012 A 
ATOM     25  C17 NON d   1      23.508 -13.780  -0.342  0.00  0.00    -0.024 A 
ATOM     26  C24 NON d   1      22.233 -14.300  -0.716  0.00  0.00     0.042 A 
BRANCH  25  27
ATOM     27  C18 NON d   1      24.766 -14.586  -0.351  0.00  0.00    -0.026 A 
ATOM     28  C19 NON d   1      26.031 -13.972  -0.489  0.00  0.00     0.012 A 
ATOM     29  C20 NON d   1      27.228 -14.689  -0.375  0.00  0.00     0.001 A 
ATOM     30  C21 NON d   1      27.195 -16.058  -0.149  0.00  0.00     0.000 A 
ATOM     31  C22 NON d   1      25.966 -16.702  -0.039  0.00  0.00     0.001 A 
ATOM     32  C23 NON d   1      24.767 -15.975  -0.134  0.00  0.00     0.012 A 
ENDBRANCH  25  27
ENDBRANCH  19  21
ENDBRANCH   1  17
TORSDOF 11
