@<TRIPOS>MOLECULE
*****
 46 47 0 0 0
SMALL
USER_CHARGES

@<TRIPOS>ATOM
      1 C1         -8.4447   -7.2651    2.2613 C.3     1  NONAME1    -0.0558
      2 C2         -7.1218   -8.0085    2.3703 C.3     1  NONAME1    -0.0036
      3 S1         -7.1619   -9.5143    1.3528 S.3     1  NONAME1    -0.1113
      4 C3         -5.4782  -10.0702    1.4444 C.2     1  NONAME1     0.0854
      5 S2         -4.6412  -10.2019    2.8899 S.2     1  NONAME1    -0.0372
      6 S3         -4.8862  -10.5531   -0.1517 S.3     1  NONAME1    -0.1030
      7 C4         -3.4789  -11.6722    0.1598 C.3     1  NONAME1     0.0623
      8 C5         -2.1434  -10.9375    0.2537 C.2     1  NONAME1     0.1732
      9 O1         -2.0616   -9.7172    0.3896 O.2     1  NONAME1    -0.2912
     10 C6         -0.8599  -11.7276    0.1527 C.ar    1  NONAME1     0.0184
     11 C7          0.3433  -11.0128    0.0065 C.ar    1  NONAME1    -0.0494
     12 C8          1.5688  -11.6745   -0.1800 C.ar    1  NONAME1    -0.0344
     13 C9          1.6150  -13.0691   -0.2019 C.ar    1  NONAME1     0.1085
     14 S4          3.1413  -13.8958   -0.6816 S.O2    1  NONAME1     0.0723
     15 O2          2.8483  -15.3138   -0.7597 O.2     1  NONAME1    -0.1500
     16 O3          3.6747  -13.1694   -1.8114 O.2     1  NONAME1    -0.1500
     17 N1          4.1559  -13.7286    0.6787 N.pl3   1  NONAME1    -0.2163
     18 C10         5.4636  -13.1627    0.4615 C.ar    1  NONAME1     0.0483
     19 C11         5.6139  -11.7831    0.3641 C.ar    1  NONAME1    -0.0359
     20 C12         6.8889  -11.2133    0.2045 C.ar    1  NONAME1    -0.0182
     21 C13         8.0354  -12.0157    0.1325 C.ar    1  NONAME1     0.1202
     22 O4          9.3358  -11.5500    0.0000 O.3     1  NONAME1    -0.4951
     23 C14         9.3358  -10.0100    0.0000 C.3     1  NONAME1     0.0788
     24 C15         7.8730  -13.4027    0.1929 C.ar    1  NONAME1    -0.0182
     25 C16         6.5951  -13.9765    0.3511 C.ar    1  NONAME1    -0.0359
     26 C17         0.4261  -13.7968   -0.0278 C.ar    1  NONAME1    -0.0344
     27 C18        -0.8038  -13.1286    0.1520 C.ar    1  NONAME1    -0.0494
     28 H1         -8.6529   -6.9572    1.2311 H       1  NONAME1     0.0238
     29 H2         -9.2815   -7.8751    2.6193 H       1  NONAME1     0.0238
     30 H3         -8.4141   -6.3587    2.8762 H       1  NONAME1     0.0238
     31 H4         -6.9533   -8.2718    3.4189 H       1  NONAME1     0.0377
     32 H5         -6.3080   -7.3575    2.0363 H       1  NONAME1     0.0377
     33 H6         -3.6456  -12.2884    1.0459 H       1  NONAME1     0.0461
     34 H7         -3.4401  -12.3325   -0.7130 H       1  NONAME1     0.0461
     35 H8          0.3300   -9.9227    0.0017 H       1  NONAME1     0.0625
     36 H9          2.4679  -11.0874   -0.3492 H       1  NONAME1     0.0637
     37 H10         4.2090  -14.6539    1.1120 H       1  NONAME1     0.1737
     38 H11         4.7487  -11.1316    0.4324 H       1  NONAME1     0.0638
     39 H12         6.9382  -10.1311    0.1430 H       1  NONAME1     0.0655
     40 H13        10.4037   -9.9484    0.2753 H       1  NONAME1     0.0660
     41 H14         9.3358   -8.4700    0.0000 H       1  NONAME1     0.0660
     42 H15         9.2713   -9.9377   -1.1028 H       1  NONAME1     0.0660
     43 H16         8.7459  -14.0476    0.1210 H       1  NONAME1     0.0655
     44 H17         6.5108  -15.0592    0.3955 H       1  NONAME1     0.0638
     45 H18         0.4357  -14.8845   -0.0677 H       1  NONAME1     0.0637
     46 H19        -1.7029  -13.7306    0.2654 H       1  NONAME1     0.0625
@<TRIPOS>BOND
     1     1     2    1
     2     2     3    1
     3     3     4    1
     4     4     5    2
     5     4     6    1
     6     6     7    1
     7     7     8    1
     8     8     9    2
     9     8    10    1
    10    10    11   ar
    11    11    12   ar
    12    12    13   ar
    13    13    14    1
    14    14    15    2
    15    14    16    2
    16    14    17    1
    17    17    18    1
    18    18    19   ar
    19    19    20   ar
    20    20    21   ar
    21    21    22    1
    22    22    23    1
    23    21    24   ar
    24    24    25   ar
    25    18    25   ar
    26    13    26   ar
    27    26    27   ar
    28    10    27   ar
    29     1    28    1
    30     1    29    1
    31     1    30    1
    32     2    31    1
    33     2    32    1
    34     7    33    1
    35     7    34    1
    36    11    35    1
    37    12    36    1
    38    17    37    1
    39    19    38    1
    40    20    39    1
    41    23    40    1
    42    23    41    1
    43    23    42    1
    44    24    43    1
    45    25    44    1
    46    26    45    1
    47    27    46    1
