REMARK  2 active torsions:
REMARK  status: ('A' for Active; 'I' for Inactive)
REMARK       I    between atoms: C1_2  and  N1_3 
REMARK    1  A    between atoms: C1_2  and  C2_5 
REMARK    2  A    between atoms: N1_3  and  O2_4 
ROOT
ATOM      1  O1  NON d   1       2.037   4.106   0.349  0.00  0.00    -0.266 OA
ATOM      2  C1  NON d   1       0.998   3.486   0.138  0.00  0.00     0.270 C 
ATOM      3  N1  NON d   1      -0.203   4.118  -0.030  0.00  0.00    -0.234 N 
ATOM      4  H1  NON d   1      -1.086   3.675  -0.249  0.00  0.00     0.197 HD
ENDROOT
BRANCH   2   5
ATOM      5  C2  NON d   1       0.956   2.012   0.032  0.00  0.00     0.008 C 
ATOM      6  C3  NON d   1       2.053   1.252   0.147  0.00  0.00    -0.014 C 
ATOM      7  C4  NON d   1       1.751  -0.196  -0.030  0.00  0.00     0.028 C 
ATOM      8  C5  NON d   1       0.224  -0.239  -0.011  0.00  0.00     0.009 C 
ATOM      9  C6  NON d   1      -0.262   1.195  -0.235  0.00  0.00     0.044 C 
ENDBRANCH   2   5
BRANCH   3  10
ATOM     10  O2  NON d   1      -0.187   5.529   0.022  0.00  0.00    -0.287 OA
ATOM     11  H2  NON d   1       0.765   5.717   0.180  0.00  0.00     0.244 HD
ENDBRANCH   3  10
TORSDOF 2
