REMARK  10 active torsions:
REMARK  status: ('A' for Active; 'I' for Inactive)
REMARK    1  A    between atoms: C2_2  and  C3_4 
REMARK    2  A    between atoms: C3_4  and  C4_5 
REMARK    3  A    between atoms: C4_5  and  C5_6 
REMARK    4  A    between atoms: C5_6  and  C6_7 
REMARK    5  A    between atoms: C6_7  and  C7_8 
REMARK    6  A    between atoms: C8_9  and  C7_8 
REMARK    7  A    between atoms: C8_9  and  N1_10 
REMARK    8  A    between atoms: C8_9  and  C13_19 
REMARK       I    between atoms: N1_10  and  C9_11 
REMARK    9  A    between atoms: C9_11  and  C10_13 
REMARK       I    between atoms: C13_19  and  N4_21 
REMARK   10  A    between atoms: N4_21  and  C14_22 
ROOT
ATOM      1  C8  NON d   1      14.481 -11.330  -0.409  0.00  0.00     0.177 C 
ENDROOT
BRANCH   1   2
ATOM      2  C7  NON d   1      13.179 -12.158  -0.285  0.00  0.00     0.035 C 
BRANCH   2   3
ATOM      3  C6  NON d   1      12.586 -12.262   1.124  0.00  0.00     0.002 C 
BRANCH   3   4
ATOM      4  C5  NON d   1      11.243 -13.010   1.143  0.00  0.00     0.000 C 
BRANCH   4   5
ATOM      5  C4  NON d   1      11.314 -14.538   1.283  0.00  0.00     0.007 C 
BRANCH   5   6
ATOM      6  C3  NON d   1      11.968 -15.271   0.113  0.00  0.00     0.077 C 
BRANCH   6   7
ATOM      7  C2  NON d   1      11.723 -16.776   0.126  0.00  0.00     0.123 C 
ATOM      8  C1  NON d   1      12.422 -17.573  -0.991  0.00  0.00     0.091 C 
ATOM      9  O1  NON d   1      11.015 -17.324   0.971  0.00  0.00    -0.298 OA
ENDBRANCH   6   7
ENDBRANCH   5   6
ENDBRANCH   4   5
ENDBRANCH   3   4
ENDBRANCH   2   3
ENDBRANCH   1   2
BRANCH   1  10
ATOM     10  N1  NON d   1      14.379  -9.916   0.003  0.00  0.00    -0.343 N 
ATOM     11  C9  NON d   1      13.461  -9.051  -0.601  0.00  0.00     0.262 C 
ATOM     12  O2  NON d   1      12.660  -9.472  -1.434  0.00  0.00    -0.267 OA
ATOM     13  H15 NON d   1      14.829  -9.624   0.863  0.00  0.00     0.163 HD
BRANCH  11  14
ATOM     14  C10 NON d   1      13.519  -7.654  -0.238  0.00  0.00     0.112 A 
ATOM     15  S1  NON d   1      12.099  -6.694  -0.183  0.00  0.00     0.009 SA
ATOM     16  N2  NON d   1      12.941  -5.295   0.202  0.00  0.00    -0.036 NA
ATOM     17  N3  NON d   1      14.248  -5.479   0.268  0.00  0.00    -0.173 NA
ATOM     18  C11 NON d   1      14.583  -6.795   0.000  0.00  0.00     0.071 A 
ATOM     19  C12 NON d   1      16.047  -7.271   0.000  0.00  0.00     0.073 C 
ENDBRANCH  11  14
ENDBRANCH   1  10
BRANCH   1  20
ATOM     20  C13 NON d   1      15.678 -12.136   0.180  0.00  0.00     0.245 C 
ATOM     21  O3  NON d   1      15.522 -13.254   0.666  0.00  0.00    -0.271 OA
ATOM     22  N4  NON d   1      16.919 -11.545  -0.025  0.00  0.00    -0.325 N 
ATOM     23  H19 NON d   1      16.926 -10.570  -0.294  0.00  0.00     0.169 HD
BRANCH  22  24
ATOM     24  C14 NON d   1      18.179 -12.195   0.061  0.00  0.00     0.036 A 
ATOM     25  C15 NON d   1      19.330 -11.401  -0.033  0.00  0.00     0.029 A 
ATOM     26  C16 NON d   1      20.607 -11.980  -0.007  0.00  0.00     0.004 A 
ATOM     27  C17 NON d   1      20.747 -13.363   0.095  0.00  0.00     0.024 A 
ATOM     28  C18 NON d   1      19.608 -14.158   0.180  0.00  0.00     0.036 A 
ATOM     29 Cl1  NON d   1      19.776 -15.870   0.269  0.00  0.00    -0.084 Cl
ATOM     30  C19 NON d   1      18.333 -13.583   0.171  0.00  0.00     0.053 A 
ENDBRANCH  22  24
ENDBRANCH   1  20
TORSDOF 10
