@<TRIPOS>MOLECULE
*****
 26 27 0 0 0
SMALL
USER_CHARGES

@<TRIPOS>ATOM
      1 C1          9.8043    4.1454   -0.0810 C.3     1  NONAME1     0.0820
      2 O1          8.5148    3.5266   -0.1003 O.3     1  NONAME1    -0.4645
      3 C2          7.4849    4.3866    0.0997 C.2     1  NONAME1     0.3390
      4 O2          7.5861    5.5898    0.2840 O.2     1  NONAME1    -0.2450
      5 C3          6.1801    3.6697    0.0537 C.ar    1  NONAME1     0.0601
      6 C4          6.0909    2.2787   -0.0025 C.ar    1  NONAME1    -0.0471
      7 C5          4.8392    1.6477   -0.0398 C.ar    1  NONAME1    -0.0527
      8 C6          3.6484    2.4113   -0.0174 C.ar    1  NONAME1    -0.0100
      9 C7          2.2721    2.0032   -0.0523 C.ar    1  NONAME1    -0.0347
     10 C8          1.3824    3.0588   -0.0011 C.ar    1  NONAME1     0.0770
     11 C9         -0.0708    2.9802   -0.0255 C.2     1  NONAME1     0.2731
     12 O3         -0.6945    1.9374   -0.2337 O.2     1  NONAME1    -0.2675
     13 N1         -0.7488    4.1572    0.1965 N.am    1  NONAME1    -0.1930
     14 O4         -2.1563    4.1392    0.0965 O.3     1  NONAME1    -0.2949
     15 S1          2.2113    4.5511    0.0782 S.2     1  NONAME1    -0.0836
     16 C10         3.7582    3.8010    0.0463 C.ar    1  NONAME1     0.0208
     17 C11         5.0116    4.4450    0.0807 C.ar    1  NONAME1    -0.0334
     18 H1         10.5319    3.4208   -0.4569 H       1  NONAME1     0.0661
     19 H2         10.0724    4.4105    0.9459 H       1  NONAME1     0.0661
     20 H3          9.8331    5.0270   -0.7293 H       1  NONAME1     0.0661
     21 H4          6.9855    1.6613   -0.0152 H       1  NONAME1     0.0626
     22 H5          4.7874    0.5609   -0.0822 H       1  NONAME1     0.0624
     23 H6          1.9471    0.9698   -0.1084 H       1  NONAME1     0.0636
     24 H7         -0.2930    5.0552    0.3115 H       1  NONAME1     0.1825
     25 H8         -2.3426    3.2076   -0.1488 H       1  NONAME1     0.2414
     26 H9          5.0676    5.5303    0.1251 H       1  NONAME1     0.0637
@<TRIPOS>BOND
     1     1     2    1
     2     2     3    1
     3     3     4    2
     4     3     5    1
     5     5     6   ar
     6     6     7   ar
     7     7     8   ar
     8     8     9   ar
     9     9    10   ar
    10    10    11    1
    11    11    12    2
    12    11    13   am
    13    13    14    1
    14    10    15   ar
    15    15    16   ar
    16     8    16   ar
    17    16    17   ar
    18     5    17   ar
    19     1    18    1
    20     1    19    1
    21     1    20    1
    22     6    21    1
    23     7    22    1
    24     9    23    1
    25    13    24    1
    26    14    25    1
    27    17    26    1
