REMARK  5 active torsions:
REMARK  status: ('A' for Active; 'I' for Inactive)
REMARK    1  A    between atoms: N1_2  and  C3_4 
REMARK    2  A    between atoms: C6_7  and  C7_8 
REMARK    3  A    between atoms: N4_12  and  C8_11 
REMARK    4  A    between atoms: C11_16  and  C12_17 
REMARK       I    between atoms: C12_17  and  N6_19 
REMARK    5  A    between atoms: N6_19  and  O2_20 
ROOT
ATOM      1  C7  NON d   1       3.274  -1.963   0.021  0.00  0.00     0.133 C 
ATOM      2  N2  NON d   1       3.887  -2.767  -0.823  0.00  0.00    -0.140 NA
ATOM      3  N3  NON d   1       3.396  -4.059  -0.760  0.00  0.00    -0.120 NA
ATOM      4  C8  NON d   1       2.435  -4.205   0.134  0.00  0.00     0.234 C 
ATOM      5  S1  NON d   1       2.209  -2.780   1.097  0.00  0.00    -0.025 SA
ENDROOT
BRANCH   4   6
ATOM      6  N4  NON d   1       1.715  -5.325   0.401  0.00  0.00    -0.032 NA
ATOM      7  C9  NON d   1       0.496  -5.343  -0.030  0.00  0.00     0.750 C 
ATOM      8  N5  NON d   1      -0.217  -6.475   0.285  0.00  0.00    -0.076 NA
ATOM      9  N7  NON d   1      -0.059  -4.287  -0.719  0.00  0.00    -0.076 NA
ATOM     10  C10 NON d   1      -1.496  -6.334   0.415  0.00  0.00     0.129 C 
ATOM     11  C11 NON d   1      -2.178  -5.008   0.279  0.00  0.00     0.162 C 
ATOM     12  C13 NON d   1      -1.337  -4.131  -0.595  0.00  0.00     0.129 C 
BRANCH  11  13
ATOM     13  C12 NON d   1      -3.607  -5.109  -0.191  0.00  0.00     0.255 C 
ATOM     14  O1  NON d   1      -4.112  -6.136  -0.634  0.00  0.00    -0.270 OA
ATOM     15  N6  NON d   1      -4.334  -3.946  -0.053  0.00  0.00    -0.236 N 
ATOM     16  H11 NON d   1      -4.076  -3.176   0.557  0.00  0.00     0.197 HD
BRANCH  15  17
ATOM     17  O2  NON d   1      -5.710  -4.044  -0.359  0.00  0.00    -0.287 OA
ATOM     18  H12 NON d   1      -5.822  -4.993  -0.591  0.00  0.00     0.244 HD
ENDBRANCH  15  17
ENDBRANCH  11  13
ENDBRANCH   4   6
BRANCH   1  19
ATOM     19  C6  NON d   1       3.428  -0.507   0.073  0.00  0.00     0.002 A 
ATOM     20  C5  NON d   1       4.677   0.096  -0.092  0.00  0.00     0.016 A 
ATOM     21  C4  NON d   1       4.808   1.498  -0.100  0.00  0.00     0.030 A 
ATOM     22  C3  NON d   1       3.701   2.348   0.036  0.00  0.00     0.029 A 
ATOM     23  C15 NON d   1       2.454   1.717   0.199  0.00  0.00     0.030 A 
ATOM     24  C14 NON d   1       2.316   0.325   0.218  0.00  0.00     0.016 A 
BRANCH  22  25
ATOM     25  N1  NON d   1       3.802   3.735   0.000  0.00  0.00    -0.390 N 
ATOM     26  C1  NON d   1       2.468   4.505   0.000  0.00  0.00     0.149 C 
ATOM     27  C2  NON d   1       5.073   4.437   0.031  0.00  0.00     0.149 C 
ENDBRANCH  22  25
ENDBRANCH   1  19
TORSDOF 5
