@<TRIPOS>MOLECULE
*****
 53 56 0 0 0
SMALL
USER_CHARGES

@<TRIPOS>ATOM
      1 C1         19.1720   -6.3406   -1.2354 C.3     1  NONAME1    -0.0558
      2 C2         19.5961   -7.0467    0.0427 C.3     1  NONAME1    -0.0036
      3 S1         21.0776   -8.0575   -0.2191 S.3     1  NONAME1    -0.1113
      4 C3         22.4629   -7.0410    0.1948 C.2     1  NONAME1     0.0854
      5 S2         22.4678   -5.3699    0.2919 S.2     1  NONAME1    -0.0372
      6 S3         23.8735   -8.0557    0.5275 S.3     1  NONAME1    -0.1030
      7 C4         25.2930   -7.0103    0.0692 C.3     1  NONAME1     0.0628
      8 C5         26.5747   -7.8343   -0.0928 C.2     1  NONAME1     0.1798
      9 O1         26.5310   -9.0484   -0.2992 O.2     1  NONAME1    -0.2906
     10 C6         27.8403   -7.0918   -0.0490 C.ar    1  NONAME1     0.0560
     11 C7         28.0889   -5.7346    0.0102 C.ar    1  NONAME1    -0.0435
     12 C8         29.4901   -5.4335    0.0300 C.ar    1  NONAME1    -0.0448
     13 C9         30.2962   -6.5605   -0.0102 C.ar    1  NONAME1     0.0382
     14 C10        31.7725   -6.6788   -0.0007 C.ar    1  NONAME1     0.0775
     15 C11        32.6166   -5.5736    0.0567 C.ar    1  NONAME1    -0.0349
     16 C12        34.0058   -5.7656    0.0682 C.ar    1  NONAME1    -0.0536
     17 C13        34.5388   -7.0551    0.0121 C.ar    1  NONAME1    -0.0123
     18 C14        36.0101   -7.4094   -0.0137 C.3     1  NONAME1     0.0358
     19 N1         36.9018   -6.2586    0.1259 N.pl3   1  NONAME1    -0.3385
     20 C15        38.2893   -6.4374    0.0580 C.ar    1  NONAME1     0.0463
     21 C16        39.1281   -5.3219    0.0338 C.ar    1  NONAME1     0.0491
     22 N2         40.4834   -5.3447    0.0014 N.ar    1  NONAME1    -0.2531
     23 C17        41.0832   -6.5436    0.0206 C.ar    1  NONAME1     0.0711
     24 C18        42.4717   -6.6155   -0.0254 C.ar    1  NONAME1    -0.0357
     25 C19        43.1453   -7.8381   -0.0087 C.ar    1  NONAME1    -0.0597
     26 C20        42.4235   -9.0230    0.0559 C.ar    1  NONAME1    -0.0611
     27 C21        41.0311   -8.9796    0.1078 C.ar    1  NONAME1    -0.0525
     28 C22        40.3510   -7.7461    0.0891 C.ar    1  NONAME1     0.0021
     29 C23        38.9433   -7.6676    0.1297 C.ar    1  NONAME1    -0.0302
     30 C24        33.6132   -8.0943   -0.0404 C.ar    1  NONAME1     0.0329
     31 N3         32.2684   -7.9364   -0.0479 N.ar    1  NONAME1    -0.2541
     32 S4         29.3112   -7.9720   -0.0815 S.2     1  NONAME1    -0.0838
     33 H1         18.1496   -5.9613   -1.1306 H       1  NONAME1     0.0238
     34 H2         19.8157   -5.4854   -1.4590 H       1  NONAME1     0.0238
     35 H3         19.1819   -7.0157   -2.0982 H       1  NONAME1     0.0238
     36 H4         19.7046   -6.3451    0.8750 H       1  NONAME1     0.0377
     37 H5         18.7941   -7.7368    0.3299 H       1  NONAME1     0.0377
     38 H6         25.1076   -6.4986   -0.8804 H       1  NONAME1     0.0461
     39 H7         25.4348   -6.2809    0.8720 H       1  NONAME1     0.0461
     40 H8         27.3199   -4.9716    0.0325 H       1  NONAME1     0.0630
     41 H9         29.8739   -4.4217    0.0729 H       1  NONAME1     0.0630
     42 H10        32.2221   -4.5645    0.0959 H       1  NONAME1     0.0639
     43 H11        34.6482   -4.8919    0.1301 H       1  NONAME1     0.0622
     44 H12        36.1944   -8.1095    0.8106 H       1  NONAME1     0.0511
     45 H13        36.2160   -7.9164   -0.9650 H       1  NONAME1     0.0511
     46 H14        36.6251   -5.4815   -0.4694 H       1  NONAME1     0.1464
     47 H15        38.7082   -4.3182    0.0440 H       1  NONAME1     0.0848
     48 H16        43.0403   -5.6898   -0.0737 H       1  NONAME1     0.0639
     49 H17        44.2317   -7.8568   -0.0475 H       1  NONAME1     0.0618
     50 H18        42.9451   -9.9777    0.0653 H       1  NONAME1     0.0618
     51 H19        40.4783   -9.9144    0.1578 H       1  NONAME1     0.0624
     52 H20        38.3784   -8.5920    0.2010 H       1  NONAME1     0.0643
     53 H21        33.9360   -9.1329   -0.0793 H       1  NONAME1     0.0833
@<TRIPOS>BOND
     1     1     2    1
     2     2     3    1
     3     3     4    1
     4     4     5    2
     5     4     6    1
     6     6     7    1
     7     7     8    1
     8     8     9    2
     9     8    10    1
    10    10    11   ar
    11    11    12   ar
    12    12    13   ar
    13    13    14    1
    14    14    15   ar
    15    15    16   ar
    16    16    17   ar
    17    17    18    1
    18    18    19    1
    19    19    20    1
    20    20    21   ar
    21    21    22   ar
    22    22    23   ar
    23    23    24   ar
    24    24    25   ar
    25    25    26   ar
    26    26    27   ar
    27    27    28   ar
    28    23    28   ar
    29    28    29   ar
    30    20    29   ar
    31    17    30   ar
    32    30    31   ar
    33    14    31   ar
    34    13    32   ar
    35    10    32   ar
    36     1    33    1
    37     1    34    1
    38     1    35    1
    39     2    36    1
    40     2    37    1
    41     7    38    1
    42     7    39    1
    43    11    40    1
    44    12    41    1
    45    15    42    1
    46    16    43    1
    47    18    44    1
    48    18    45    1
    49    19    46    1
    50    21    47    1
    51    24    48    1
    52    25    49    1
    53    26    50    1
    54    27    51    1
    55    29    52    1
    56    30    53    1
