REMARK  9 active torsions:
REMARK  status: ('A' for Active; 'I' for Inactive)
REMARK    1  A    between atoms: C5_7  and  C6_8 
REMARK    2  A    between atoms: C6_8  and  C7_9 
REMARK    3  A    between atoms: C7_9  and  C8_10 
REMARK    4  A    between atoms: C8_10  and  C9_11 
REMARK    5  A    between atoms: C9_11  and  C10_12 
REMARK    6  A    between atoms: C10_12  and  C11_13 
REMARK       I    between atoms: C11_13  and  N2_15 
REMARK    7  A    between atoms: N2_15  and  O3_16 
REMARK    8  A    between atoms: C18_27  and  C19_28 
REMARK    9  A    between atoms: C19_28  and  C20_29 
ROOT
ATOM      1  C1  NON d   1      -6.607  -1.517   0.000  0.00  0.00     0.048 C 
ATOM      2  C2  NON d   1      -6.875   0.000   0.000  0.00  0.00     0.106 C 
ATOM      3  C3  NON d   1      -7.618   0.056   1.400  0.00  0.00     0.048 C 
ATOM      4  N1  NON d   1      -5.390   0.491   0.070  0.00  0.00    -0.342 N 
ATOM      5  C4  NON d   1      -4.249  -0.160   0.533  0.00  0.00     0.241 C 
ATOM      6  O1  NON d   1      -4.252  -1.109   1.296  0.00  0.00    -0.271 OA
ATOM      7  C5  NON d   1      -2.991   0.441  -0.161  0.00  0.00     0.176 C 
ATOM      8  N3  NON d   1      -3.028   1.896   0.120  0.00  0.00    -0.346 N 
ATOM      9  C12 NON d   1      -2.369   2.797  -0.686  0.00  0.00     0.241 C 
ATOM     10  O4  NON d   1      -1.363   2.484  -1.324  0.00  0.00    -0.271 OA
ATOM     11  C13 NON d   1      -2.916   4.248  -0.713  0.00  0.00     0.179 C 
ATOM     12  C14 NON d   1      -2.011   5.191   0.077  0.00  0.00     0.037 C 
ATOM     13  C15 NON d   1      -2.877   6.437   0.171  0.00  0.00     0.022 C 
ATOM     14  C16 NON d   1      -4.272   5.864   0.423  0.00  0.00     0.127 C 
ATOM     15  N4  NON d   1      -4.255   4.511  -0.140  0.00  0.00    -0.337 N 
ATOM     16  C17 NON d   1      -5.396   4.047  -0.812  0.00  0.00     0.243 C 
ATOM     17  O5  NON d   1      -5.306   3.545  -1.936  0.00  0.00    -0.271 OA
ATOM     18  C18 NON d   1      -6.648   3.838   0.083  0.00  0.00     0.181 C 
ATOM     19  N5  NON d   1      -6.843   2.385   0.167  0.00  0.00    -0.345 N 
ATOM     20  C26 NON d   1      -7.364   1.351  -0.659  0.00  0.00     0.246 C 
ATOM     21  O6  NON d   1      -8.077   1.487  -1.634  0.00  0.00    -0.271 OA
ATOM     22  H7  NON d   1      -5.171   1.103  -0.719  0.00  0.00     0.163 HD
ATOM     23  H21 NON d   1      -3.836   2.258   0.609  0.00  0.00     0.163 HD
ATOM     24  H37 NON d   1      -6.205   1.993   0.854  0.00  0.00     0.163 HD
ENDROOT
BRANCH   7  25
ATOM     25  C6  NON d   1      -1.667  -0.283   0.152  0.00  0.00     0.035 C 
BRANCH  25  26
ATOM     26  C7  NON d   1      -1.190  -1.223  -0.993  0.00  0.00     0.002 C 
BRANCH  26  27
ATOM     27  C8  NON d   1      -2.010  -2.513  -1.149  0.00  0.00     0.001 C 
BRANCH  27  28
ATOM     28  C9  NON d   1      -1.605  -3.385  -2.356  0.00  0.00     0.009 C 
BRANCH  28  29
ATOM     29  C10 NON d   1      -0.308  -4.179  -2.166  0.00  0.00     0.105 C 
BRANCH  29  30
ATOM     30  C11 NON d   1      -0.061  -5.184  -3.292  0.00  0.00     0.240 C 
ATOM     31  O2  NON d   1      -0.905  -5.508  -4.117  0.00  0.00    -0.271 OA
ATOM     32  N2  NON d   1       1.199  -5.750  -3.224  0.00  0.00    -0.237 N 
ATOM     33  H19 NON d   1       1.959  -5.297  -2.731  0.00  0.00     0.197 HD
BRANCH  32  34
ATOM     34  O3  NON d   1       1.573  -6.589  -4.294  0.00  0.00    -0.287 OA
ATOM     35  H20 NON d   1       0.894  -7.292  -4.256  0.00  0.00     0.244 HD
ENDBRANCH  32  34
ENDBRANCH  29  30
ENDBRANCH  28  29
ENDBRANCH  27  28
ENDBRANCH  26  27
ENDBRANCH  25  26
ENDBRANCH   7  25
BRANCH  18  36
ATOM     36  C19 NON d   1      -7.905   4.669  -0.156  0.00  0.00     0.073 C 
BRANCH  36  37
ATOM     37  C20 NON d   1      -8.290   5.693   0.924  0.00  0.00    -0.056 A 
ATOM     38  C21 NON d   1      -7.503   6.051   2.030  0.00  0.00     0.007 A 
ATOM     39  C22 NON d   1      -7.932   7.001   2.963  0.00  0.00     0.001 A 
ATOM     40  C23 NON d   1      -9.166   7.615   2.817  0.00  0.00     0.000 A 
ATOM     41  C24 NON d   1      -9.972   7.275   1.735  0.00  0.00     0.001 A 
ATOM     42  C25 NON d   1      -9.538   6.328   0.799  0.00  0.00     0.007 A 
ENDBRANCH  36  37
ENDBRANCH  18  36
TORSDOF 9
