REMARK  8 active torsions:
REMARK  status: ('A' for Active; 'I' for Inactive)
REMARK    1  A    between atoms: C5_5  and  N1_6 
REMARK       I    between atoms: N1_6  and  C6_7 
REMARK    2  A    between atoms: C6_7  and  C7_9 
REMARK    3  A    between atoms: C10_12  and  C11_13 
REMARK       I    between atoms: C11_13  and  N2_15 
REMARK    4  A    between atoms: N2_15  and  C12_16 
REMARK    5  A    between atoms: C17_21  and  N3_22 
REMARK    6  A    between atoms: C21_26  and  N4_27 
REMARK    7  A    between atoms: N4_27  and  C22_28 
REMARK    8  A    between atoms: C24_31  and  C25_32 
ROOT
ATOM      1  N1  NON d   1       3.962 -11.198   0.008  0.00  0.00    -0.323 N 
ATOM      2  C6  NON d   1       5.051 -12.034  -0.219  0.00  0.00     0.256 C 
ATOM      3  O1  NON d   1       6.174 -11.640  -0.531  0.00  0.00    -0.267 OA
ATOM      4  H6  NON d   1       3.064 -11.613   0.208  0.00  0.00     0.169 HD
ENDROOT
BRANCH   1   5
ATOM      5  C5  NON d   1       4.007  -9.768  -0.005  0.00  0.00     0.037 A 
ATOM      6  C4  NON d   1       5.190  -9.037  -0.150  0.00  0.00     0.030 A 
ATOM      7  C3  NON d   1       5.193  -7.642  -0.152  0.00  0.00     0.011 A 
ATOM      8  C2  NON d   1       4.001  -6.930   0.000  0.00  0.00    -0.035 A 
ATOM      9  C1  NON d   1       4.001  -5.390   0.000  0.00  0.00     0.050 C 
ATOM     10  C21 NON d   1       2.776  -7.625   0.148  0.00  0.00     0.057 A 
ATOM     11  C20 NON d   1       2.809  -9.046   0.147  0.00  0.00     0.060 A 
BRANCH  10  12
ATOM     12  N4  NON d   1       1.494  -7.008   0.273  0.00  0.00    -0.188 N 
ATOM     13  H19 NON d   1       0.873  -7.354  -0.453  0.00  0.00     0.184 HD
BRANCH  12  14
ATOM     14  C22 NON d   1       1.148  -5.654   0.420  0.00  0.00     0.726 A 
ATOM     15  N5  NON d   1       0.232  -5.179  -0.442  0.00  0.00    -0.074 NA
ATOM     16  C23 NON d   1       0.019  -3.838  -0.447  0.00  0.00     0.150 A 
ATOM     17  C24 NON d   1       0.665  -2.934   0.373  0.00  0.00     0.012 A 
ATOM     18  C30 NON d   1       1.489  -3.548   1.295  0.00  0.00     0.150 A 
ATOM     19  N7  NON d   1       1.731  -4.880   1.347  0.00  0.00    -0.074 NA
BRANCH  17  20
ATOM     20  C25 NON d   1       0.557  -1.477   0.232  0.00  0.00    -0.005 A 
ATOM     21  C26 NON d   1      -0.668  -0.802   0.214  0.00  0.00     0.015 A 
ATOM     22  C27 NON d   1      -0.708   0.586   0.052  0.00  0.00     0.020 A 
ATOM     23  C28 NON d   1       0.485   1.270  -0.092  0.00  0.00     0.116 A 
ATOM     24  N6  NON d   1       1.691   0.666  -0.085  0.00  0.00    -0.272 NA
ATOM     25  C29 NON d   1       1.696  -0.680   0.072  0.00  0.00     0.128 A 
ENDBRANCH  17  20
ENDBRANCH  12  14
ENDBRANCH  10  12
ENDBRANCH   1   5
BRANCH   2  26
ATOM     26  C7  NON d   1       4.898 -13.524  -0.085  0.00  0.00     0.032 A 
ATOM     27  C8  NON d   1       6.100 -14.248  -0.045  0.00  0.00     0.018 A 
ATOM     28  C9  NON d   1       6.116 -15.639   0.048  0.00  0.00     0.018 A 
ATOM     29  C10 NON d   1       4.928 -16.377   0.109  0.00  0.00     0.032 A 
ATOM     30  C18 NON d   1       3.715 -15.671   0.068  0.00  0.00     0.018 A 
ATOM     31  C19 NON d   1       3.698 -14.251  -0.027  0.00  0.00     0.018 A 
BRANCH  29  32
ATOM     32  C11 NON d   1       5.096 -17.865   0.253  0.00  0.00     0.256 C 
ATOM     33  O2  NON d   1       6.214 -18.262   0.575  0.00  0.00    -0.267 OA
ATOM     34  N2  NON d   1       4.006 -18.688   0.032  0.00  0.00    -0.321 N 
ATOM     35  H9  NON d   1       3.109 -18.295  -0.216  0.00  0.00     0.169 HD
BRANCH  34  36
ATOM     36  C12 NON d   1       4.025 -20.116   0.030  0.00  0.00     0.056 A 
ATOM     37  C13 NON d   1       5.198 -20.877   0.073  0.00  0.00     0.031 A 
ATOM     38  C14 NON d   1       5.157 -22.274  -0.007  0.00  0.00     0.002 A 
ATOM     39  C15 NON d   1       3.940 -22.927  -0.148  0.00  0.00     0.002 A 
ATOM     40  C16 NON d   1       2.759 -22.188  -0.189  0.00  0.00     0.025 A 
ATOM     41  C17 NON d   1       2.788 -20.790  -0.061  0.00  0.00     0.033 A 
BRANCH  41  42
ATOM     42  N3  NON d   1       1.566 -20.069  -0.081  0.00  0.00    -0.301 NA
ATOM     43  H14 NON d   1       1.535 -19.424   0.706  0.00  0.00     0.124 HD
ATOM     44  H15 NON d   1       0.762 -20.695  -0.046  0.00  0.00     0.124 HD
ENDBRANCH  41  42
ENDBRANCH  34  36
ENDBRANCH  29  32
ENDBRANCH   2  26
TORSDOF 8
