REMARK  8 active torsions:
REMARK  status: ('A' for Active; 'I' for Inactive)
REMARK    1  A    between atoms: C6_7  and  N2_8 
REMARK       I    between atoms: N2_8  and  C7_9 
REMARK    2  A    between atoms: C7_9  and  C8_11 
REMARK    3  A    between atoms: C8_11  and  C9_12 
REMARK    4  A    between atoms: C8_11  and  C17_23 
REMARK       I    between atoms: C9_12  and  N3_14 
REMARK    5  A    between atoms: N3_14  and  C10_15 
REMARK    6  A    between atoms: C20_26  and  C21_27 
REMARK       I    between atoms: C21_27  and  N5_29 
REMARK    7  A    between atoms: N5_29  and  C22_30 
REMARK    8  A    between atoms: C27_35  and  N6_36 
ROOT
ATOM      1  N1  NON d   1      -2.518 -12.195  -0.320  0.00  0.00    -0.191 NA
ATOM      2  C1  NON d   1      -1.458 -11.727  -0.315  0.00  0.00     0.099 C 
ATOM      3  C2  NON d   1      -0.150 -11.143  -0.265  0.00  0.00     0.046 A 
ATOM      4  C3  NON d   1      -0.027  -9.753  -0.133  0.00  0.00     0.023 A 
ATOM      5  C4  NON d   1       1.233  -9.186   0.018  0.00  0.00     0.004 A 
ATOM      6  C5  NON d   1       2.355 -10.019   0.084  0.00  0.00     0.029 A 
ATOM      7  C6  NON d   1       2.235 -11.417  -0.062  0.00  0.00     0.036 A 
ATOM      8  C30 NON d   1       0.981 -11.974  -0.268  0.00  0.00     0.052 A 
ENDROOT
BRANCH   7   9
ATOM      9  N2  NON d   1       3.365 -12.220   0.220  0.00  0.00    -0.326 N 
ATOM     10  C7  NON d   1       3.885 -13.317  -0.554  0.00  0.00     0.239 C 
ATOM     11  O1  NON d   1       3.317 -13.743  -1.554  0.00  0.00    -0.272 OA
ATOM     12  H4  NON d   1       3.988 -11.748   0.866  0.00  0.00     0.169 HD
BRANCH  10  13
ATOM     13  C8  NON d   1       5.335 -13.860   0.000  0.00  0.00     0.203 C 
BRANCH  13  14
ATOM     14  C9  NON d   1       6.837 -13.304  -0.576  0.00  0.00     0.239 C 
ATOM     15  O2  NON d   1       7.550 -13.917  -1.366  0.00  0.00    -0.272 OA
ATOM     16  N3  NON d   1       7.251 -12.023  -0.062  0.00  0.00    -0.326 N 
ATOM     17  H6  NON d   1       6.554 -11.370   0.267  0.00  0.00     0.169 HD
BRANCH  16  18
ATOM     18  C10 NON d   1       8.469 -11.320  -0.167  0.00  0.00     0.036 A 
ATOM     19  C11 NON d   1       8.390  -9.914  -0.045  0.00  0.00     0.029 A 
ATOM     20  C12 NON d   1       9.534  -9.120  -0.013  0.00  0.00     0.004 A 
ATOM     21  C13 NON d   1      10.778  -9.732  -0.066  0.00  0.00     0.023 A 
ATOM     22  C14 NON d   1      10.864 -11.129  -0.172  0.00  0.00     0.046 A 
ATOM     23  C15 NON d   1      12.156 -11.743  -0.164  0.00  0.00     0.099 C 
ATOM     24  C16 NON d   1       9.711 -11.928  -0.241  0.00  0.00     0.052 A 
ATOM     25  N4  NON d   1      13.207 -12.229  -0.138  0.00  0.00    -0.191 NA
ENDBRANCH  16  18
ENDBRANCH  13  14
BRANCH  13  26
ATOM     26  C17 NON d   1       5.335 -15.400   0.000  0.00  0.00    -0.036 A 
ATOM     27  C18 NON d   1       6.492 -16.201   0.006  0.00  0.00     0.009 A 
ATOM     28  C19 NON d   1       6.437 -17.613  -0.033  0.00  0.00     0.017 A 
ATOM     29  C20 NON d   1       5.212 -18.279  -0.023  0.00  0.00     0.032 A 
ATOM     30  C28 NON d   1       4.055 -17.505   0.073  0.00  0.00     0.017 A 
ATOM     31  C29 NON d   1       4.118 -16.104   0.104  0.00  0.00     0.009 A 
BRANCH  29  32
ATOM     32  C21 NON d   1       5.037 -19.769  -0.145  0.00  0.00     0.256 C 
ATOM     33  O3  NON d   1       3.925 -20.176  -0.477  0.00  0.00    -0.267 OA
ATOM     34  N5  NON d   1       6.141 -20.565   0.096  0.00  0.00    -0.321 N 
ATOM     35  H13 NON d   1       7.016 -20.093   0.256  0.00  0.00     0.169 HD
BRANCH  34  36
ATOM     36  C22 NON d   1       6.253 -21.987   0.054  0.00  0.00     0.056 A 
ATOM     37  C23 NON d   1       7.577 -22.469  -0.001  0.00  0.00     0.031 A 
ATOM     38  C24 NON d   1       7.859 -23.837  -0.051  0.00  0.00     0.002 A 
ATOM     39  C25 NON d   1       6.820 -24.755  -0.021  0.00  0.00     0.002 A 
ATOM     40  C26 NON d   1       5.506 -24.300   0.059  0.00  0.00     0.025 A 
ATOM     41  C27 NON d   1       5.195 -22.925   0.062  0.00  0.00     0.033 A 
BRANCH  41  42
ATOM     42  N6  NON d   1       3.858 -22.591   0.356  0.00  0.00    -0.301 NA
ATOM     43  H18 NON d   1       3.643 -21.638   0.039  0.00  0.00     0.124 HD
ATOM     44  H19 NON d   1       3.187 -23.242  -0.034  0.00  0.00     0.124 HD
ENDBRANCH  41  42
ENDBRANCH  34  36
ENDBRANCH  29  32
ENDBRANCH  13  26
ENDBRANCH  10  13
ENDBRANCH   7   9
TORSDOF 8
