REMARK  7 active torsions:
REMARK  status: ('A' for Active; 'I' for Inactive)
REMARK    1  A    between atoms: C2_2  and  N1_3 
REMARK    2  A    between atoms: N1_3  and  C3_4 
REMARK    3  A    between atoms: C3_4  and  S2_6 
REMARK    4  A    between atoms: S2_6  and  C4_7 
REMARK    5  A    between atoms: C4_7  and  C5_8 
REMARK    6  A    between atoms: C5_8  and  C6_10 
REMARK    7  A    between atoms: C9_13  and  O2_14 
ROOT
ATOM      1  C5  NON d   1       9.214  -6.811   0.295  0.00  0.00     0.169 C 
ATOM      2  O1  NON d   1       9.329  -5.631   0.626  0.00  0.00    -0.291 OA
ENDROOT
BRANCH   1   3
ATOM      3  C4  NON d   1       7.885  -7.544   0.128  0.00  0.00     0.165 C 
BRANCH   3   4
ATOM      4  S2  NON d   1       6.415  -6.486   0.290  0.00  0.00    -0.091 SA
BRANCH   4   5
ATOM      5  C3  NON d   1       6.035  -5.929  -1.354  0.00  0.00     0.155 C 
ATOM      6  S1  NON d   1       7.049  -6.196  -2.681  0.00  0.00    -0.051 SA
BRANCH   5   7
ATOM      7  N1  NON d   1       4.832  -5.319  -1.326  0.00  0.00    -0.273 NA
BRANCH   7   8
ATOM      8  C2  NON d   1       4.652  -4.263  -2.328  0.00  0.00     0.146 C 
ATOM      9  C1  NON d   1       3.318  -3.493  -2.328  0.00  0.00     0.028 C 
ENDBRANCH   7   8
ENDBRANCH   5   7
ENDBRANCH   4   5
ENDBRANCH   3   4
ENDBRANCH   1   3
BRANCH   1  10
ATOM     10  C6  NON d   1      10.487  -7.601   0.141  0.00  0.00     0.011 A 
ATOM     11  C7  NON d   1      11.713  -6.910   0.173  0.00  0.00     0.018 A 
ATOM     12  C8  NON d   1      12.938  -7.590   0.089  0.00  0.00     0.037 A 
ATOM     13  C9  NON d   1      12.957  -8.976  -0.032  0.00  0.00     0.068 A 
ATOM     14  C11 NON d   1      11.742  -9.671  -0.066  0.00  0.00     0.037 A 
ATOM     15  C12 NON d   1      10.515  -8.992   0.016  0.00  0.00     0.018 A 
BRANCH  13  16
ATOM     16  O2  NON d   1      14.070  -9.767  -0.120  0.00  0.00    -0.356 OA
ATOM     17  C10 NON d   1      15.333  -9.111  -0.132  0.00  0.00     0.210 C 
ENDBRANCH  13  16
ENDBRANCH   1  10
TORSDOF 7
