REMARK  8 active torsions:
REMARK  status: ('A' for Active; 'I' for Inactive)
REMARK    1  A    between atoms: S1_2  and  C2_3 
REMARK    2  A    between atoms: C3_5  and  N2_6 
REMARK    3  A    between atoms: N2_6  and  C4_7 
REMARK    4  A    between atoms: C4_7  and  C5_8 
REMARK    5  A    between atoms: C8_11  and  C9_12 
REMARK       I    between atoms: C9_12  and  N3_14 
REMARK    6  A    between atoms: N3_14  and  C10_15 
REMARK    7  A    between atoms: C15_20  and  N4_21 
REMARK    8  A    between atoms: C19_25  and  C20_26 
ROOT
ATOM      1  C5  NON d   1       6.246  -5.261   0.019  0.00  0.00    -0.045 A 
ATOM      2  C6  NON d   1       7.475  -4.588   0.112  0.00  0.00     0.009 A 
ATOM      3  C7  NON d   1       8.694  -5.282   0.089  0.00  0.00     0.017 A 
ATOM      4  C8  NON d   1       8.745  -6.680  -0.027  0.00  0.00     0.032 A 
ATOM      5  C16 NON d   1       7.529  -7.366  -0.115  0.00  0.00     0.017 A 
ATOM      6  C17 NON d   1       6.296  -6.662  -0.099  0.00  0.00     0.009 A 
ENDROOT
BRANCH   1   7
ATOM      7  C4  NON d   1       4.970  -4.410  -0.001  0.00  0.00     0.132 C 
BRANCH   7   8
ATOM      8  N2  NON d   1       3.741  -5.196   0.072  0.00  0.00    -0.273 NA
ATOM      9  H4  NON d   1       3.748  -5.798   0.891  0.00  0.00     0.129 HD
BRANCH   8  10
ATOM     10  C3  NON d   1       2.521  -4.471   0.060  0.00  0.00     0.108 A 
ATOM     11  N1  NON d   1       2.462  -3.136   0.028  0.00  0.00    -0.211 NA
ATOM     12  C2  NON d   1       1.240  -2.534   0.019  0.00  0.00     0.190 A 
ATOM     13  N6  NON d   1       0.073  -3.182   0.027  0.00  0.00    -0.222 NA
ATOM     14  C19 NON d   1       0.139  -4.538   0.035  0.00  0.00     0.074 A 
ATOM     15  C18 NON d   1       1.357  -5.209   0.058  0.00  0.00     0.076 A 
BRANCH  12  16
ATOM     16  S1  NON d   1       1.334  -0.770   0.000  0.00  0.00    -0.095 SA
ATOM     17  C1  NON d   1       0.000   0.000   0.000  0.00  0.00     0.099 C 
ENDBRANCH  12  16
BRANCH  14  18
ATOM     18  C20 NON d   1      -1.158  -5.255   0.020  0.00  0.00     0.010 A 
ATOM     19  C21 NON d   1      -1.277  -6.657   0.025  0.00  0.00     0.017 A 
ATOM     20  C22 NON d   1      -2.527  -7.277   0.014  0.00  0.00     0.020 A 
ATOM     21  C23 NON d   1      -3.652  -6.479  -0.003  0.00  0.00     0.116 A 
ATOM     22  N5  NON d   1      -3.605  -5.134  -0.010  0.00  0.00    -0.272 NA
ATOM     23  C24 NON d   1      -2.373  -4.564   0.001  0.00  0.00     0.130 A 
ENDBRANCH  14  18
ENDBRANCH   8  10
ENDBRANCH   7   8
ENDBRANCH   1   7
BRANCH   4  24
ATOM     24  C9  NON d   1      10.117  -7.305  -0.103  0.00  0.00     0.256 C 
ATOM     25  O1  NON d   1      11.067  -6.544  -0.279  0.00  0.00    -0.267 OA
ATOM     26  N3  NON d   1      10.231  -8.682   0.023  0.00  0.00    -0.321 N 
ATOM     27  H9  NON d   1       9.410  -9.244   0.210  0.00  0.00     0.169 HD
BRANCH  26  28
ATOM     28  C10 NON d   1      11.439  -9.444   0.024  0.00  0.00     0.056 A 
ATOM     29  C11 NON d   1      12.720  -8.883  -0.033  0.00  0.00     0.031 A 
ATOM     30  C12 NON d   1      13.863  -9.691   0.024  0.00  0.00     0.002 A 
ATOM     31  C13 NON d   1      13.742 -11.072   0.141  0.00  0.00     0.002 A 
ATOM     32  C14 NON d   1      12.475 -11.650   0.187  0.00  0.00     0.025 A 
ATOM     33  C15 NON d   1      11.323 -10.850   0.117  0.00  0.00     0.033 A 
BRANCH  33  34
ATOM     34  N4  NON d   1      10.046 -11.468   0.087  0.00  0.00    -0.301 NA
ATOM     35  H14 NON d   1       9.585 -11.244  -0.793  0.00  0.00     0.124 HD
ATOM     36  H15 NON d   1      10.118 -12.479   0.181  0.00  0.00     0.124 HD
ENDBRANCH  33  34
ENDBRANCH  26  28
ENDBRANCH   4  24
TORSDOF 8
