@<TRIPOS>MOLECULE
*****
 42 44 0 0 0
SMALL
USER_CHARGES

@<TRIPOS>ATOM
      1 N1          3.2255  -10.0904   -0.0750 N.pl3   1  NONAME1    -0.3565
      2 C1          3.3938  -11.4993   -0.0722 C.ar    1  NONAME1     0.0461
      3 C2          4.6790  -12.0450   -0.1772 C.ar    1  NONAME1    -0.0392
      4 C3          4.8628  -13.4270   -0.1385 C.ar    1  NONAME1    -0.0599
      5 C4          3.7622  -14.2699   -0.0138 C.ar    1  NONAME1    -0.0599
      6 C5          2.4718  -13.7373    0.0508 C.ar    1  NONAME1    -0.0387
      7 C6          2.2720  -12.3555    0.0027 C.ar    1  NONAME1     0.0545
      8 N2          0.9949  -11.7399   -0.0081 N.am    1  NONAME1    -0.2800
      9 C7         -0.2339  -12.3559    0.1352 C.2     1  NONAME1     0.2483
     10 O1         -0.4004  -13.5567    0.3309 O.2     1  NONAME1    -0.2699
     11 C8         -1.4587  -11.4847    0.0655 C.ar    1  NONAME1     0.0370
     12 C9         -2.7049  -12.1225    0.1669 C.ar    1  NONAME1    -0.0493
     13 C10        -3.8994  -11.3938    0.1503 C.ar    1  NONAME1    -0.0564
     14 C11        -3.8890  -10.0010    0.0104 C.ar    1  NONAME1    -0.0303
     15 C12        -5.1542   -9.1543    0.0082 C.3     1  NONAME1     0.0357
     16 N3         -6.3604   -9.9754   -0.0496 N.pl3   1  NONAME1    -0.3249
     17 C13        -7.5692   -9.2610   -0.0106 C.ar    1  NONAME1     0.1220
     18 C14        -8.7535  -10.0008    0.0008 C.ar    1  NONAME1    -0.0217
     19 C15        -9.9801   -9.3436    0.0465 C.ar    1  NONAME1    -0.0543
     20 C16        -9.9935   -7.9583    0.0768 C.ar    1  NONAME1    -0.0071
     21 C17        -8.7778   -7.3003    0.0700 C.ar    1  NONAME1     0.2149
     22 F1         -8.7820   -5.9594    0.0942 F       1  NONAME1    -0.1838
     23 N4         -7.5757   -7.9160    0.0329 N.ar    1  NONAME1    -0.2044
     24 C18        -2.6414   -9.3621   -0.0908 C.ar    1  NONAME1    -0.0564
     25 C19        -1.4397  -10.0909   -0.0629 C.ar    1  NONAME1    -0.0493
     26 H1          4.1201   -9.6048   -0.0758 H       1  NONAME1     0.1424
     27 H2          2.6823   -9.8082    0.7388 H       1  NONAME1     0.1424
     28 H3          5.5492  -11.4022   -0.2700 H       1  NONAME1     0.0636
     29 H4          5.8630  -13.8470   -0.2027 H       1  NONAME1     0.0618
     30 H5          3.8995  -15.3479    0.0183 H       1  NONAME1     0.0618
     31 H6          1.6421  -14.4332    0.1156 H       1  NONAME1     0.0637
     32 H7          1.0446  -10.7506   -0.2039 H       1  NONAME1     0.1552
     33 H8         -2.7582  -13.2051    0.2744 H       1  NONAME1     0.0625
     34 H9         -4.8339  -11.9384    0.2645 H       1  NONAME1     0.0621
     35 H10        -5.1500   -8.5515    0.9253 H       1  NONAME1     0.0511
     36 H11        -5.1159   -8.4878   -0.8631 H       1  NONAME1     0.0511
     37 H12        -6.3615  -10.5684   -0.8743 H       1  NONAME1     0.1478
     38 H13        -8.7190  -11.0861   -0.0058 H       1  NONAME1     0.0652
     39 H14       -10.9072   -9.9086    0.0638 H       1  NONAME1     0.0620
     40 H15       -10.9182   -7.3966    0.1093 H       1  NONAME1     0.0662
     41 H16        -2.5959   -8.2771   -0.1799 H       1  NONAME1     0.0621
     42 H17        -0.5158   -9.5283   -0.1302 H       1  NONAME1     0.0625
@<TRIPOS>BOND
     1     1     2    1
     2     2     3   ar
     3     3     4   ar
     4     4     5   ar
     5     5     6   ar
     6     6     7   ar
     7     2     7   ar
     8     7     8    1
     9     8     9   am
    10     9    10    2
    11     9    11    1
    12    11    12   ar
    13    12    13   ar
    14    13    14   ar
    15    14    15    1
    16    15    16    1
    17    16    17    1
    18    17    18   ar
    19    18    19   ar
    20    19    20   ar
    21    20    21   ar
    22    21    22    1
    23    21    23   ar
    24    17    23   ar
    25    14    24   ar
    26    24    25   ar
    27    11    25   ar
    28     1    26    1
    29     1    27    1
    30     3    28    1
    31     4    29    1
    32     5    30    1
    33     6    31    1
    34     8    32    1
    35    12    33    1
    36    13    34    1
    37    15    35    1
    38    15    36    1
    39    16    37    1
    40    18    38    1
    41    19    39    1
    42    20    40    1
    43    24    41    1
    44    25    42    1
