REMARK  8 active torsions:
REMARK  status: ('A' for Active; 'I' for Inactive)
REMARK    1  A    between atoms: C1_2  and  C2_3 
REMARK       I    between atoms: C1_2  and  N3_24 
REMARK    2  A    between atoms: C3_4  and  C4_5 
REMARK    3  A    between atoms: C7_8  and  C8_9 
REMARK    4  A    between atoms: N1_10  and  O2_11 
REMARK    5  A    between atoms: O2_11  and  C9_12 
REMARK    6  A    between atoms: C9_12  and  C10_13 
REMARK    7  A    between atoms: C13_16  and  N2_17 
REMARK    8  A    between atoms: N3_24  and  O5_25 
ROOT
ATOM      1  C4  NON d   1      -1.601  -7.304   0.035  0.00  0.00    -0.036 A 
ATOM      2  C5  NON d   1      -0.431  -8.085   0.040  0.00  0.00     0.012 A 
ATOM      3  C6  NON d   1      -0.491  -9.485   0.031  0.00  0.00     0.014 A 
ATOM      4  C7  NON d   1      -1.730 -10.122   0.017  0.00  0.00    -0.017 A 
ATOM      5  C16 NON d   1      -2.902  -9.363   0.008  0.00  0.00     0.014 A 
ATOM      6  C17 NON d   1      -2.837  -7.964   0.016  0.00  0.00     0.012 A 
ENDROOT
BRANCH   4   7
ATOM      7  C8  NON d   1      -1.786 -11.597   0.017  0.00  0.00     0.157 C 
ATOM      8  N1  NON d   1      -2.915 -12.229   0.012  0.00  0.00    -0.145 NA
BRANCH   8   9
ATOM      9  O2  NON d   1      -2.683 -13.616   0.015  0.00  0.00    -0.252 OA
BRANCH   9  10
ATOM     10  C9  NON d   1      -3.956 -14.270   0.024  0.00  0.00     0.242 C 
BRANCH  10  11
ATOM     11  C10 NON d   1      -3.855 -15.781   0.005  0.00  0.00    -0.032 A 
ATOM     12  C11 NON d   1      -2.629 -16.462   0.016  0.00  0.00     0.012 A 
ATOM     13  C12 NON d   1      -2.590 -17.862  -0.002  0.00  0.00     0.037 A 
ATOM     14  C13 NON d   1      -3.788 -18.586  -0.030  0.00  0.00     0.102 A 
ATOM     15  C14 NON d   1      -5.020 -17.924  -0.038  0.00  0.00     0.037 A 
ATOM     16  C15 NON d   1      -5.047 -16.527  -0.020  0.00  0.00     0.012 A 
BRANCH  14  17
ATOM     17  N2  NON d   1      -3.751 -20.054  -0.049  0.00  0.00    -0.116 N 
ATOM     18  O3  NON d   1      -4.834 -20.657  -0.072  0.00  0.00    -0.532 OA
ATOM     19  O4  NON d   1      -2.642 -20.605  -0.043  0.00  0.00    -0.532 OA
ENDBRANCH  14  17
ENDBRANCH  10  11
ENDBRANCH   9  10
ENDBRANCH   8   9
ENDBRANCH   4   7
BRANCH   1  20
ATOM     20  C3  NON d   1      -1.458  -5.833   0.064  0.00  0.00     0.017 C 
ATOM     21  C2  NON d   1      -2.455  -4.933   0.039  0.00  0.00     0.077 C 
BRANCH  21  22
ATOM     22  C1  NON d   1      -2.273  -3.456   0.108  0.00  0.00     0.264 C 
ATOM     23  O1  NON d   1      -3.208  -2.731   0.436  0.00  0.00    -0.266 OA
ATOM     24  N3  NON d   1      -1.042  -2.978  -0.240  0.00  0.00    -0.234 N 
ATOM     25  H14 NON d   1      -0.287  -3.531  -0.620  0.00  0.00     0.197 HD
BRANCH  24  26
ATOM     26  O5  NON d   1      -0.849  -1.581  -0.224  0.00  0.00    -0.287 OA
ATOM     27  H15 NON d   1      -1.540  -1.276   0.401  0.00  0.00     0.244 HD
ENDBRANCH  24  26
ENDBRANCH  21  22
ENDBRANCH   1  20
TORSDOF 8
