@<TRIPOS>MOLECULE
*****
 39 39 0 0 0
SMALL
USER_CHARGES

@<TRIPOS>ATOM
      1 O1          5.8324    1.5862    1.5804 O.2     1  NONAME1    -0.2737
      2 C1          5.1194    1.5644    2.5764 C.2     1  NONAME1     0.2354
      3 C2          3.8019    0.8119    2.6640 C.3     1  NONAME1     0.0259
      4 C3          3.4027    0.0635    1.3928 C.3     1  NONAME1    -0.0447
      5 C4          4.1374   -1.2703    1.2351 C.3     1  NONAME1    -0.0526
      6 C5          3.7444   -2.0460   -0.0295 C.3     1  NONAME1    -0.0526
      7 C6          2.5425   -2.9858    0.1247 C.3     1  NONAME1    -0.0448
      8 C7          1.1775   -2.3014    0.0685 C.3     1  NONAME1     0.0243
      9 C8          0.0332   -3.3078    0.0827 C.2     1  NONAME1     0.2172
     10 O2          0.2301   -4.5156    0.1464 O.2     1  NONAME1    -0.2755
     11 N1         -1.2023   -2.6792    0.0345 N.am    1  NONAME1    -0.2855
     12 C9         -2.4764   -3.2892    0.0559 C.ar    1  NONAME1     0.0336
     13 C10        -2.6779   -4.6711    0.1140 C.ar    1  NONAME1    -0.0378
     14 C11        -3.9779   -5.1978    0.1437 C.ar    1  NONAME1    -0.0247
     15 C12        -5.0684   -4.3419    0.1157 C.ar    1  NONAME1     0.1235
     16 F1         -6.3087   -4.8463    0.1461 F       1  NONAME1    -0.2055
     17 C13        -4.8882   -2.9659    0.0563 C.ar    1  NONAME1    -0.0247
     18 C14        -3.5933   -2.4403    0.0267 C.ar    1  NONAME1    -0.0378
     19 N2          5.3704    2.2628    3.7465 N.am    1  NONAME1    -0.1975
     20 O3          6.6685    2.8055    3.8580 O.3     1  NONAME1    -0.2952
     21 H1          3.0261    1.5565    2.8816 H       1  NONAME1     0.0359
     22 H2          3.8474    0.1210    3.5140 H       1  NONAME1     0.0359
     23 H3          2.3278   -0.1183    1.4526 H       1  NONAME1     0.0270
     24 H4          3.5713    0.6901    0.5096 H       1  NONAME1     0.0270
     25 H5          5.2139   -1.0657    1.1799 H       1  NONAME1     0.0265
     26 H6          3.9873   -1.8974    2.1221 H       1  NONAME1     0.0265
     27 H7          4.6020   -2.6799   -0.2924 H       1  NONAME1     0.0265
     28 H8          3.5972   -1.3660   -0.8764 H       1  NONAME1     0.0265
     29 H9          2.6334   -3.5616    1.0542 H       1  NONAME1     0.0270
     30 H10         2.5916   -3.7205   -0.6902 H       1  NONAME1     0.0270
     31 H11         1.0964   -1.6992   -0.8439 H       1  NONAME1     0.0358
     32 H12         1.0393   -1.6515    0.9354 H       1  NONAME1     0.0358
     33 H13        -1.1934   -1.6681   -0.0129 H       1  NONAME1     0.1548
     34 H14        -1.8535   -5.3725    0.1367 H       1  NONAME1     0.0637
     35 H15        -4.1331   -6.2710    0.1872 H       1  NONAME1     0.0647
     36 H16        -5.7551   -2.3138    0.0331 H       1  NONAME1     0.0647
     37 H17        -3.4746   -1.3615   -0.0195 H       1  NONAME1     0.0637
     38 H18         4.9683    1.9344    4.6184 H       1  NONAME1     0.1822
     39 H19         6.5509    3.7002    3.4872 H       1  NONAME1     0.2414
@<TRIPOS>BOND
     1     1     2    2
     2     2     3    1
     3     3     4    1
     4     4     5    1
     5     5     6    1
     6     6     7    1
     7     7     8    1
     8     8     9    1
     9     9    10    2
    10     9    11   am
    11    11    12    1
    12    12    13   ar
    13    13    14   ar
    14    14    15   ar
    15    15    16    1
    16    15    17   ar
    17    17    18   ar
    18    12    18   ar
    19     2    19   am
    20    19    20    1
    21     3    21    1
    22     3    22    1
    23     4    23    1
    24     4    24    1
    25     5    25    1
    26     5    26    1
    27     6    27    1
    28     6    28    1
    29     7    29    1
    30     7    30    1
    31     8    31    1
    32     8    32    1
    33    11    33    1
    34    13    34    1
    35    14    35    1
    36    17    36    1
    37    18    37    1
    38    19    38    1
    39    20    39    1
