@<TRIPOS>MOLECULE
*****
 46 49 0 0 0
SMALL
USER_CHARGES

@<TRIPOS>ATOM
      1 N1         -1.3044  -10.0126    0.0381 N.pl3   1  NONAME1    -0.3565
      2 C1         -2.7160  -10.1353    0.0595 C.ar    1  NONAME1     0.0461
      3 C2         -3.2990  -11.4089    0.1030 C.ar    1  NONAME1    -0.0392
      4 C3         -4.6859  -11.5497    0.0885 C.ar    1  NONAME1    -0.0599
      5 C4         -5.4974  -10.4196    0.0511 C.ar    1  NONAME1    -0.0599
      6 C5         -4.9275   -9.1430    0.0588 C.ar    1  NONAME1    -0.0387
      7 C6         -3.5396   -8.9860    0.0863 C.ar    1  NONAME1     0.0545
      8 N2         -2.8874   -7.7295    0.1557 N.am    1  NONAME1    -0.2800
      9 C7         -3.4676   -6.4760    0.1968 C.2     1  NONAME1     0.2483
     10 O1         -4.6738   -6.2466    0.1935 O.2     1  NONAME1    -0.2699
     11 C8         -2.5335   -5.3017    0.1876 C.ar    1  NONAME1     0.0370
     12 C9         -3.0594   -4.0686   -0.2174 C.ar    1  NONAME1    -0.0493
     13 C10        -2.2338   -2.9496   -0.3535 C.ar    1  NONAME1    -0.0564
     14 C11        -0.8568   -3.0213   -0.0806 C.ar    1  NONAME1    -0.0300
     15 C12        -0.0299   -1.7922   -0.4008 C.3     1  NONAME1     0.0404
     16 N3          1.3694   -1.7474   -0.0114 N.am    1  NONAME1    -0.2889
     17 C13         1.9509   -0.4663    0.3782 C.3     1  NONAME1     0.0411
     18 C14         3.4165   -0.6962    0.2453 C.ar    1  NONAME1    -0.0180
     19 C15         4.4802    0.1421    0.5335 C.ar    1  NONAME1    -0.0563
     20 C16         5.7763   -0.3283    0.2883 C.ar    1  NONAME1    -0.0614
     21 C17         5.9920   -1.6151   -0.2397 C.ar    1  NONAME1    -0.0610
     22 C18         4.9130   -2.4443   -0.5496 C.ar    1  NONAME1    -0.0493
     23 C19         3.6443   -1.9549   -0.3002 C.ar    1  NONAME1     0.0416
     24 C20         2.3418   -2.5698   -0.5762 C.2     1  NONAME1     0.2475
     25 O2          2.2049   -3.5898   -1.2266 O.2     1  NONAME1    -0.2700
     26 C21        -0.3522   -4.2359    0.3977 C.ar    1  NONAME1    -0.0564
     27 C22        -1.1773   -5.3682    0.5268 C.ar    1  NONAME1    -0.0493
     28 H1         -0.8420  -10.9160   -0.0290 H       1  NONAME1     0.1424
     29 H2         -1.0132   -9.4212   -0.7376 H       1  NONAME1     0.1424
     30 H3         -2.6805  -12.3009    0.1288 H       1  NONAME1     0.0636
     31 H4         -5.1340  -12.5400    0.1029 H       1  NONAME1     0.0618
     32 H5         -6.5794  -10.5245    0.0309 H       1  NONAME1     0.0618
     33 H6         -5.5974   -8.2896    0.0517 H       1  NONAME1     0.0637
     34 H7         -1.8824   -7.8116    0.2111 H       1  NONAME1     0.1552
     35 H8         -4.1164   -3.9784   -0.4630 H       1  NONAME1     0.0625
     36 H9         -2.6758   -2.0197   -0.7066 H       1  NONAME1     0.0621
     37 H10        -0.0640   -1.6248   -1.4848 H       1  NONAME1     0.0514
     38 H11        -0.5185   -0.9419    0.0928 H       1  NONAME1     0.0514
     39 H12         1.6474   -0.2261    1.4004 H       1  NONAME1     0.0514
     40 H13         1.6243    0.3077   -0.3254 H       1  NONAME1     0.0514
     41 H14         4.3237    1.1405    0.9296 H       1  NONAME1     0.0621
     42 H15         6.6310    0.3094    0.5036 H       1  NONAME1     0.0618
     43 H16         7.0075   -1.9619   -0.4166 H       1  NONAME1     0.0618
     44 H17         5.0574   -3.4324   -0.9716 H       1  NONAME1     0.0625
     45 H18         0.7012   -4.3403    0.6470 H       1  NONAME1     0.0621
     46 H19        -0.7225   -6.2840    0.8911 H       1  NONAME1     0.0625
@<TRIPOS>BOND
     1     1     2    1
     2     2     3   ar
     3     3     4   ar
     4     4     5   ar
     5     5     6   ar
     6     6     7   ar
     7     2     7   ar
     8     7     8    1
     9     8     9   am
    10     9    10    2
    11     9    11    1
    12    11    12   ar
    13    12    13   ar
    14    13    14   ar
    15    14    15    1
    16    15    16    1
    17    16    17    1
    18    17    18    1
    19    18    19   ar
    20    19    20   ar
    21    20    21   ar
    22    21    22   ar
    23    22    23   ar
    24    18    23   ar
    25    23    24    1
    26    16    24   am
    27    24    25    2
    28    14    26   ar
    29    26    27   ar
    30    11    27   ar
    31     1    28    1
    32     1    29    1
    33     3    30    1
    34     4    31    1
    35     5    32    1
    36     6    33    1
    37     8    34    1
    38    12    35    1
    39    13    36    1
    40    15    37    1
    41    15    38    1
    42    17    39    1
    43    17    40    1
    44    19    41    1
    45    20    42    1
    46    21    43    1
    47    22    44    1
    48    26    45    1
    49    27    46    1
