REMARK  5 active torsions:
REMARK  status: ('A' for Active; 'I' for Inactive)
REMARK    1  A    between atoms: C1_2  and  C2_3 
REMARK    2  A    between atoms: C1_2  and  C13_19 
REMARK    3  A    between atoms: C5_6  and  C6_7 
REMARK    4  A    between atoms: C7_9  and  C8_10 
REMARK    5  A    between atoms: C8_10  and  C9_11 
ROOT
ATOM      1  C2  NON d   1       7.481  -4.646  -0.015  0.00  0.00     0.061 A 
ATOM      2  C3  NON d   1       8.473  -5.602  -0.141  0.00  0.00     0.024 A 
ATOM      3  C4  NON d   1       7.967  -6.930  -0.071  0.00  0.00     0.025 A 
ATOM      4  C5  NON d   1       6.603  -6.964   0.140  0.00  0.00     0.061 A 
ATOM      5  S2  NON d   1       5.957  -5.384   0.241  0.00  0.00    -0.082 SA
ENDROOT
BRANCH   4   6
ATOM      6  C6  NON d   1       5.787  -8.140   0.261  0.00  0.00     0.213 A 
ATOM      7  N1  NON d   1       6.179  -9.334  -0.137  0.00  0.00    -0.203 NA
ATOM      8  C7  NON d   1       5.106 -10.139   0.180  0.00  0.00     0.161 A 
ATOM      9  N2  NON d   1       4.108  -9.498   0.802  0.00  0.00    -0.110 NA
ATOM     10  O2  NON d   1       4.536  -8.169   0.822  0.00  0.00    -0.190 OA
BRANCH   8  11
ATOM     11  C8  NON d   1       5.165 -11.606  -0.102  0.00  0.00     0.129 C 
BRANCH  11  12
ATOM     12  C9  NON d   1       3.894 -12.419  -0.103  0.00  0.00    -0.010 A 
ATOM     13  C10 NON d   1       3.766 -13.737   0.304  0.00  0.00     0.015 A 
ATOM     14  C11 NON d   1       2.447 -14.245   0.129  0.00  0.00     0.008 A 
ATOM     15  C12 NON d   1       1.605 -13.300  -0.409  0.00  0.00     0.050 A 
ATOM     16  S1  NON d   1       2.419 -11.839  -0.759  0.00  0.00    -0.106 SA
ENDBRANCH  11  12
ENDBRANCH   8  11
ENDBRANCH   4   6
BRANCH   1  17
ATOM     17  C1  NON d   1       7.676  -3.195  -0.071  0.00  0.00     0.272 C 
ATOM     18  O1  NON d   1       8.816  -2.721  -0.127  0.00  0.00    -0.282 OA
BRANCH  17  19
ATOM     19  C13 NON d   1       6.443  -2.288  -0.087  0.00  0.00     0.456 C 
ATOM     20  F1  NON d   1       5.703  -2.384   1.052  0.00  0.00    -0.163 F 
ATOM     21  F2  NON d   1       6.758  -0.966  -0.216  0.00  0.00    -0.163 F 
ATOM     22  F3  NON d   1       5.598  -2.568  -1.122  0.00  0.00    -0.163 F 
ENDBRANCH  17  19
ENDBRANCH   1  17
TORSDOF 5
