@<TRIPOS>MOLECULE
*****
 29 29 0 0 0
SMALL
USER_CHARGES

@<TRIPOS>ATOM
      1 O1          0.2828   -4.1235   -0.6703 O.2     1  NONAME1    -0.2868
      2 C1          0.1113   -3.0009   -0.2070 C.2     1  NONAME1     0.2214
      3 C2         -1.2034   -2.3243    0.1101 C.3     1  NONAME1     0.0403
      4 C3         -2.4930   -3.1160    0.0254 C.ar    1  NONAME1    -0.0385
      5 C4         -2.5717   -4.5093    0.1558 C.ar    1  NONAME1    -0.0546
      6 C5         -3.8096   -5.1630    0.1346 C.ar    1  NONAME1    -0.0188
      7 C6         -4.9830   -4.4297    0.0109 C.ar    1  NONAME1     0.1308
      8 O2         -6.1614   -5.1219    0.0127 O.3     1  NONAME1    -0.5057
      9 C7         -4.9310   -3.0428   -0.0968 C.ar    1  NONAME1     0.0595
     10 Br1        -6.5180   -2.0175   -0.2348 Br      1  NONAME1    -0.0465
     11 C8         -3.6961   -2.3902   -0.0886 C.ar    1  NONAME1    -0.0406
     12 C9          1.3490   -2.1396    0.0611 C.2     1  NONAME1     0.2799
     13 O3          1.2256   -0.9589    0.3475 O.2     1  NONAME1    -0.2670
     14 N1          2.5440   -2.8168   -0.0703 N.am    1  NONAME1    -0.3082
     15 C10         3.8093   -2.1052   -0.0878 C.3     1  NONAME1     0.0208
     16 C11         4.9821   -3.0095    0.2796 C.3     1  NONAME1     0.0063
     17 S1          6.5520   -2.0987    0.2031 S.3     1  NONAME1    -0.1767
     18 H1         -1.1361   -1.9325    1.1322 H       1  NONAME1     0.0395
     19 H2         -1.2794   -1.4776   -0.5849 H       1  NONAME1     0.0395
     20 H3         -1.6796   -5.1194    0.2773 H       1  NONAME1     0.0622
     21 H4         -3.8553   -6.2454    0.2241 H       1  NONAME1     0.0654
     22 H5         -6.8786   -4.4676   -0.0702 H       1  NONAME1     0.2922
     23 H6         -3.6659   -1.3039   -0.1574 H       1  NONAME1     0.0633
     24 H7          2.4722   -3.7421   -0.4894 H       1  NONAME1     0.1491
     25 H8          3.7433   -1.2567    0.6038 H       1  NONAME1     0.0470
     26 H9          3.9270   -1.7021   -1.1005 H       1  NONAME1     0.0470
     27 H10         5.0397   -3.8620   -0.4051 H       1  NONAME1     0.0389
     28 H11         4.8552   -3.4080    1.2916 H       1  NONAME1     0.0389
     29 H12         7.3371   -3.1047    0.6162 H       1  NONAME1     0.1017
@<TRIPOS>BOND
     1     1     2    2
     2     2     3    1
     3     3     4    1
     4     4     5   ar
     5     5     6   ar
     6     6     7   ar
     7     7     8    1
     8     7     9   ar
     9     9    10    1
    10     9    11   ar
    11     4    11   ar
    12     2    12    1
    13    12    13    2
    14    12    14   am
    15    14    15    1
    16    15    16    1
    17    16    17    1
    18     3    18    1
    19     3    19    1
    20     5    20    1
    21     6    21    1
    22     8    22    1
    23    11    23    1
    24    14    24    1
    25    15    25    1
    26    15    26    1
    27    16    27    1
    28    16    28    1
    29    17    29    1
