@<TRIPOS>MOLECULE
*****
 60 63 0 0 0
SMALL
USER_CHARGES

@<TRIPOS>ATOM
      1 C1          5.3347   -3.0800    0.0000 C.3     1  NONAME1    -0.0448
      2 C2          5.3347   -4.6200    0.0000 C.3     1  NONAME1     0.0420
      3 C3          6.5769   -5.2380    0.6941 C.3     1  NONAME1     0.0320
      4 N1          6.6871   -6.6699    0.4025 N.pl3   1  NONAME1    -0.3119
      5 C4          7.8887   -7.3642    0.3503 C.ar    1  NONAME1     0.1213
      6 C5          9.1228   -6.7304    0.4662 C.ar    1  NONAME1    -0.0210
      7 C6         10.3133   -7.4543    0.3407 C.ar    1  NONAME1    -0.0449
      8 C7         10.2883   -8.8280    0.1108 C.ar    1  NONAME1     0.0552
      9 C8         11.5853   -9.5311   -0.0857 C.2     1  NONAME1     0.2498
     10 O1         12.5472   -8.8218   -0.3778 O.2     1  NONAME1    -0.2698
     11 N2         11.6280  -10.9050    0.0679 N.am    1  NONAME1    -0.2799
     12 C9         12.7919  -11.7243    0.0203 C.ar    1  NONAME1     0.0545
     13 C10        14.0945  -11.2237   -0.0714 C.ar    1  NONAME1    -0.0387
     14 C11        15.1973  -12.0828   -0.0344 C.ar    1  NONAME1    -0.0599
     15 C12        15.0109  -13.4542    0.1036 C.ar    1  NONAME1    -0.0599
     16 C13        13.7186  -13.9733    0.1847 C.ar    1  NONAME1    -0.0392
     17 C14        12.6053  -13.1211    0.1192 C.ar    1  NONAME1     0.0461
     18 N3         11.2981  -13.6689    0.1545 N.pl3   1  NONAME1    -0.3565
     19 C15         9.0358   -9.4024    0.0270 C.ar    1  NONAME1     0.0418
     20 N4          7.8626   -8.7071    0.1419 N.ar    1  NONAME1    -0.2396
     21 C16         5.4617   -7.4747    0.3591 C.3     1  NONAME1     0.0295
     22 C17         4.1278   -6.7231    0.5705 C.3     1  NONAME1     0.0339
     23 N5          4.0931   -5.2604    0.4665 N.am    1  NONAME1    -0.2617
     24 C18         2.8111   -4.7092    0.4308 C.2     1  NONAME1     0.4035
     25 O2          1.8010   -5.3824    0.6220 O.2     1  NONAME1    -0.2262
     26 O3          2.7614   -3.3711    0.1701 O.3     1  NONAME1    -0.4455
     27 C19         1.4184   -2.8552    0.1232 C.3     1  NONAME1     0.1191
     28 C20         1.3407   -1.3415    0.0529 C.ar    1  NONAME1    -0.0103
     29 C21         0.0831   -0.7183    0.0950 C.ar    1  NONAME1    -0.0554
     30 C22        -0.0298    0.6753    0.0410 C.ar    1  NONAME1    -0.0614
     31 C23         1.1117    1.4663   -0.0560 C.ar    1  NONAME1    -0.0617
     32 C24         2.3641    0.8655   -0.1058 C.ar    1  NONAME1    -0.0614
     33 C25         2.4705   -0.5267   -0.0565 C.ar    1  NONAME1    -0.0554
     34 H1          6.3275   -2.9645   -0.4801 H       1  NONAME1     0.0248
     35 H2          5.3347   -1.5400    0.0000 H       1  NONAME1     0.0248
     36 H3          5.4346   -2.9707    1.0998 H       1  NONAME1     0.0248
     37 H4          5.3760   -4.9018   -1.0634 H       1  NONAME1     0.0514
     38 H5          6.5201   -5.0967    1.7798 H       1  NONAME1     0.0482
     39 H6          7.4514   -4.6938    0.3272 H       1  NONAME1     0.0482
     40 H7          9.2101   -5.6656    0.6363 H       1  NONAME1     0.0652
     41 H8         11.2623   -6.9262    0.4094 H       1  NONAME1     0.0627
     42 H9         10.7969  -11.4221    0.3284 H       1  NONAME1     0.1552
     43 H10        14.2964  -10.1613   -0.1473 H       1  NONAME1     0.0637
     44 H11        16.2026  -11.6718   -0.0976 H       1  NONAME1     0.0618
     45 H12        15.8717  -14.1170    0.1450 H       1  NONAME1     0.0618
     46 H13        13.5937  -15.0478    0.2837 H       1  NONAME1     0.0636
     47 H14        10.7824  -13.3730   -0.6720 H       1  NONAME1     0.1424
     48 H15        11.3175  -14.6858    0.1943 H       1  NONAME1     0.1424
     49 H16         8.8935  -10.4601   -0.1678 H       1  NONAME1     0.0838
     50 H17         5.4083   -7.9729   -0.6188 H       1  NONAME1     0.0480
     51 H18         5.5045   -8.2722    1.1133 H       1  NONAME1     0.0480
     52 H19         3.4108   -7.1239   -0.1606 H       1  NONAME1     0.0481
     53 H20         3.7186   -6.9807    1.5553 H       1  NONAME1     0.0481
     54 H21         0.9277   -3.2613   -0.7695 H       1  NONAME1     0.0749
     55 H22         0.8763   -3.1684    1.0245 H       1  NONAME1     0.0749
     56 H23        -0.8218   -1.3180    0.1732 H       1  NONAME1     0.0621
     57 H24        -1.0108    1.1426    0.0760 H       1  NONAME1     0.0618
     58 H25         1.0243    2.5498   -0.0934 H       1  NONAME1     0.0618
     59 H26         3.2592    1.4768   -0.1824 H       1  NONAME1     0.0618
     60 H27         3.4521   -0.9714   -0.1043 H       1  NONAME1     0.0621
@<TRIPOS>BOND
     1     2     1    1
     2     2     3    1
     3     3     4    1
     4     4     5    1
     5     5     6   ar
     6     6     7   ar
     7     7     8   ar
     8     8     9    1
     9     9    10    2
    10     9    11   am
    11    11    12    1
    12    12    13   ar
    13    13    14   ar
    14    14    15   ar
    15    15    16   ar
    16    16    17   ar
    17    12    17   ar
    18    17    18    1
    19     8    19   ar
    20    19    20   ar
    21     5    20   ar
    22     4    21    1
    23    21    22    1
    24    22    23    1
    25     2    23    1
    26    23    24   am
    27    24    25    2
    28    24    26    1
    29    26    27    1
    30    27    28    1
    31    28    29   ar
    32    29    30   ar
    33    30    31   ar
    34    31    32   ar
    35    32    33   ar
    36    28    33   ar
    37     1    34    1
    38     1    35    1
    39     1    36    1
    40     2    37    1
    41     3    38    1
    42     3    39    1
    43     6    40    1
    44     7    41    1
    45    11    42    1
    46    13    43    1
    47    14    44    1
    48    15    45    1
    49    16    46    1
    50    18    47    1
    51    18    48    1
    52    19    49    1
    53    21    50    1
    54    21    51    1
    55    22    52    1
    56    22    53    1
    57    27    54    1
    58    27    55    1
    59    29    56    1
    60    30    57    1
    61    31    58    1
    62    32    59    1
    63    33    60    1
