MODEL 1
REMARK VINA RESULT:    -8.032      0.000      0.000
REMARK INTER + INTRA:         -11.425
REMARK INTER:                  -9.822
REMARK INTRA:                  -1.603
REMARK CONF_INDEPENDENT:        1.790
REMARK UNBOUND:                -1.603
REMARK  6 active torsions:
REMARK  status: ('A' for Active; 'I' for Inactive)
REMARK    1  A    between atoms: O_2  and  C_3 
REMARK    2  A    between atoms: C_6  and  C_7 
REMARK       I    between atoms: C_7  and  N_9 
REMARK    3  A    between atoms: N_9  and  C_10 
REMARK    4  A    between atoms: C_10  and  N_12 
REMARK    5  A    between atoms: N_12  and  C_13 
REMARK    6  A    between atoms: C_16  and  N_17 
ROOT
ATOM      1  N   UNL d   1      25.430 -12.626  -4.241  0.00  0.00    -0.333 N 
ATOM      2  H   UNL d   1      24.417 -12.609  -4.307  0.00  0.00     0.168 HD
ENDROOT
BRANCH   1   3
ATOM      3  C   UNL d   1      26.202 -12.279  -5.393  0.00  0.00     0.179 C 
ATOM      4  S   UNL d   1      25.720 -11.075  -6.486  0.00  0.00    -0.040 SA
BRANCH   3   5
ATOM      5  N   UNL d   1      27.415 -12.995  -5.540  0.00  0.00    -0.299 N 
ATOM      6  C   UNL d   1      27.512 -14.394  -5.763  0.00  0.00     0.257 C 
ATOM      7  O   UNL d   1      26.545 -15.165  -5.770  0.00  0.00    -0.267 OA
ATOM      8  H   UNL d   1      28.272 -12.462  -5.514  0.00  0.00     0.171 HD
BRANCH   6   9
ATOM      9  C   UNL d   1      28.815 -15.084  -5.984  0.00  0.00     0.033 A 
ATOM     10  C   UNL d   1      29.724 -14.539  -6.921  0.00  0.00     0.020 A 
ATOM     11  C   UNL d   1      30.960 -15.150  -7.180  0.00  0.00     0.039 A 
ATOM     12  C   UNL d   1      31.308 -16.334  -6.517  0.00  0.00     0.085 A 
ATOM     13  C   UNL d   1      30.434 -16.831  -5.536  0.00  0.00     0.045 A 
ATOM     14  C   UNL d   1      29.190 -16.225  -5.296  0.00  0.00     0.039 A 
ATOM     15 BR   UNL d   1      30.831 -18.247  -4.329  0.00  0.00    -0.048 Br
BRANCH  12  16
ATOM     16  O   UNL d   1      32.535 -16.854  -6.832  0.00  0.00    -0.355 OA
ATOM     17  C   UNL d   1      32.517 -17.851  -7.855  0.00  0.00     0.210 C 
ENDBRANCH  12  16
ENDBRANCH   6   9
ENDBRANCH   3   5
ENDBRANCH   1   3
BRANCH   1  18
ATOM     18  C   UNL d   1      25.986 -13.447  -3.186  0.00  0.00     0.036 A 
ATOM     19  C   UNL d   1      27.225 -13.111  -2.632  0.00  0.00     0.032 A 
ATOM     20  C   UNL d   1      27.934 -13.982  -1.788  0.00  0.00     0.033 A 
ATOM     21  C   UNL d   1      27.418 -15.222  -1.401  0.00  0.00     0.052 A 
ATOM     22  C   UNL d   1      26.121 -15.518  -1.896  0.00  0.00     0.062 A 
ATOM     23 CL   UNL d   1      25.309 -16.986  -1.455  0.00  0.00    -0.082 Cl
ATOM     24  C   UNL d   1      25.396 -14.633  -2.747  0.00  0.00     0.055 A 
BRANCH  21  25
ATOM     25  N   UNL d   1      28.182 -16.035  -0.572  0.00  0.00    -0.376 N 
ATOM     26  C   UNL d   1      28.857 -15.557   0.641  0.00  0.00     0.150 C 
ATOM     27  C   UNL d   1      30.382 -15.780   0.527  0.00  0.00     0.254 C 
ATOM     28  N   UNL d   1      30.701 -17.242   0.187  0.00  0.00    -0.072 N 
ATOM     29  C   UNL d   1      32.180 -17.446   0.017  0.00  0.00     0.269 C 
ATOM     30  C   UNL d   1      29.924 -17.705  -1.054  0.00  0.00     0.254 C 
ATOM     31  H   UNL d   1      30.390 -17.816   0.980  0.00  0.00     0.279 HD
ATOM     32  C   UNL d   1      28.404 -17.450  -0.896  0.00  0.00     0.150 C 
ENDBRANCH  21  25
ENDBRANCH   1  18
TORSDOF 6
ENDMDL
MODEL 2
REMARK VINA RESULT:    -7.720      1.456      1.741
REMARK INTER + INTRA:         -11.220
REMARK INTER:                  -9.510
REMARK INTRA:                  -1.710
REMARK CONF_INDEPENDENT:        1.790
REMARK UNBOUND:                -1.710
REMARK  6 active torsions:
REMARK  status: ('A' for Active; 'I' for Inactive)
REMARK    1  A    between atoms: O_2  and  C_3 
REMARK    2  A    between atoms: C_6  and  C_7 
REMARK       I    between atoms: C_7  and  N_9 
REMARK    3  A    between atoms: N_9  and  C_10 
REMARK    4  A    between atoms: C_10  and  N_12 
REMARK    5  A    between atoms: N_12  and  C_13 
REMARK    6  A    between atoms: C_16  and  N_17 
ROOT
ATOM      1  N   UNL d   1      25.755 -12.253  -4.801  0.00  0.00    -0.333 N 
ATOM      2  H   UNL d   1      24.777 -12.204  -5.066  0.00  0.00     0.168 HD
ENDROOT
BRANCH   1   3
ATOM      3  C   UNL d   1      26.750 -12.220  -5.828  0.00  0.00     0.179 C 
ATOM      4  S   UNL d   1      26.668 -11.153  -7.143  0.00  0.00    -0.040 SA
BRANCH   3   5
ATOM      5  N   UNL d   1      27.826 -13.123  -5.649  0.00  0.00    -0.299 N 
ATOM      6  C   UNL d   1      27.714 -14.538  -5.674  0.00  0.00     0.257 C 
ATOM      7  O   UNL d   1      26.642 -15.147  -5.770  0.00  0.00    -0.267 OA
ATOM      8  H   UNL d   1      28.746 -12.726  -5.526  0.00  0.00     0.171 HD
BRANCH   6   9
ATOM      9  C   UNL d   1      28.894 -15.440  -5.553  0.00  0.00     0.033 A 
ATOM     10  C   UNL d   1      29.714 -15.645  -6.688  0.00  0.00     0.020 A 
ATOM     11  C   UNL d   1      30.831 -16.493  -6.638  0.00  0.00     0.039 A 
ATOM     12  C   UNL d   1      31.144 -17.169  -5.452  0.00  0.00     0.085 A 
ATOM     13  C   UNL d   1      30.370 -16.908  -4.310  0.00  0.00     0.045 A 
ATOM     14  C   UNL d   1      29.241 -16.074  -4.372  0.00  0.00     0.039 A 
ATOM     15 BR   UNL d   1      30.783 -17.490  -2.547  0.00  0.00    -0.048 Br
BRANCH  12  16
ATOM     16  O   UNL d   1      32.254 -17.970  -5.500  0.00  0.00    -0.355 OA
ATOM     17  C   UNL d   1      31.980 -19.363  -5.663  0.00  0.00     0.210 C 
ENDBRANCH  12  16
ENDBRANCH   6   9
ENDBRANCH   3   5
ENDBRANCH   1   3
BRANCH   1  18
ATOM     18  C   UNL d   1      26.036 -12.833  -3.504  0.00  0.00     0.036 A 
ATOM     19  C   UNL d   1      26.916 -12.183  -2.634  0.00  0.00     0.032 A 
ATOM     20  C   UNL d   1      27.420 -12.795  -1.476  0.00  0.00     0.033 A 
ATOM     21  C   UNL d   1      27.029 -14.080  -1.086  0.00  0.00     0.052 A 
ATOM     22  C   UNL d   1      26.067 -14.699  -1.927  0.00  0.00     0.062 A 
ATOM     23 CL   UNL d   1      25.425 -16.266  -1.549  0.00  0.00    -0.082 Cl
ATOM     24  C   UNL d   1      25.548 -14.077  -3.101  0.00  0.00     0.055 A 
BRANCH  21  25
ATOM     25  N   UNL d   1      27.578 -14.626   0.067  0.00  0.00    -0.376 N 
ATOM     26  C   UNL d   1      27.350 -14.085   1.413  0.00  0.00     0.150 C 
ATOM     27  C   UNL d   1      28.692 -13.669   2.056  0.00  0.00     0.254 C 
ATOM     28  N   UNL d   1      29.701 -14.825   2.025  0.00  0.00    -0.072 N 
ATOM     29  C   UNL d   1      31.024 -14.401   2.595  0.00  0.00     0.269 C 
ATOM     30  C   UNL d   1      29.855 -15.388   0.605  0.00  0.00     0.254 C 
ATOM     31  H   UNL d   1      29.325 -15.575   2.618  0.00  0.00     0.279 HD
ATOM     32  C   UNL d   1      28.483 -15.780   0.001  0.00  0.00     0.150 C 
ENDBRANCH  21  25
ENDBRANCH   1  18
TORSDOF 6
ENDMDL
MODEL 3
REMARK VINA RESULT:    -7.526      3.394      4.906
REMARK INTER + INTRA:         -10.153
REMARK INTER:                  -9.316
REMARK INTRA:                  -0.838
REMARK CONF_INDEPENDENT:        1.790
REMARK UNBOUND:                -0.838
REMARK  6 active torsions:
REMARK  status: ('A' for Active; 'I' for Inactive)
REMARK    1  A    between atoms: O_2  and  C_3 
REMARK    2  A    between atoms: C_6  and  C_7 
REMARK       I    between atoms: C_7  and  N_9 
REMARK    3  A    between atoms: N_9  and  C_10 
REMARK    4  A    between atoms: C_10  and  N_12 
REMARK    5  A    between atoms: N_12  and  C_13 
REMARK    6  A    between atoms: C_16  and  N_17 
ROOT
ATOM      1  N   UNL d   1      28.198 -14.277  -4.021  0.00  0.00    -0.333 N 
ATOM      2  H   UNL d   1      28.213 -13.304  -3.731  0.00  0.00     0.168 HD
ENDROOT
BRANCH   1   3
ATOM      3  C   UNL d   1      28.553 -14.600  -5.368  0.00  0.00     0.179 C 
ATOM      4  S   UNL d   1      28.552 -13.449  -6.613  0.00  0.00    -0.040 SA
BRANCH   3   5
ATOM      5  N   UNL d   1      28.935 -15.947  -5.581  0.00  0.00    -0.299 N 
ATOM      6  C   UNL d   1      30.070 -16.363  -6.325  0.00  0.00     0.257 C 
ATOM      7  O   UNL d   1      30.811 -15.594  -6.948  0.00  0.00    -0.267 OA
ATOM      8  H   UNL d   1      28.372 -16.661  -5.143  0.00  0.00     0.171 HD
BRANCH   6   9
ATOM      9  C   UNL d   1      30.465 -17.795  -6.455  0.00  0.00     0.033 A 
ATOM     10  C   UNL d   1      30.406 -18.624  -5.311  0.00  0.00     0.020 A 
ATOM     11  C   UNL d   1      30.777 -19.976  -5.368  0.00  0.00     0.039 A 
ATOM     12  C   UNL d   1      31.233 -20.525  -6.573  0.00  0.00     0.085 A 
ATOM     13  C   UNL d   1      31.223 -19.717  -7.722  0.00  0.00     0.045 A 
ATOM     14  C   UNL d   1      30.869 -18.360  -7.653  0.00  0.00     0.039 A 
ATOM     15 BR   UNL d   1      31.527 -20.330  -9.497  0.00  0.00    -0.048 Br
BRANCH  12  16
ATOM     16  O   UNL d   1      31.568 -21.853  -6.532  0.00  0.00    -0.355 OA
ATOM     17  C   UNL d   1      32.968 -22.119  -6.637  0.00  0.00     0.210 C 
ENDBRANCH  12  16
ENDBRANCH   6   9
ENDBRANCH   3   5
ENDBRANCH   1   3
BRANCH   1  18
ATOM     18  C   UNL d   1      27.372 -15.165  -3.230  0.00  0.00     0.036 A 
ATOM     19  C   UNL d   1      25.991 -15.197  -3.448  0.00  0.00     0.032 A 
ATOM     20  C   UNL d   1      25.104 -15.841  -2.570  0.00  0.00     0.033 A 
ATOM     21  C   UNL d   1      25.553 -16.544  -1.448  0.00  0.00     0.052 A 
ATOM     22  C   UNL d   1      26.963 -16.582  -1.283  0.00  0.00     0.062 A 
ATOM     23 CL   UNL d   1      27.687 -17.469   0.021  0.00  0.00    -0.082 Cl
ATOM     24  C   UNL d   1      27.866 -15.934  -2.176  0.00  0.00     0.055 A 
BRANCH  21  25
ATOM     25  N   UNL d   1      24.616 -17.149  -0.618  0.00  0.00    -0.376 N 
ATOM     26  C   UNL d   1      24.691 -18.552  -0.192  0.00  0.00     0.150 C 
ATOM     27  C   UNL d   1      23.435 -19.320  -0.662  0.00  0.00     0.254 C 
ATOM     28  N   UNL d   1      22.152 -18.611  -0.207  0.00  0.00    -0.072 N 
ATOM     29  C   UNL d   1      20.932 -19.326  -0.715  0.00  0.00     0.269 C 
ATOM     30  C   UNL d   1      22.156 -17.135  -0.629  0.00  0.00     0.254 C 
ATOM     31  H   UNL d   1      22.134 -18.641   0.820  0.00  0.00     0.279 HD
ATOM     32  C   UNL d   1      23.438 -16.412  -0.145  0.00  0.00     0.150 C 
ENDBRANCH  21  25
ENDBRANCH   1  18
TORSDOF 6
ENDMDL
MODEL 4
REMARK VINA RESULT:    -7.520      3.497      6.096
REMARK INTER + INTRA:         -10.342
REMARK INTER:                  -9.309
REMARK INTRA:                  -1.032
REMARK CONF_INDEPENDENT:        1.790
REMARK UNBOUND:                -1.032
REMARK  6 active torsions:
REMARK  status: ('A' for Active; 'I' for Inactive)
REMARK    1  A    between atoms: O_2  and  C_3 
REMARK    2  A    between atoms: C_6  and  C_7 
REMARK       I    between atoms: C_7  and  N_9 
REMARK    3  A    between atoms: N_9  and  C_10 
REMARK    4  A    between atoms: C_10  and  N_12 
REMARK    5  A    between atoms: N_12  and  C_13 
REMARK    6  A    between atoms: C_16  and  N_17 
ROOT
ATOM      1  N   UNL d   1      28.459 -12.916  -5.381  0.00  0.00    -0.333 N 
ATOM      2  H   UNL d   1      28.965 -12.043  -5.486  0.00  0.00     0.168 HD
ENDROOT
BRANCH   1   3
ATOM      3  C   UNL d   1      27.151 -12.888  -4.803  0.00  0.00     0.179 C 
ATOM      4  S   UNL d   1      25.932 -11.846  -5.354  0.00  0.00    -0.040 SA
BRANCH   3   5
ATOM      5  N   UNL d   1      26.939 -13.817  -3.755  0.00  0.00    -0.299 N 
ATOM      6  C   UNL d   1      25.753 -14.575  -3.567  0.00  0.00     0.257 C 
ATOM      7  O   UNL d   1      24.732 -14.446  -4.252  0.00  0.00    -0.267 OA
ATOM      8  H   UNL d   1      27.702 -13.971  -3.113  0.00  0.00     0.171 HD
BRANCH   6   9
ATOM      9  C   UNL d   1      25.613 -15.593  -2.487  0.00  0.00     0.033 A 
ATOM     10  C   UNL d   1      26.777 -16.048  -1.825  0.00  0.00     0.020 A 
ATOM     11  C   UNL d   1      26.709 -17.014  -0.809  0.00  0.00     0.039 A 
ATOM     12  C   UNL d   1      25.472 -17.560  -0.445  0.00  0.00     0.085 A 
ATOM     13  C   UNL d   1      24.313 -17.055  -1.056  0.00  0.00     0.045 A 
ATOM     14  C   UNL d   1      24.390 -16.102  -2.085  0.00  0.00     0.039 A 
ATOM     15 BR   UNL d   1      22.530 -17.444  -0.518  0.00  0.00    -0.048 Br
BRANCH  12  16
ATOM     16  O   UNL d   1      25.506 -18.493   0.558  0.00  0.00    -0.355 OA
ATOM     17  C   UNL d   1      26.750 -18.574   1.256  0.00  0.00     0.210 C 
ENDBRANCH  12  16
ENDBRANCH   6   9
ENDBRANCH   3   5
ENDBRANCH   1   3
BRANCH   1  18
ATOM     18  C   UNL d   1      29.262 -14.120  -5.359  0.00  0.00     0.036 A 
ATOM     19  C   UNL d   1      29.578 -14.760  -6.562  0.00  0.00     0.032 A 
ATOM     20  C   UNL d   1      30.138 -16.046  -6.607  0.00  0.00     0.033 A 
ATOM     21  C   UNL d   1      30.471 -16.750  -5.445  0.00  0.00     0.052 A 
ATOM     22  C   UNL d   1      30.230 -16.058  -4.229  0.00  0.00     0.062 A 
ATOM     23 CL   UNL d   1      30.650 -16.764  -2.701  0.00  0.00    -0.082 Cl
ATOM     24  C   UNL d   1      29.667 -14.749  -4.181  0.00  0.00     0.055 A 
BRANCH  21  25
ATOM     25  N   UNL d   1      31.013 -18.024  -5.567  0.00  0.00    -0.376 N 
ATOM     26  C   UNL d   1      30.451 -19.070  -6.431  0.00  0.00     0.150 C 
ATOM     27  C   UNL d   1      30.052 -20.302  -5.588  0.00  0.00     0.254 C 
ATOM     28  N   UNL d   1      31.228 -20.787  -4.730  0.00  0.00    -0.072 N 
ATOM     29  C   UNL d   1      30.822 -21.948  -3.867  0.00  0.00     0.269 C 
ATOM     30  C   UNL d   1      31.812 -19.641  -3.892  0.00  0.00     0.254 C 
ATOM     31  H   UNL d   1      31.963 -21.109  -5.371  0.00  0.00     0.279 HD
ATOM     32  C   UNL d   1      32.185 -18.426  -4.779  0.00  0.00     0.150 C 
ENDBRANCH  21  25
ENDBRANCH   1  18
TORSDOF 6
ENDMDL
MODEL 5
REMARK VINA RESULT:    -7.488      6.058      8.913
REMARK INTER + INTRA:         -10.137
REMARK INTER:                  -9.278
REMARK INTRA:                  -0.859
REMARK CONF_INDEPENDENT:        1.790
REMARK UNBOUND:                -0.859
REMARK  6 active torsions:
REMARK  status: ('A' for Active; 'I' for Inactive)
REMARK    1  A    between atoms: O_2  and  C_3 
REMARK    2  A    between atoms: C_6  and  C_7 
REMARK       I    between atoms: C_7  and  N_9 
REMARK    3  A    between atoms: N_9  and  C_10 
REMARK    4  A    between atoms: C_10  and  N_12 
REMARK    5  A    between atoms: N_12  and  C_13 
REMARK    6  A    between atoms: C_16  and  N_17 
ROOT
ATOM      1  N   UNL d   1      25.798 -17.445   0.182  0.00  0.00    -0.333 N 
ATOM      2  H   UNL d   1      25.828 -18.432   0.414  0.00  0.00     0.168 HD
ENDROOT
BRANCH   1   3
ATOM      3  C   UNL d   1      24.674 -16.941  -0.545  0.00  0.00     0.179 C 
ATOM      4  S   UNL d   1      24.833 -15.825  -1.812  0.00  0.00    -0.040 SA
BRANCH   3   5
ATOM      5  N   UNL d   1      23.420 -17.467  -0.150  0.00  0.00    -0.299 N 
ATOM      6  C   UNL d   1      22.668 -18.419  -0.888  0.00  0.00     0.257 C 
ATOM      7  O   UNL d   1      22.984 -18.836  -2.008  0.00  0.00    -0.267 OA
ATOM      8  H   UNL d   1      23.051 -17.162   0.739  0.00  0.00     0.171 HD
BRANCH   6   9
ATOM      9  C   UNL d   1      21.386 -18.992  -0.387  0.00  0.00     0.033 A 
ATOM     10  C   UNL d   1      20.341 -19.234  -1.310  0.00  0.00     0.020 A 
ATOM     11  C   UNL d   1      19.108 -19.760  -0.896  0.00  0.00     0.039 A 
ATOM     12  C   UNL d   1      18.887 -20.042   0.458  0.00  0.00     0.085 A 
ATOM     13  C   UNL d   1      19.951 -19.868   1.359  0.00  0.00     0.045 A 
ATOM     14  C   UNL d   1      21.175 -19.322   0.941  0.00  0.00     0.039 A 
ATOM     15 BR   UNL d   1      19.961 -20.450   3.171  0.00  0.00    -0.048 Br
BRANCH  12  16
ATOM     16  O   UNL d   1      17.655 -20.557   0.765  0.00  0.00    -0.355 OA
ATOM     17  C   UNL d   1      17.653 -21.950   1.085  0.00  0.00     0.210 C 
ENDBRANCH  12  16
ENDBRANCH   6   9
ENDBRANCH   3   5
ENDBRANCH   1   3
BRANCH   1  18
ATOM     18  C   UNL d   1      27.071 -16.755   0.166  0.00  0.00     0.036 A 
ATOM     19  C   UNL d   1      28.117 -17.258  -0.613  0.00  0.00     0.032 A 
ATOM     20  C   UNL d   1      29.436 -16.792  -0.495  0.00  0.00     0.033 A 
ATOM     21  C   UNL d   1      29.779 -15.751   0.373  0.00  0.00     0.052 A 
ATOM     22  C   UNL d   1      28.696 -15.185   1.095  0.00  0.00     0.062 A 
ATOM     23 CL   UNL d   1      28.939 -13.840   2.165  0.00  0.00    -0.082 Cl
ATOM     24  C   UNL d   1      27.354 -15.652   0.972  0.00  0.00     0.055 A 
BRANCH  21  25
ATOM     25  N   UNL d   1      31.108 -15.349   0.445  0.00  0.00    -0.376 N 
ATOM     26  C   UNL d   1      32.121 -16.027   1.264  0.00  0.00     0.150 C 
ATOM     27  C   UNL d   1      32.710 -15.047   2.303  0.00  0.00     0.254 C 
ATOM     28  N   UNL d   1      33.227 -13.770   1.627  0.00  0.00    -0.072 N 
ATOM     29  C   UNL d   1      33.745 -12.793   2.643  0.00  0.00     0.269 C 
ATOM     30  C   UNL d   1      32.146 -13.137   0.739  0.00  0.00     0.254 C 
ATOM     31  H   UNL d   1      34.009 -14.041   1.018  0.00  0.00     0.279 HD
ATOM     32  C   UNL d   1      31.579 -14.160  -0.277  0.00  0.00     0.150 C 
ENDBRANCH  21  25
ENDBRANCH   1  18
TORSDOF 6
ENDMDL
MODEL 6
REMARK VINA RESULT:    -7.412      5.937      7.536
REMARK INTER + INTRA:         -10.456
REMARK INTER:                  -9.202
REMARK INTRA:                  -1.254
REMARK CONF_INDEPENDENT:        1.790
REMARK UNBOUND:                -1.254
REMARK  6 active torsions:
REMARK  status: ('A' for Active; 'I' for Inactive)
REMARK    1  A    between atoms: O_2  and  C_3 
REMARK    2  A    between atoms: C_6  and  C_7 
REMARK       I    between atoms: C_7  and  N_9 
REMARK    3  A    between atoms: N_9  and  C_10 
REMARK    4  A    between atoms: C_10  and  N_12 
REMARK    5  A    between atoms: N_12  and  C_13 
REMARK    6  A    between atoms: C_16  and  N_17 
ROOT
ATOM      1  N   UNL d   1      27.037 -13.735   2.616  0.00  0.00    -0.333 N 
ATOM      2  H   UNL d   1      26.864 -14.687   2.309  0.00  0.00     0.168 HD
ENDROOT
BRANCH   1   3
ATOM      3  C   UNL d   1      26.961 -12.677   1.658  0.00  0.00     0.179 C 
ATOM      4  S   UNL d   1      26.674 -11.065   2.100  0.00  0.00    -0.040 SA
BRANCH   3   5
ATOM      5  N   UNL d   1      27.173 -13.068   0.314  0.00  0.00    -0.299 N 
ATOM      6  C   UNL d   1      26.693 -14.270  -0.269  0.00  0.00     0.257 C 
ATOM      7  O   UNL d   1      26.103 -15.158   0.358  0.00  0.00    -0.267 OA
ATOM      8  H   UNL d   1      27.679 -12.427  -0.280  0.00  0.00     0.171 HD
BRANCH   6   9
ATOM      9  C   UNL d   1      26.884 -14.596  -1.711  0.00  0.00     0.033 A 
ATOM     10  C   UNL d   1      25.918 -14.152  -2.644  0.00  0.00     0.020 A 
ATOM     11  C   UNL d   1      26.038 -14.440  -4.013  0.00  0.00     0.039 A 
ATOM     12  C   UNL d   1      27.123 -15.194  -4.476  0.00  0.00     0.085 A 
ATOM     13  C   UNL d   1      28.115 -15.572  -3.558  0.00  0.00     0.045 A 
ATOM     14  C   UNL d   1      27.979 -15.298  -2.187  0.00  0.00     0.039 A 
ATOM     15 BR   UNL d   1      29.793 -16.345  -4.011  0.00  0.00    -0.048 Br
BRANCH  12  16
ATOM     16  O   UNL d   1      27.156 -15.420  -5.827  0.00  0.00    -0.355 OA
ATOM     17  C   UNL d   1      28.166 -14.693  -6.529  0.00  0.00     0.210 C 
ENDBRANCH  12  16
ENDBRANCH   6   9
ENDBRANCH   3   5
ENDBRANCH   1   3
BRANCH   1  18
ATOM     18  C   UNL d   1      27.805 -13.590   3.835  0.00  0.00     0.036 A 
ATOM     19  C   UNL d   1      28.190 -14.730   4.547  0.00  0.00     0.032 A 
ATOM     20  C   UNL d   1      28.718 -14.664   5.846  0.00  0.00     0.033 A 
ATOM     21  C   UNL d   1      28.949 -13.445   6.492  0.00  0.00     0.052 A 
ATOM     22  C   UNL d   1      28.639 -12.289   5.728  0.00  0.00     0.062 A 
ATOM     23 CL   UNL d   1      28.929 -10.698   6.356  0.00  0.00    -0.082 Cl
ATOM     24  C   UNL d   1      28.108 -12.353   4.406  0.00  0.00     0.055 A 
BRANCH  21  25
ATOM     25  N   UNL d   1      29.465 -13.458   7.782  0.00  0.00    -0.376 N 
ATOM     26  C   UNL d   1      30.901 -13.421   8.085  0.00  0.00     0.150 C 
ATOM     27  C   UNL d   1      31.312 -14.682   8.878  0.00  0.00     0.254 C 
ATOM     28  N   UNL d   1      30.431 -14.865  10.120  0.00  0.00    -0.072 N 
ATOM     29  C   UNL d   1      30.791 -16.123  10.857  0.00  0.00     0.269 C 
ATOM     30  C   UNL d   1      28.940 -14.838   9.751  0.00  0.00     0.254 C 
ATOM     31  H   UNL d   1      30.611 -14.068  10.743  0.00  0.00     0.279 HD
ATOM     32  C   UNL d   1      28.580 -13.562   8.949  0.00  0.00     0.150 C 
ENDBRANCH  21  25
ENDBRANCH   1  18
TORSDOF 6
ENDMDL
MODEL 7
REMARK VINA RESULT:    -7.352      7.012     10.562
REMARK INTER + INTRA:         -10.045
REMARK INTER:                  -9.142
REMARK INTRA:                  -0.903
REMARK CONF_INDEPENDENT:        1.790
REMARK UNBOUND:                -0.903
REMARK  6 active torsions:
REMARK  status: ('A' for Active; 'I' for Inactive)
REMARK    1  A    between atoms: O_2  and  C_3 
REMARK    2  A    between atoms: C_6  and  C_7 
REMARK       I    between atoms: C_7  and  N_9 
REMARK    3  A    between atoms: N_9  and  C_10 
REMARK    4  A    between atoms: C_10  and  N_12 
REMARK    5  A    between atoms: N_12  and  C_13 
REMARK    6  A    between atoms: C_16  and  N_17 
ROOT
ATOM      1  N   UNL d   1      29.642 -13.230   2.245  0.00  0.00    -0.333 N 
ATOM      2  H   UNL d   1      29.613 -12.233   2.060  0.00  0.00     0.168 HD
ENDROOT
BRANCH   1   3
ATOM      3  C   UNL d   1      30.738 -13.760   2.996  0.00  0.00     0.179 C 
ATOM      4  S   UNL d   1      32.072 -14.505   2.261  0.00  0.00    -0.040 SA
BRANCH   3   5
ATOM      5  N   UNL d   1      30.642 -13.590   4.399  0.00  0.00    -0.299 N 
ATOM      6  C   UNL d   1      29.428 -13.583   5.136  0.00  0.00     0.257 C 
ATOM      7  O   UNL d   1      28.304 -13.639   4.624  0.00  0.00    -0.267 OA
ATOM      8  H   UNL d   1      31.505 -13.498   4.913  0.00  0.00     0.171 HD
BRANCH   6   9
ATOM      9  C   UNL d   1      29.392 -13.473   6.623  0.00  0.00     0.033 A 
ATOM     10  C   UNL d   1      28.357 -12.720   7.225  0.00  0.00     0.020 A 
ATOM     11  C   UNL d   1      28.279 -12.570   8.618  0.00  0.00     0.039 A 
ATOM     12  C   UNL d   1      29.247 -13.160   9.440  0.00  0.00     0.085 A 
ATOM     13  C   UNL d   1      30.230 -13.965   8.843  0.00  0.00     0.045 A 
ATOM     14  C   UNL d   1      30.315 -14.094   7.447  0.00  0.00     0.039 A 
ATOM     15 BR   UNL d   1      31.457 -15.076   9.781  0.00  0.00    -0.048 Br
BRANCH  12  16
ATOM     16  O   UNL d   1      29.084 -12.962  10.786  0.00  0.00    -0.355 OA
ATOM     17  C   UNL d   1      27.778 -13.269  11.281  0.00  0.00     0.210 C 
ENDBRANCH  12  16
ENDBRANCH   6   9
ENDBRANCH   3   5
ENDBRANCH   1   3
BRANCH   1  18
ATOM     18  C   UNL d   1      28.874 -14.068   1.348  0.00  0.00     0.036 A 
ATOM     19  C   UNL d   1      27.490 -13.893   1.258  0.00  0.00     0.032 A 
ATOM     20  C   UNL d   1      26.655 -14.813   0.604  0.00  0.00     0.033 A 
ATOM     21  C   UNL d   1      27.163 -15.939  -0.052  0.00  0.00     0.052 A 
ATOM     22  C   UNL d   1      28.577 -16.062  -0.031  0.00  0.00     0.062 A 
ATOM     23 CL   UNL d   1      29.372 -17.366  -0.855  0.00  0.00    -0.082 Cl
ATOM     24  C   UNL d   1      29.428 -15.126   0.627  0.00  0.00     0.055 A 
BRANCH  21  25
ATOM     25  N   UNL d   1      26.275 -16.811  -0.669  0.00  0.00    -0.376 N 
ATOM     26  C   UNL d   1      25.444 -16.446  -1.823  0.00  0.00     0.150 C 
ATOM     27  C   UNL d   1      23.946 -16.603  -1.474  0.00  0.00     0.254 C 
ATOM     28  N   UNL d   1      23.651 -18.007  -0.929  0.00  0.00    -0.072 N 
ATOM     29  C   UNL d   1      22.208 -18.139  -0.534  0.00  0.00     0.269 C 
ATOM     30  C   UNL d   1      24.587 -18.357   0.237  0.00  0.00     0.254 C 
ATOM     31  H   UNL d   1      23.836 -18.675  -1.687  0.00  0.00     0.279 HD
ATOM     32  C   UNL d   1      26.074 -18.173  -0.158  0.00  0.00     0.150 C 
ENDBRANCH  21  25
ENDBRANCH   1  18
TORSDOF 6
ENDMDL
MODEL 8
REMARK VINA RESULT:    -7.148      5.447      9.172
REMARK INTER + INTRA:         -10.357
REMARK INTER:                  -8.938
REMARK INTRA:                  -1.419
REMARK CONF_INDEPENDENT:        1.790
REMARK UNBOUND:                -1.419
REMARK  6 active torsions:
REMARK  status: ('A' for Active; 'I' for Inactive)
REMARK    1  A    between atoms: O_2  and  C_3 
REMARK    2  A    between atoms: C_6  and  C_7 
REMARK       I    between atoms: C_7  and  N_9 
REMARK    3  A    between atoms: N_9  and  C_10 
REMARK    4  A    between atoms: C_10  and  N_12 
REMARK    5  A    between atoms: N_12  and  C_13 
REMARK    6  A    between atoms: C_16  and  N_17 
ROOT
ATOM      1  N   UNL d   1      27.608 -14.457  -0.237  0.00  0.00    -0.333 N 
ATOM      2  H   UNL d   1      27.785 -13.519   0.108  0.00  0.00     0.168 HD
ENDROOT
BRANCH   1   3
ATOM      3  C   UNL d   1      27.591 -15.542   0.695  0.00  0.00     0.179 C 
ATOM      4  S   UNL d   1      27.144 -17.117   0.253  0.00  0.00    -0.040 SA
BRANCH   3   5
ATOM      5  N   UNL d   1      28.003 -15.211   2.009  0.00  0.00    -0.299 N 
ATOM      6  C   UNL d   1      27.722 -13.983   2.664  0.00  0.00     0.257 C 
ATOM      7  O   UNL d   1      27.155 -13.024   2.129  0.00  0.00    -0.267 OA
ATOM      8  H   UNL d   1      28.508 -15.915   2.526  0.00  0.00     0.171 HD
BRANCH   6   9
ATOM      9  C   UNL d   1      28.120 -13.718   4.077  0.00  0.00     0.033 A 
ATOM     10  C   UNL d   1      28.426 -14.815   4.916  0.00  0.00     0.020 A 
ATOM     11  C   UNL d   1      28.794 -14.628   6.257  0.00  0.00     0.039 A 
ATOM     12  C   UNL d   1      28.847 -13.335   6.794  0.00  0.00     0.085 A 
ATOM     13  C   UNL d   1      28.611 -12.246   5.939  0.00  0.00     0.045 A 
ATOM     14  C   UNL d   1      28.225 -12.442   4.603  0.00  0.00     0.039 A 
ATOM     15 BR   UNL d   1      28.905 -10.419   6.382  0.00  0.00    -0.048 Br
BRANCH  12  16
ATOM     16  O   UNL d   1      29.220 -13.253   8.110  0.00  0.00    -0.355 OA
ATOM     17  C   UNL d   1      30.413 -13.968   8.438  0.00  0.00     0.210 C 
ENDBRANCH  12  16
ENDBRANCH   6   9
ENDBRANCH   3   5
ENDBRANCH   1   3
BRANCH   1  18
ATOM     18  C   UNL d   1      27.878 -14.681  -1.642  0.00  0.00     0.036 A 
ATOM     19  C   UNL d   1      29.163 -14.452  -2.142  0.00  0.00     0.032 A 
ATOM     20  C   UNL d   1      29.441 -14.412  -3.518  0.00  0.00     0.033 A 
ATOM     21  C   UNL d   1      28.456 -14.656  -4.480  0.00  0.00     0.052 A 
ATOM     22  C   UNL d   1      27.173 -14.976  -3.962  0.00  0.00     0.062 A 
ATOM     23 CL   UNL d   1      25.856 -15.371  -5.020  0.00  0.00    -0.082 Cl
ATOM     24  C   UNL d   1      26.890 -15.023  -2.566  0.00  0.00     0.055 A 
BRANCH  21  25
ATOM     25  N   UNL d   1      28.802 -14.589  -5.824  0.00  0.00    -0.376 N 
ATOM     26  C   UNL d   1      29.657 -15.576  -6.495  0.00  0.00     0.150 C 
ATOM     27  C   UNL d   1      30.918 -14.889  -7.067  0.00  0.00     0.254 C 
ATOM     28  N   UNL d   1      30.541 -13.700  -7.961  0.00  0.00    -0.072 N 
ATOM     29  C   UNL d   1      31.767 -12.997  -8.468  0.00  0.00     0.269 C 
ATOM     30  C   UNL d   1      29.601 -12.732  -7.228  0.00  0.00     0.254 C 
ATOM     31  H   UNL d   1      30.031 -14.075  -8.770  0.00  0.00     0.279 HD
ATOM     32  C   UNL d   1      28.360 -13.469  -6.664  0.00  0.00     0.150 C 
ENDBRANCH  21  25
ENDBRANCH   1  18
TORSDOF 6
ENDMDL
MODEL 9
REMARK VINA RESULT:    -6.811      6.708      8.417
REMARK INTER + INTRA:         -10.124
REMARK INTER:                  -8.601
REMARK INTRA:                  -1.523
REMARK CONF_INDEPENDENT:        1.790
REMARK UNBOUND:                -1.523
REMARK  6 active torsions:
REMARK  status: ('A' for Active; 'I' for Inactive)
REMARK    1  A    between atoms: O_2  and  C_3 
REMARK    2  A    between atoms: C_6  and  C_7 
REMARK       I    between atoms: C_7  and  N_9 
REMARK    3  A    between atoms: N_9  and  C_10 
REMARK    4  A    between atoms: C_10  and  N_12 
REMARK    5  A    between atoms: N_12  and  C_13 
REMARK    6  A    between atoms: C_16  and  N_17 
ROOT
ATOM      1  N   UNL d   1      28.907 -14.641   2.923  0.00  0.00    -0.333 N 
ATOM      2  H   UNL d   1      28.520 -15.570   2.793  0.00  0.00     0.168 HD
ENDROOT
BRANCH   1   3
ATOM      3  C   UNL d   1      29.888 -14.168   1.997  0.00  0.00     0.179 C 
ATOM      4  S   UNL d   1      31.387 -13.550   2.492  0.00  0.00    -0.040 SA
BRANCH   3   5
ATOM      5  N   UNL d   1      29.527 -14.280   0.632  0.00  0.00    -0.299 N 
ATOM      6  C   UNL d   1      28.453 -15.064   0.136  0.00  0.00     0.257 C 
ATOM      7  O   UNL d   1      27.758 -15.810   0.836  0.00  0.00    -0.267 OA
ATOM      8  H   UNL d   1      30.058 -13.736  -0.033  0.00  0.00     0.171 HD
BRANCH   6   9
ATOM      9  C   UNL d   1      28.073 -15.088  -1.306  0.00  0.00     0.033 A 
ATOM     10  C   UNL d   1      28.958 -15.685  -2.233  0.00  0.00     0.020 A 
ATOM     11  C   UNL d   1      28.661 -15.725  -3.604  0.00  0.00     0.039 A 
ATOM     12  C   UNL d   1      27.475 -15.152  -4.080  0.00  0.00     0.085 A 
ATOM     13  C   UNL d   1      26.567 -14.624  -3.148  0.00  0.00     0.045 A 
ATOM     14  C   UNL d   1      26.880 -14.569  -1.780  0.00  0.00     0.039 A 
ATOM     15 BR   UNL d   1      24.793 -14.060  -3.541  0.00  0.00    -0.048 Br
BRANCH  12  16
ATOM     16  O   UNL d   1      27.271 -15.245  -5.432  0.00  0.00    -0.355 OA
ATOM     17  C   UNL d   1      27.788 -14.150  -6.190  0.00  0.00     0.210 C 
ENDBRANCH  12  16
ENDBRANCH   6   9
ENDBRANCH   3   5
ENDBRANCH   1   3
BRANCH   1  18
ATOM     18  C   UNL d   1      28.812 -14.093   4.260  0.00  0.00     0.036 A 
ATOM     19  C   UNL d   1      27.979 -12.995   4.497  0.00  0.00     0.032 A 
ATOM     20  C   UNL d   1      28.018 -12.264   5.695  0.00  0.00     0.033 A 
ATOM     21  C   UNL d   1      28.857 -12.624   6.755  0.00  0.00     0.052 A 
ATOM     22  C   UNL d   1      29.635 -13.792   6.541  0.00  0.00     0.062 A 
ATOM     23 CL   UNL d   1      30.677 -14.412   7.782  0.00  0.00    -0.082 Cl
ATOM     24  C   UNL d   1      29.592 -14.539   5.327  0.00  0.00     0.055 A 
BRANCH  21  25
ATOM     25  N   UNL d   1      28.849 -11.847   7.908  0.00  0.00    -0.376 N 
ATOM     26  C   UNL d   1      29.526 -10.549   8.019  0.00  0.00     0.150 C 
ATOM     27  C   UNL d   1      30.586 -10.594   9.142  0.00  0.00     0.254 C 
ATOM     28  N   UNL d   1      29.971 -11.077  10.463  0.00  0.00    -0.072 N 
ATOM     29  C   UNL d   1      31.014 -11.178  11.538  0.00  0.00     0.269 C 
ATOM     30  C   UNL d   1      29.228 -12.407  10.274  0.00  0.00     0.254 C 
ATOM     31  H   UNL d   1      29.280 -10.374  10.754  0.00  0.00     0.279 HD
ATOM     32  C   UNL d   1      28.185 -12.314   9.131  0.00  0.00     0.150 C 
ENDBRANCH  21  25
ENDBRANCH   1  18
TORSDOF 6
ENDMDL
