MODEL 1
REMARK VINA RESULT:   -19.893      0.000      0.000
REMARK INTER + INTRA:         -23.876
REMARK INTER:                 -21.981
REMARK INTRA:                  -1.894
REMARK CONF_INDEPENDENT:        2.088
REMARK UNBOUND:                -1.894
REMARK  7 active torsions:
REMARK  status: ('A' for Active; 'I' for Inactive)
REMARK    1  A    between atoms: C_5  and  C_6 
REMARK    2  A    between atoms: C_9  and  C_10 
REMARK    3  A    between atoms: C_10  and  O_11 
REMARK    4  A    between atoms: O_11  and  N_12 
REMARK    5  A    between atoms: C_13  and  N_14 
REMARK    6  A    between atoms: C_13  and  C_15 
REMARK    7  A    between atoms: C_16  and  N_17 
ROOT
ATOM      1  N   UNL d   1      24.693 -16.842  -2.289  0.00  0.00    -0.115 NA
ATOM      2  C   UNL d   1      25.361 -15.974  -1.562  0.00  0.00     0.166 C 
ENDROOT
BRANCH   2   3
ATOM      3  N   UNL d   1      25.509 -16.188  -0.199  0.00  0.00    -0.381 N 
ATOM      4  H   UNL d   1      26.070 -15.507   0.303  0.00  0.00     0.157 HD
ATOM      5  H   UNL d   1      25.471 -17.127   0.178  0.00  0.00     0.157 HD
ENDBRANCH   2   3
BRANCH   2   6
ATOM      6  C   UNL d   1      26.062 -14.793  -2.206  0.00  0.00     0.104 C 
ATOM      7  C   UNL d   1      26.126 -14.649  -3.546  0.00  0.00     0.051 C 
ATOM      8  C   UNL d   1      26.833 -13.359  -3.939  0.00  0.00     0.078 C 
ATOM      9  C   UNL d   1      25.801 -12.252  -4.264  0.00  0.00     0.038 C 
ATOM     10  C   UNL d   1      27.741 -13.495  -5.174  0.00  0.00     0.038 C 
ATOM     11  N   UNL d   1      27.531 -13.050  -2.716  0.00  0.00    -0.337 N 
ATOM     12  C   UNL d   1      26.457 -11.439  -5.366  0.00  0.00     0.003 C 
ATOM     13  C   UNL d   1      27.204 -12.482  -6.182  0.00  0.00     0.003 C 
ATOM     14  C   UNL d   1      28.634 -12.079  -2.661  0.00  0.00     0.154 C 
ATOM     15  C   UNL d   1      26.857 -13.650  -1.642  0.00  0.00     0.260 C 
ATOM     16  O   UNL d   1      26.959 -13.336  -0.462  0.00  0.00    -0.267 OA
BRANCH   7  17
ATOM     17  N   UNL d   1      25.652 -15.496  -4.521  0.00  0.00    -0.399 N 
ATOM     18  H   UNL d   1      25.228 -16.379  -4.249  0.00  0.00     0.156 HD
ATOM     19  H   UNL d   1      25.521 -15.164  -5.470  0.00  0.00     0.156 HD
ENDBRANCH   7  17
ENDBRANCH   2   6
BRANCH   1  20
ATOM     20  O   UNL d   1      24.190 -17.928  -1.493  0.00  0.00    -0.246 OA
BRANCH  20  21
ATOM     21  C   UNL d   1      23.264 -18.709  -2.271  0.00  0.00     0.292 C 
BRANCH  21  22
ATOM     22  C   UNL d   1      21.987 -18.962  -1.522  0.00  0.00     0.195 A 
ATOM     23  N   UNL d   1      20.763 -18.950  -2.020  0.00  0.00    -0.124 NA
ATOM     24  N   UNL d   1      19.905 -19.277  -0.994  0.00  0.00    -0.121 NA
ATOM     25  C   UNL d   1      20.647 -19.444   0.081  0.00  0.00     0.202 A 
ATOM     26  O   UNL d   1      21.993 -19.261  -0.171  0.00  0.00    -0.271 OA
BRANCH  25  27
ATOM     27  C   UNL d   1      20.232 -19.833   1.425  0.00  0.00     0.019 A 
ATOM     28  C   UNL d   1      20.898 -19.310   2.545  0.00  0.00     0.016 A 
ATOM     29  C   UNL d   1      20.553 -19.709   3.844  0.00  0.00     0.007 A 
ATOM     30  C   UNL d   1      19.546 -20.655   4.051  0.00  0.00    -0.062 A 
ATOM     31  C   UNL d   1      19.155 -21.083   5.437  0.00  0.00     0.048 C 
ATOM     32  C   UNL d   1      18.896 -21.201   2.936  0.00  0.00     0.007 A 
ATOM     33  C   UNL d   1      19.234 -20.792   1.636  0.00  0.00     0.016 A 
ENDBRANCH  25  27
ENDBRANCH  21  22
ENDBRANCH  20  21
ENDBRANCH   1  20
TORSDOF 7
ENDMDL
MODEL 2
REMARK VINA RESULT:   -19.710      1.388      1.882
REMARK INTER + INTRA:         -23.372
REMARK INTER:                 -21.799
REMARK INTRA:                  -1.573
REMARK CONF_INDEPENDENT:        2.088
REMARK UNBOUND:                -1.573
REMARK  7 active torsions:
REMARK  status: ('A' for Active; 'I' for Inactive)
REMARK    1  A    between atoms: C_5  and  C_6 
REMARK    2  A    between atoms: C_9  and  C_10 
REMARK    3  A    between atoms: C_10  and  O_11 
REMARK    4  A    between atoms: O_11  and  N_12 
REMARK    5  A    between atoms: C_13  and  N_14 
REMARK    6  A    between atoms: C_13  and  C_15 
REMARK    7  A    between atoms: C_16  and  N_17 
ROOT
ATOM      1  N   UNL d   1      25.148 -17.383  -2.290  0.00  0.00    -0.115 NA
ATOM      2  C   UNL d   1      24.732 -16.140  -2.387  0.00  0.00     0.166 C 
ENDROOT
BRANCH   2   3
ATOM      3  N   UNL d   1      23.577 -15.748  -1.723  0.00  0.00    -0.381 N 
ATOM      4  H   UNL d   1      23.194 -16.416  -1.061  0.00  0.00     0.157 HD
ATOM      5  H   UNL d   1      22.931 -15.101  -2.158  0.00  0.00     0.157 HD
ENDBRANCH   2   3
BRANCH   2   6
ATOM      6  C   UNL d   1      25.548 -15.099  -3.128  0.00  0.00     0.104 C 
ATOM      7  C   UNL d   1      26.896 -15.089  -3.083  0.00  0.00     0.051 C 
ATOM      8  C   UNL d   1      27.480 -13.982  -3.951  0.00  0.00     0.078 C 
ATOM      9  C   UNL d   1      27.921 -14.544  -5.324  0.00  0.00     0.038 C 
ATOM     10  C   UNL d   1      28.710 -13.290  -3.338  0.00  0.00     0.038 C 
ATOM     11  N   UNL d   1      26.329 -13.126  -4.107  0.00  0.00    -0.337 N 
ATOM     12  C   UNL d   1      29.141 -13.719  -5.693  0.00  0.00     0.003 C 
ATOM     13  C   UNL d   1      29.830 -13.484  -4.358  0.00  0.00     0.003 C 
ATOM     14  C   UNL d   1      26.437 -11.739  -4.581  0.00  0.00     0.154 C 
ATOM     15  C   UNL d   1      25.166 -13.891  -3.936  0.00  0.00     0.260 C 
ATOM     16  O   UNL d   1      24.042 -13.588  -4.320  0.00  0.00    -0.267 OA
BRANCH   7  17
ATOM     17  N   UNL d   1      27.735 -15.920  -2.377  0.00  0.00    -0.399 N 
ATOM     18  H   UNL d   1      27.541 -16.918  -2.353  0.00  0.00     0.156 HD
ATOM     19  H   UNL d   1      28.645 -15.592  -2.072  0.00  0.00     0.156 HD
ENDBRANCH   7  17
ENDBRANCH   2   6
BRANCH   1  20
ATOM     20  O   UNL d   1      24.274 -18.176  -1.469  0.00  0.00    -0.246 OA
BRANCH  20  21
ATOM     21  C   UNL d   1      23.266 -18.792  -2.292  0.00  0.00     0.292 C 
BRANCH  21  22
ATOM     22  C   UNL d   1      21.987 -19.004  -1.534  0.00  0.00     0.195 A 
ATOM     23  N   UNL d   1      20.760 -18.941  -2.020  0.00  0.00    -0.124 NA
ATOM     24  N   UNL d   1      19.899 -19.247  -0.989  0.00  0.00    -0.121 NA
ATOM     25  C   UNL d   1      20.644 -19.452   0.076  0.00  0.00     0.202 A 
ATOM     26  O   UNL d   1      21.993 -19.317  -0.186  0.00  0.00    -0.271 OA
BRANCH  25  27
ATOM     27  C   UNL d   1      20.227 -19.840   1.420  0.00  0.00     0.019 A 
ATOM     28  C   UNL d   1      20.893 -19.318   2.541  0.00  0.00     0.016 A 
ATOM     29  C   UNL d   1      20.546 -19.715   3.839  0.00  0.00     0.007 A 
ATOM     30  C   UNL d   1      19.535 -20.659   4.045  0.00  0.00    -0.062 A 
ATOM     31  C   UNL d   1      19.142 -21.085   5.432  0.00  0.00     0.048 C 
ATOM     32  C   UNL d   1      18.885 -21.204   2.930  0.00  0.00     0.007 A 
ATOM     33  C   UNL d   1      19.225 -20.796   1.630  0.00  0.00     0.016 A 
ENDBRANCH  25  27
ENDBRANCH  21  22
ENDBRANCH  20  21
ENDBRANCH   1  20
TORSDOF 7
ENDMDL
MODEL 3
REMARK VINA RESULT:   -19.361      2.305      3.056
REMARK INTER + INTRA:         -22.519
REMARK INTER:                 -21.449
REMARK INTRA:                  -1.070
REMARK CONF_INDEPENDENT:        2.088
REMARK UNBOUND:                -1.070
REMARK  7 active torsions:
REMARK  status: ('A' for Active; 'I' for Inactive)
REMARK    1  A    between atoms: C_5  and  C_6 
REMARK    2  A    between atoms: C_9  and  C_10 
REMARK    3  A    between atoms: C_10  and  O_11 
REMARK    4  A    between atoms: O_11  and  N_12 
REMARK    5  A    between atoms: C_13  and  N_14 
REMARK    6  A    between atoms: C_13  and  C_15 
REMARK    7  A    between atoms: C_16  and  N_17 
ROOT
ATOM      1  N   UNL d   1      25.011 -17.270  -1.375  0.00  0.00    -0.115 NA
ATOM      2  C   UNL d   1      26.109 -17.234  -0.653  0.00  0.00     0.166 C 
ENDROOT
BRANCH   2   3
ATOM      3  N   UNL d   1      26.525 -18.372   0.024  0.00  0.00    -0.381 N 
ATOM      4  H   UNL d   1      25.995 -19.219  -0.158  0.00  0.00     0.157 HD
ATOM      5  H   UNL d   1      26.982 -18.294   0.924  0.00  0.00     0.157 HD
ENDBRANCH   2   3
BRANCH   2   6
ATOM      6  C   UNL d   1      26.988 -15.998  -0.632  0.00  0.00     0.104 C 
ATOM      7  C   UNL d   1      28.292 -16.060  -0.291  0.00  0.00     0.051 C 
ATOM      8  C   UNL d   1      28.965 -14.698  -0.400  0.00  0.00     0.078 C 
ATOM      9  C   UNL d   1      29.727 -14.575  -1.742  0.00  0.00     0.038 C 
ATOM     10  C   UNL d   1      29.986 -14.415   0.716  0.00  0.00     0.038 C 
ATOM     11  N   UNL d   1      27.816 -13.827  -0.394  0.00  0.00    -0.337 N 
ATOM     12  C   UNL d   1      30.934 -13.717  -1.411  0.00  0.00     0.003 C 
ATOM     13  C   UNL d   1      31.307 -14.153  -0.003  0.00  0.00     0.003 C 
ATOM     14  C   UNL d   1      27.923 -12.383  -0.140  0.00  0.00     0.154 C 
ATOM     15  C   UNL d   1      26.700 -14.541  -0.856  0.00  0.00     0.260 C 
ATOM     16  O   UNL d   1      25.665 -14.053  -1.294  0.00  0.00    -0.267 OA
BRANCH   7  17
ATOM     17  N   UNL d   1      29.018 -17.153   0.119  0.00  0.00    -0.399 N 
ATOM     18  H   UNL d   1      29.690 -17.049   0.875  0.00  0.00     0.156 HD
ATOM     19  H   UNL d   1      28.743 -18.088  -0.163  0.00  0.00     0.156 HD
ENDBRANCH   7  17
ENDBRANCH   2   6
BRANCH   1  20
ATOM     20  O   UNL d   1      24.383 -18.564  -1.325  0.00  0.00    -0.246 OA
BRANCH  20  21
ATOM     21  C   UNL d   1      23.259 -18.589  -2.223  0.00  0.00     0.292 C 
BRANCH  21  22
ATOM     22  C   UNL d   1      21.980 -18.900  -1.499  0.00  0.00     0.195 A 
ATOM     23  N   UNL d   1      20.768 -18.951  -2.022  0.00  0.00    -0.124 NA
ATOM     24  N   UNL d   1      19.905 -19.314  -1.012  0.00  0.00    -0.121 NA
ATOM     25  C   UNL d   1      20.631 -19.436   0.079  0.00  0.00     0.202 A 
ATOM     26  O   UNL d   1      21.971 -19.188  -0.145  0.00  0.00    -0.271 OA
BRANCH  25  27
ATOM     27  C   UNL d   1      20.207 -19.837   1.417  0.00  0.00     0.019 A 
ATOM     28  C   UNL d   1      20.867 -19.324   2.546  0.00  0.00     0.016 A 
ATOM     29  C   UNL d   1      20.513 -19.733   3.839  0.00  0.00     0.007 A 
ATOM     30  C   UNL d   1      19.503 -20.680   4.031  0.00  0.00    -0.062 A 
ATOM     31  C   UNL d   1      19.103 -21.119   5.412  0.00  0.00     0.048 C 
ATOM     32  C   UNL d   1      18.860 -21.216   2.908  0.00  0.00     0.007 A 
ATOM     33  C   UNL d   1      19.206 -20.796   1.614  0.00  0.00     0.016 A 
ENDBRANCH  25  27
ENDBRANCH  21  22
ENDBRANCH  20  21
ENDBRANCH   1  20
TORSDOF 7
ENDMDL
MODEL 4
REMARK VINA RESULT:   -18.805      2.536      3.236
REMARK INTER + INTRA:         -21.989
REMARK INTER:                 -20.893
REMARK INTRA:                  -1.096
REMARK CONF_INDEPENDENT:        2.088
REMARK UNBOUND:                -1.096
REMARK  7 active torsions:
REMARK  status: ('A' for Active; 'I' for Inactive)
REMARK    1  A    between atoms: C_5  and  C_6 
REMARK    2  A    between atoms: C_9  and  C_10 
REMARK    3  A    between atoms: C_10  and  O_11 
REMARK    4  A    between atoms: O_11  and  N_12 
REMARK    5  A    between atoms: C_13  and  N_14 
REMARK    6  A    between atoms: C_13  and  C_15 
REMARK    7  A    between atoms: C_16  and  N_17 
ROOT
ATOM      1  N   UNL d   1      25.209 -17.331  -2.308  0.00  0.00    -0.115 NA
ATOM      2  C   UNL d   1      25.851 -16.287  -1.835  0.00  0.00     0.166 C 
ENDROOT
BRANCH   2   3
ATOM      3  N   UNL d   1      25.236 -15.467  -0.899  0.00  0.00    -0.381 N 
ATOM      4  H   UNL d   1      24.267 -15.682  -0.683  0.00  0.00     0.157 HD
ATOM      5  H   UNL d   1      25.534 -14.506  -0.785  0.00  0.00     0.157 HD
ENDBRANCH   2   3
BRANCH   2   6
ATOM      6  C   UNL d   1      27.295 -16.020  -2.216  0.00  0.00     0.104 C 
ATOM      7  C   UNL d   1      28.316 -16.690  -1.643  0.00  0.00     0.051 C 
ATOM      8  C   UNL d   1      29.658 -16.281  -2.234  0.00  0.00     0.078 C 
ATOM      9  C   UNL d   1      30.111 -17.298  -3.310  0.00  0.00     0.038 C 
ATOM     10  C   UNL d   1      30.796 -16.192  -1.201  0.00  0.00     0.038 C 
ATOM     11  N   UNL d   1      29.311 -15.023  -2.849  0.00  0.00    -0.337 N 
ATOM     12  C   UNL d   1      31.624 -17.326  -3.185  0.00  0.00     0.003 C 
ATOM     13  C   UNL d   1      31.863 -17.166  -1.692  0.00  0.00     0.003 C 
ATOM     14  C   UNL d   1      30.324 -14.045  -3.272  0.00  0.00     0.154 C 
ATOM     15  C   UNL d   1      27.937 -15.020  -3.135  0.00  0.00     0.260 C 
ATOM     16  O   UNL d   1      27.371 -14.287  -3.937  0.00  0.00    -0.267 OA
BRANCH   7  17
ATOM     17  N   UNL d   1      28.266 -17.637  -0.646  0.00  0.00    -0.399 N 
ATOM     18  H   UNL d   1      27.717 -18.481  -0.788  0.00  0.00     0.156 HD
ATOM     19  H   UNL d   1      28.930 -17.610   0.121  0.00  0.00     0.156 HD
ENDBRANCH   7  17
ENDBRANCH   2   6
BRANCH   1  20
ATOM     20  O   UNL d   1      23.890 -17.445  -1.746  0.00  0.00    -0.246 OA
BRANCH  20  21
ATOM     21  C   UNL d   1      23.250 -18.630  -2.254  0.00  0.00     0.292 C 
BRANCH  21  22
ATOM     22  C   UNL d   1      21.974 -18.926  -1.519  0.00  0.00     0.195 A 
ATOM     23  N   UNL d   1      20.758 -18.978  -2.035  0.00  0.00    -0.124 NA
ATOM     24  N   UNL d   1      19.899 -19.325  -1.016  0.00  0.00    -0.121 NA
ATOM     25  C   UNL d   1      20.631 -19.439   0.072  0.00  0.00     0.202 A 
ATOM     26  O   UNL d   1      21.971 -19.200  -0.162  0.00  0.00    -0.271 OA
BRANCH  25  27
ATOM     27  C   UNL d   1      20.212 -19.822   1.417  0.00  0.00     0.019 A 
ATOM     28  C   UNL d   1      20.897 -19.320   2.535  0.00  0.00     0.016 A 
ATOM     29  C   UNL d   1      20.548 -19.715   3.835  0.00  0.00     0.007 A 
ATOM     30  C   UNL d   1      19.518 -20.635   4.043  0.00  0.00    -0.062 A 
ATOM     31  C   UNL d   1      19.123 -21.058   5.430  0.00  0.00     0.048 C 
ATOM     32  C   UNL d   1      18.849 -21.161   2.930  0.00  0.00     0.007 A 
ATOM     33  C   UNL d   1      19.190 -20.755   1.629  0.00  0.00     0.016 A 
ENDBRANCH  25  27
ENDBRANCH  21  22
ENDBRANCH  20  21
ENDBRANCH   1  20
TORSDOF 7
ENDMDL
