MODEL 1
REMARK VINA RESULT:   -10.715      0.000      0.000
REMARK INTER + INTRA:         -15.373
REMARK INTER:                 -13.698
REMARK INTRA:                  -1.675
REMARK CONF_INDEPENDENT:        2.983
REMARK UNBOUND:                -1.675
REMARK  10 active torsions:
REMARK  status: ('A' for Active; 'I' for Inactive)
REMARK    1  A    between atoms: C_2  and  C_3 
REMARK    2  A    between atoms: C_3  and  S_4 
REMARK    3  A    between atoms: S_4  and  C_5 
REMARK    4  A    between atoms: C_8  and  C_9 
REMARK       I    between atoms: C_9  and  N_11 
REMARK    5  A    between atoms: N_11  and  C_12 
REMARK    6  A    between atoms: C_12  and  C_13 
REMARK    7  A    between atoms: C_13  and  C_14 
REMARK    8  A    between atoms: C_13  and  N_24 
REMARK    9  A    between atoms: C_17  and  O_18 
REMARK   10  A    between atoms: C_20  and  O_21 
ROOT
ATOM      1  C   UNL d   1      28.603 -16.818  -0.383  0.00  0.00     0.238 C 
ENDROOT
BRANCH   1   2
ATOM      2  C   UNL d   1      27.411 -16.310   0.601  0.00  0.00     0.161 C 
BRANCH   2   3
ATOM      3  N   UNL d   1      26.033 -16.693   0.205  0.00  0.00    -0.354 N 
ATOM      4  C   UNL d   1      25.582 -17.973  -0.107  0.00  0.00     0.256 C 
ATOM      5  O   UNL d   1      26.338 -18.918  -0.168  0.00  0.00    -0.268 OA
ATOM      6  H   UNL d   1      25.381 -15.948   0.019  0.00  0.00     0.162 HD
BRANCH   4   7
ATOM      7  C   UNL d   1      24.100 -18.154  -0.347  0.00  0.00     0.090 C 
ATOM      8  C   UNL d   1      23.497 -19.374  -0.127  0.00  0.00     0.139 C 
ATOM      9  N   UNL d   1      22.163 -19.610  -0.295  0.00  0.00    -0.234 NA
ATOM     10  C   UNL d   1      21.380 -18.584  -0.669  0.00  0.00     0.189 C 
ATOM     11  N   UNL d   1      21.854 -17.364  -0.911  0.00  0.00    -0.210 NA
ATOM     12  C   UNL d   1      23.195 -17.223  -0.816  0.00  0.00     0.146 C 
ATOM     13 CL   UNL d   1      23.659 -15.765  -1.625  0.00  0.00    -0.061 Cl
BRANCH  10  14
ATOM     14  S   UNL d   1      19.644 -18.881  -0.893  0.00  0.00    -0.090 SA
BRANCH  14  15
ATOM     15  C   UNL d   1      19.163 -19.621   0.722  0.00  0.00     0.082 C 
BRANCH  15  16
ATOM     16  C   UNL d   1      18.889 -21.119   0.536  0.00  0.00     0.006 C 
ATOM     17  C   UNL d   1      17.653 -21.577   1.302  0.00  0.00     0.006 C 
ENDBRANCH  15  16
ENDBRANCH  14  15
ENDBRANCH  10  14
ENDBRANCH   4   7
ENDBRANCH   2   3
ENDBRANCH   1   2
BRANCH   1  18
ATOM     18  C   UNL d   1      28.292 -16.464  -1.874  0.00  0.00    -0.023 C 
ATOM     19  C   UNL d   1      29.152 -16.587  -2.967  0.00  0.00     0.012 C 
ATOM     20  C   UNL d   1      29.011 -15.934  -4.173  0.00  0.00     0.040 C 
ATOM     21  C   UNL d   1      27.777 -15.469  -4.514  0.00  0.00     0.101 C 
ATOM     22  C   UNL d   1      26.774 -15.485  -3.551  0.00  0.00     0.102 C 
ATOM     23  C   UNL d   1      27.047 -15.985  -2.269  0.00  0.00     0.049 C 
BRANCH  21  24
ATOM     24  O   UNL d   1      27.691 -15.157  -5.836  0.00  0.00    -0.353 OA
ATOM     25  C   UNL d   1      28.261 -13.913  -6.194  0.00  0.00     0.210 C 
ENDBRANCH  21  24
BRANCH  22  26
ATOM     26  O   UNL d   1      25.565 -14.978  -3.913  0.00  0.00    -0.353 OA
ATOM     27  C   UNL d   1      25.335 -13.597  -3.812  0.00  0.00     0.210 C 
ENDBRANCH  22  26
ENDBRANCH   1  18
BRANCH   1  28
ATOM     28  N   UNL d   1      30.021 -16.257   0.231  0.00  0.00    -0.061 N 
ATOM     29  C   UNL d   1      31.283 -16.855  -0.398  0.00  0.00     0.236 C 
ATOM     30  C   UNL d   1      32.534 -16.139   0.158  0.00  0.00     0.028 C 
ATOM     31  C   UNL d   1      32.498 -14.640  -0.120  0.00  0.00     0.003 C 
ATOM     32  C   UNL d   1      31.348 -14.090   0.679  0.00  0.00     0.028 C 
ATOM     33  C   UNL d   1      30.115 -14.771   0.180  0.00  0.00     0.236 C 
ATOM     34  H   UNL d   1      30.015 -16.513   1.226  0.00  0.00     0.280 HD
ENDBRANCH   1  28
TORSDOF 10
ENDMDL
MODEL 2
REMARK VINA RESULT:    -9.723      5.215      7.193
REMARK INTER + INTRA:         -13.966
REMARK INTER:                 -12.706
REMARK INTRA:                  -1.261
REMARK CONF_INDEPENDENT:        2.983
REMARK UNBOUND:                -1.261
REMARK  10 active torsions:
REMARK  status: ('A' for Active; 'I' for Inactive)
REMARK    1  A    between atoms: C_2  and  C_3 
REMARK    2  A    between atoms: C_3  and  S_4 
REMARK    3  A    between atoms: S_4  and  C_5 
REMARK    4  A    between atoms: C_8  and  C_9 
REMARK       I    between atoms: C_9  and  N_11 
REMARK    5  A    between atoms: N_11  and  C_12 
REMARK    6  A    between atoms: C_12  and  C_13 
REMARK    7  A    between atoms: C_13  and  C_14 
REMARK    8  A    between atoms: C_13  and  N_24 
REMARK    9  A    between atoms: C_17  and  O_18 
REMARK   10  A    between atoms: C_20  and  O_21 
ROOT
ATOM      1  C   UNL d   1      27.917 -16.334  -0.304  0.00  0.00     0.238 C 
ENDROOT
BRANCH   1   2
ATOM      2  C   UNL d   1      27.159 -15.169   0.542  0.00  0.00     0.161 C 
BRANCH   2   3
ATOM      3  N   UNL d   1      27.681 -14.913   1.907  0.00  0.00    -0.354 N 
ATOM      4  C   UNL d   1      27.432 -13.794   2.697  0.00  0.00     0.256 C 
ATOM      5  O   UNL d   1      26.804 -12.844   2.278  0.00  0.00    -0.268 OA
ATOM      6  H   UNL d   1      28.385 -15.542   2.259  0.00  0.00     0.162 HD
BRANCH   4   7
ATOM      7  C   UNL d   1      27.955 -13.806   4.115  0.00  0.00     0.090 C 
ATOM      8  C   UNL d   1      28.123 -14.995   4.792  0.00  0.00     0.139 C 
ATOM      9  N   UNL d   1      28.614 -15.091   6.062  0.00  0.00    -0.234 NA
ATOM     10  C   UNL d   1      28.989 -13.960   6.683  0.00  0.00     0.189 C 
ATOM     11  N   UNL d   1      28.871 -12.757   6.127  0.00  0.00    -0.210 NA
ATOM     12  C   UNL d   1      28.292 -12.725   4.906  0.00  0.00     0.146 C 
ATOM     13 CL   UNL d   1      27.781 -11.106   4.575  0.00  0.00    -0.061 Cl
BRANCH  10  14
ATOM     14  S   UNL d   1      29.627 -14.073   8.336  0.00  0.00    -0.090 SA
BRANCH  14  15
ATOM     15  C   UNL d   1      28.516 -12.935   9.262  0.00  0.00     0.082 C 
BRANCH  15  16
ATOM     16  C   UNL d   1      27.781 -13.718  10.359  0.00  0.00     0.006 C 
ATOM     17  C   UNL d   1      28.216 -13.294  11.757  0.00  0.00     0.006 C 
ENDBRANCH  15  16
ENDBRANCH  14  15
ENDBRANCH  10  14
ENDBRANCH   4   7
ENDBRANCH   2   3
ENDBRANCH   1   2
BRANCH   1  18
ATOM     18  C   UNL d   1      27.729 -16.126  -1.842  0.00  0.00    -0.023 C 
ATOM     19  C   UNL d   1      28.682 -16.320  -2.843  0.00  0.00     0.012 C 
ATOM     20  C   UNL d   1      28.631 -15.784  -4.111  0.00  0.00     0.040 C 
ATOM     21  C   UNL d   1      27.421 -15.389  -4.597  0.00  0.00     0.101 C 
ATOM     22  C   UNL d   1      26.339 -15.348  -3.724  0.00  0.00     0.102 C 
ATOM     23  C   UNL d   1      26.512 -15.722  -2.383  0.00  0.00     0.049 C 
BRANCH  21  24
ATOM     24  O   UNL d   1      27.443 -15.200  -5.944  0.00  0.00    -0.353 OA
ATOM     25  C   UNL d   1      28.698 -14.817  -6.474  0.00  0.00     0.210 C 
ENDBRANCH  21  24
BRANCH  22  26
ATOM     26  O   UNL d   1      25.155 -14.912  -4.231  0.00  0.00    -0.353 OA
ATOM     27  C   UNL d   1      24.617 -13.694  -3.786  0.00  0.00     0.210 C 
ENDBRANCH  22  26
ENDBRANCH   1  18
BRANCH   1  28
ATOM     28  N   UNL d   1      29.464 -16.418   0.248  0.00  0.00    -0.061 N 
ATOM     29  C   UNL d   1      30.348 -17.452  -0.453  0.00  0.00     0.236 C 
ATOM     30  C   UNL d   1      31.803 -17.324   0.052  0.00  0.00     0.028 C 
ATOM     31  C   UNL d   1      32.369 -15.930  -0.199  0.00  0.00     0.003 C 
ATOM     32  C   UNL d   1      31.572 -14.990   0.665  0.00  0.00     0.028 C 
ATOM     33  C   UNL d   1      30.151 -15.095   0.217  0.00  0.00     0.236 C 
ATOM     34  H   UNL d   1      29.393 -16.683   1.237  0.00  0.00     0.280 HD
ENDBRANCH   1  28
TORSDOF 10
ENDMDL
MODEL 3
REMARK VINA RESULT:    -9.661      5.586      8.088
REMARK INTER + INTRA:         -13.910
REMARK INTER:                 -12.644
REMARK INTRA:                  -1.266
REMARK CONF_INDEPENDENT:        2.983
REMARK UNBOUND:                -1.266
REMARK  10 active torsions:
REMARK  status: ('A' for Active; 'I' for Inactive)
REMARK    1  A    between atoms: C_2  and  C_3 
REMARK    2  A    between atoms: C_3  and  S_4 
REMARK    3  A    between atoms: S_4  and  C_5 
REMARK    4  A    between atoms: C_8  and  C_9 
REMARK       I    between atoms: C_9  and  N_11 
REMARK    5  A    between atoms: N_11  and  C_12 
REMARK    6  A    between atoms: C_12  and  C_13 
REMARK    7  A    between atoms: C_13  and  C_14 
REMARK    8  A    between atoms: C_13  and  N_24 
REMARK    9  A    between atoms: C_17  and  O_18 
REMARK   10  A    between atoms: C_20  and  O_21 
ROOT
ATOM      1  C   UNL d   1      27.803 -16.602   0.798  0.00  0.00     0.238 C 
ENDROOT
BRANCH   1   2
ATOM      2  C   UNL d   1      27.973 -15.011   1.093  0.00  0.00     0.161 C 
BRANCH   2   3
ATOM      3  N   UNL d   1      28.359 -14.645   2.478  0.00  0.00    -0.354 N 
ATOM      4  C   UNL d   1      27.663 -13.804   3.342  0.00  0.00     0.256 C 
ATOM      5  O   UNL d   1      26.675 -13.199   2.984  0.00  0.00    -0.268 OA
ATOM      6  H   UNL d   1      29.275 -14.925   2.792  0.00  0.00     0.162 HD
BRANCH   4   7
ATOM      7  C   UNL d   1      28.170 -13.681   4.761  0.00  0.00     0.090 C 
ATOM      8  C   UNL d   1      28.422 -14.806   5.517  0.00  0.00     0.139 C 
ATOM      9  N   UNL d   1      28.905 -14.780   6.793  0.00  0.00    -0.234 NA
ATOM     10  C   UNL d   1      29.184 -13.584   7.339  0.00  0.00     0.189 C 
ATOM     11  N   UNL d   1      28.979 -12.434   6.704  0.00  0.00    -0.210 NA
ATOM     12  C   UNL d   1      28.413 -12.528   5.480  0.00  0.00     0.146 C 
ATOM     13 CL   UNL d   1      27.782 -10.979   5.038  0.00  0.00    -0.061 Cl
BRANCH  10  14
ATOM     14  S   UNL d   1      29.809 -13.538   9.001  0.00  0.00    -0.090 SA
BRANCH  14  15
ATOM     15  C   UNL d   1      28.598 -14.590   9.903  0.00  0.00     0.082 C 
BRANCH  15  16
ATOM     16  C   UNL d   1      27.729 -13.707  10.808  0.00  0.00     0.006 C 
ATOM     17  C   UNL d   1      28.566 -12.775  11.676  0.00  0.00     0.006 C 
ENDBRANCH  15  16
ENDBRANCH  14  15
ENDBRANCH  10  14
ENDBRANCH   4   7
ENDBRANCH   2   3
ENDBRANCH   1   2
BRANCH   1  18
ATOM     18  C   UNL d   1      26.391 -16.918   0.207  0.00  0.00    -0.023 C 
ATOM     19  C   UNL d   1      25.575 -18.010   0.507  0.00  0.00     0.012 C 
ATOM     20  C   UNL d   1      24.539 -18.474  -0.275  0.00  0.00     0.040 C 
ATOM     21  C   UNL d   1      23.976 -17.619  -1.173  0.00  0.00     0.101 C 
ATOM     22  C   UNL d   1      24.602 -16.399  -1.408  0.00  0.00     0.102 C 
ATOM     23  C   UNL d   1      25.777 -16.075  -0.714  0.00  0.00     0.049 C 
BRANCH  21  24
ATOM     24  O   UNL d   1      22.776 -18.068  -1.630  0.00  0.00    -0.353 OA
ATOM     25  C   UNL d   1      22.038 -18.847  -0.707  0.00  0.00     0.210 C 
ENDBRANCH  21  24
BRANCH  22  26
ATOM     26  O   UNL d   1      24.035 -15.586  -2.339  0.00  0.00    -0.353 OA
ATOM     27  C   UNL d   1      24.756 -14.488  -2.832  0.00  0.00     0.210 C 
ENDBRANCH  22  26
ENDBRANCH   1  18
BRANCH   1  28
ATOM     28  N   UNL d   1      29.102 -17.080  -0.090  0.00  0.00    -0.061 N 
ATOM     29  C   UNL d   1      28.890 -17.075  -1.606  0.00  0.00     0.236 C 
ATOM     30  C   UNL d   1      30.221 -17.396  -2.321  0.00  0.00     0.028 C 
ATOM     31  C   UNL d   1      31.312 -16.390  -1.965  0.00  0.00     0.003 C 
ATOM     32  C   UNL d   1      31.600 -16.582  -0.501  0.00  0.00     0.028 C 
ATOM     33  C   UNL d   1      30.328 -16.295   0.229  0.00  0.00     0.236 C 
ATOM     34  H   UNL d   1      29.295 -18.047   0.197  0.00  0.00     0.280 HD
ENDBRANCH   1  28
TORSDOF 10
ENDMDL
MODEL 4
REMARK VINA RESULT:    -9.498      4.100      5.501
REMARK INTER + INTRA:         -13.993
REMARK INTER:                 -12.481
REMARK INTRA:                  -1.512
REMARK CONF_INDEPENDENT:        2.983
REMARK UNBOUND:                -1.512
REMARK  10 active torsions:
REMARK  status: ('A' for Active; 'I' for Inactive)
REMARK    1  A    between atoms: C_2  and  C_3 
REMARK    2  A    between atoms: C_3  and  S_4 
REMARK    3  A    between atoms: S_4  and  C_5 
REMARK    4  A    between atoms: C_8  and  C_9 
REMARK       I    between atoms: C_9  and  N_11 
REMARK    5  A    between atoms: N_11  and  C_12 
REMARK    6  A    between atoms: C_12  and  C_13 
REMARK    7  A    between atoms: C_13  and  C_14 
REMARK    8  A    between atoms: C_13  and  N_24 
REMARK    9  A    between atoms: C_17  and  O_18 
REMARK   10  A    between atoms: C_20  and  O_21 
ROOT
ATOM      1  C   UNL d   1      29.810 -13.482   1.862  0.00  0.00     0.238 C 
ENDROOT
BRANCH   1   2
ATOM      2  C   UNL d   1      29.826 -14.544   0.630  0.00  0.00     0.161 C 
BRANCH   2   3
ATOM      3  N   UNL d   1      28.610 -15.381   0.476  0.00  0.00    -0.354 N 
ATOM      4  C   UNL d   1      27.528 -15.130  -0.362  0.00  0.00     0.256 C 
ATOM      5  O   UNL d   1      27.444 -14.107  -1.008  0.00  0.00    -0.268 OA
ATOM      6  H   UNL d   1      28.486 -16.141   1.126  0.00  0.00     0.162 HD
BRANCH   4   7
ATOM      7  C   UNL d   1      26.457 -16.193  -0.462  0.00  0.00     0.090 C 
ATOM      8  C   UNL d   1      26.517 -17.327   0.320  0.00  0.00     0.139 C 
ATOM      9  N   UNL d   1      25.578 -18.317   0.308  0.00  0.00    -0.234 NA
ATOM     10  C   UNL d   1      24.509 -18.166  -0.493  0.00  0.00     0.189 C 
ATOM     11  N   UNL d   1      24.348 -17.114  -1.291  0.00  0.00    -0.210 NA
ATOM     12  C   UNL d   1      25.359 -16.218  -1.299  0.00  0.00     0.146 C 
ATOM     13 CL   UNL d   1      25.213 -15.227  -2.709  0.00  0.00    -0.061 Cl
BRANCH  10  14
ATOM     14  S   UNL d   1      23.283 -19.450  -0.519  0.00  0.00    -0.090 SA
BRANCH  14  15
ATOM     15  C   UNL d   1      21.782 -18.568   0.079  0.00  0.00     0.082 C 
BRANCH  15  16
ATOM     16  C   UNL d   1      20.622 -18.817  -0.894  0.00  0.00     0.006 C 
ATOM     17  C   UNL d   1      19.419 -19.448  -0.205  0.00  0.00     0.006 C 
ENDBRANCH  15  16
ENDBRANCH  14  15
ENDBRANCH  10  14
ENDBRANCH   4   7
ENDBRANCH   2   3
ENDBRANCH   1   2
BRANCH   1  18
ATOM     18  C   UNL d   1      28.792 -12.326   1.595  0.00  0.00    -0.023 C 
ATOM     19  C   UNL d   1      28.352 -11.858   0.356  0.00  0.00     0.012 C 
ATOM     20  C   UNL d   1      27.773 -10.628   0.125  0.00  0.00     0.040 C 
ATOM     21  C   UNL d   1      27.201  -9.977   1.175  0.00  0.00     0.101 C 
ATOM     22  C   UNL d   1      27.409 -10.476   2.456  0.00  0.00     0.102 C 
ATOM     23  C   UNL d   1      28.183 -11.631   2.636  0.00  0.00     0.049 C 
BRANCH  21  24
ATOM     24  O   UNL d   1      26.386  -8.964   0.771  0.00  0.00    -0.353 OA
ATOM     25  C   UNL d   1      26.624  -8.493  -0.542  0.00  0.00     0.210 C 
ENDBRANCH  21  24
BRANCH  22  26
ATOM     26  O   UNL d   1      26.855  -9.779   3.485  0.00  0.00    -0.353 OA
ATOM     27  C   UNL d   1      27.539  -9.688   4.707  0.00  0.00     0.210 C 
ENDBRANCH  22  26
ENDBRANCH   1  18
BRANCH   1  28
ATOM     28  N   UNL d   1      29.610 -14.339   3.251  0.00  0.00    -0.061 N 
ATOM     29  C   UNL d   1      30.397 -13.817   4.455  0.00  0.00     0.236 C 
ATOM     30  C   UNL d   1      30.006 -14.613   5.720  0.00  0.00     0.028 C 
ATOM     31  C   UNL d   1      28.513 -14.509   6.015  0.00  0.00     0.003 C 
ATOM     32  C   UNL d   1      27.810 -15.208   4.883  0.00  0.00     0.028 C 
ATOM     33  C   UNL d   1      28.176 -14.475   3.633  0.00  0.00     0.236 C 
ATOM     34  H   UNL d   1      29.945 -15.287   3.044  0.00  0.00     0.280 HD
ENDBRANCH   1  28
TORSDOF 10
ENDMDL
MODEL 5
REMARK VINA RESULT:    -8.986      1.894      2.521
REMARK INTER + INTRA:         -14.459
REMARK INTER:                 -11.969
REMARK INTRA:                  -2.490
REMARK CONF_INDEPENDENT:        2.983
REMARK UNBOUND:                -2.490
REMARK  10 active torsions:
REMARK  status: ('A' for Active; 'I' for Inactive)
REMARK    1  A    between atoms: C_2  and  C_3 
REMARK    2  A    between atoms: C_3  and  S_4 
REMARK    3  A    between atoms: S_4  and  C_5 
REMARK    4  A    between atoms: C_8  and  C_9 
REMARK       I    between atoms: C_9  and  N_11 
REMARK    5  A    between atoms: N_11  and  C_12 
REMARK    6  A    between atoms: C_12  and  C_13 
REMARK    7  A    between atoms: C_13  and  C_14 
REMARK    8  A    between atoms: C_13  and  N_24 
REMARK    9  A    between atoms: C_17  and  O_18 
REMARK   10  A    between atoms: C_20  and  O_21 
ROOT
ATOM      1  C   UNL d   1      29.222 -15.454  -0.441  0.00  0.00     0.238 C 
ENDROOT
BRANCH   1   2
ATOM      2  C   UNL d   1      28.998 -17.056  -0.612  0.00  0.00     0.161 C 
BRANCH   2   3
ATOM      3  N   UNL d   1      27.591 -17.505  -0.744  0.00  0.00    -0.354 N 
ATOM      4  C   UNL d   1      26.525 -17.161   0.084  0.00  0.00     0.256 C 
ATOM      5  O   UNL d   1      26.686 -16.500   1.088  0.00  0.00    -0.268 OA
ATOM      6  H   UNL d   1      27.397 -18.226  -1.420  0.00  0.00     0.162 HD
BRANCH   4   7
ATOM      7  C   UNL d   1      25.144 -17.625  -0.321  0.00  0.00     0.090 C 
ATOM      8  C   UNL d   1      24.723 -18.907  -0.043  0.00  0.00     0.139 C 
ATOM      9  N   UNL d   1      23.485 -19.391  -0.351  0.00  0.00    -0.234 NA
ATOM     10  C   UNL d   1      22.607 -18.558  -0.935  0.00  0.00     0.189 C 
ATOM     11  N   UNL d   1      22.905 -17.300  -1.251  0.00  0.00    -0.210 NA
ATOM     12  C   UNL d   1      24.176 -16.915  -1.003  0.00  0.00     0.146 C 
ATOM     13 CL   UNL d   1      24.507 -15.477  -1.907  0.00  0.00    -0.061 Cl
BRANCH  10  14
ATOM     14  S   UNL d   1      20.994 -19.179  -1.344  0.00  0.00    -0.090 SA
BRANCH  14  15
ATOM     15  C   UNL d   1      20.222 -19.378   0.315  0.00  0.00     0.082 C 
BRANCH  15  16
ATOM     16  C   UNL d   1      19.241 -20.558   0.283  0.00  0.00     0.006 C 
ATOM     17  C   UNL d   1      18.634 -20.838   1.652  0.00  0.00     0.006 C 
ENDBRANCH  15  16
ENDBRANCH  14  15
ENDBRANCH  10  14
ENDBRANCH   4   7
ENDBRANCH   2   3
ENDBRANCH   1   2
BRANCH   1  18
ATOM     18  C   UNL d   1      28.409 -14.653  -1.510  0.00  0.00    -0.023 C 
ATOM     19  C   UNL d   1      27.875 -13.370  -1.377  0.00  0.00     0.012 C 
ATOM     20  C   UNL d   1      26.864 -12.841  -2.150  0.00  0.00     0.040 C 
ATOM     21  C   UNL d   1      26.633 -13.391  -3.374  0.00  0.00     0.101 C 
ATOM     22  C   UNL d   1      27.275 -14.581  -3.697  0.00  0.00     0.102 C 
ATOM     23  C   UNL d   1      28.146 -15.175  -2.772  0.00  0.00     0.049 C 
BRANCH  21  24
ATOM     24  O   UNL d   1      25.864 -12.590  -4.163  0.00  0.00    -0.353 OA
ATOM     25  C   UNL d   1      26.443 -12.243  -5.406  0.00  0.00     0.210 C 
ENDBRANCH  21  24
BRANCH  22  26
ATOM     26  O   UNL d   1      26.991 -15.124  -4.912  0.00  0.00    -0.353 OA
ATOM     27  C   UNL d   1      25.693 -15.587  -5.177  0.00  0.00     0.210 C 
ENDBRANCH  22  26
ENDBRANCH   1  18
BRANCH   1  28
ATOM     28  N   UNL d   1      28.941 -15.081   1.136  0.00  0.00    -0.061 N 
ATOM     29  C   UNL d   1      30.146 -14.520   1.895  0.00  0.00     0.236 C 
ATOM     30  C   UNL d   1      29.710 -14.074   3.309  0.00  0.00     0.028 C 
ATOM     31  C   UNL d   1      28.614 -13.014   3.256  0.00  0.00     0.003 C 
ATOM     32  C   UNL d   1      27.403 -13.689   2.670  0.00  0.00     0.028 C 
ATOM     33  C   UNL d   1      27.788 -14.151   1.302  0.00  0.00     0.236 C 
ATOM     34  H   UNL d   1      28.668 -15.963   1.586  0.00  0.00     0.280 HD
ENDBRANCH   1  28
TORSDOF 10
ENDMDL
MODEL 6
REMARK VINA RESULT:    -8.945      4.845      7.609
REMARK INTER + INTRA:         -14.085
REMARK INTER:                 -11.928
REMARK INTRA:                  -2.156
REMARK CONF_INDEPENDENT:        2.983
REMARK UNBOUND:                -2.156
REMARK  10 active torsions:
REMARK  status: ('A' for Active; 'I' for Inactive)
REMARK    1  A    between atoms: C_2  and  C_3 
REMARK    2  A    between atoms: C_3  and  S_4 
REMARK    3  A    between atoms: S_4  and  C_5 
REMARK    4  A    between atoms: C_8  and  C_9 
REMARK       I    between atoms: C_9  and  N_11 
REMARK    5  A    between atoms: N_11  and  C_12 
REMARK    6  A    between atoms: C_12  and  C_13 
REMARK    7  A    between atoms: C_13  and  C_14 
REMARK    8  A    between atoms: C_13  and  N_24 
REMARK    9  A    between atoms: C_17  and  O_18 
REMARK   10  A    between atoms: C_20  and  O_21 
ROOT
ATOM      1  C   UNL d   1      27.698 -15.491  -0.911  0.00  0.00     0.238 C 
ENDROOT
BRANCH   1   2
ATOM      2  C   UNL d   1      28.757 -15.954   0.234  0.00  0.00     0.161 C 
BRANCH   2   3
ATOM      3  N   UNL d   1      28.703 -15.201   1.511  0.00  0.00    -0.354 N 
ATOM      4  C   UNL d   1      27.700 -14.328   1.922  0.00  0.00     0.256 C 
ATOM      5  O   UNL d   1      26.779 -14.026   1.193  0.00  0.00    -0.268 OA
ATOM      6  H   UNL d   1      29.526 -15.219   2.093  0.00  0.00     0.162 HD
BRANCH   4   7
ATOM      7  C   UNL d   1      27.782 -13.778   3.328  0.00  0.00     0.090 C 
ATOM      8  C   UNL d   1      27.847 -14.626   4.413  0.00  0.00     0.139 C 
ATOM      9  N   UNL d   1      27.950 -14.208   5.708  0.00  0.00    -0.234 NA
ATOM     10  C   UNL d   1      28.025 -12.887   5.942  0.00  0.00     0.189 C 
ATOM     11  N   UNL d   1      27.970 -11.977   4.973  0.00  0.00    -0.210 NA
ATOM     12  C   UNL d   1      27.775 -12.455   3.724  0.00  0.00     0.146 C 
ATOM     13 CL   UNL d   1      27.243 -11.159   2.709  0.00  0.00    -0.061 Cl
BRANCH  10  14
ATOM     14  S   UNL d   1      28.155 -12.332   7.624  0.00  0.00    -0.090 SA
BRANCH  14  15
ATOM     15  C   UNL d   1      29.188 -13.648   8.390  0.00  0.00     0.082 C 
BRANCH  15  16
ATOM     16  C   UNL d   1      28.594 -14.036   9.751  0.00  0.00     0.006 C 
ATOM     17  C   UNL d   1      28.147 -12.819  10.551  0.00  0.00     0.006 C 
ENDBRANCH  15  16
ENDBRANCH  14  15
ENDBRANCH  10  14
ENDBRANCH   4   7
ENDBRANCH   2   3
ENDBRANCH   1   2
BRANCH   1  18
ATOM     18  C   UNL d   1      28.213 -15.864  -2.339  0.00  0.00    -0.023 C 
ATOM     19  C   UNL d   1      29.306 -16.672  -2.657  0.00  0.00     0.012 C 
ATOM     20  C   UNL d   1      29.967 -16.684  -3.867  0.00  0.00     0.040 C 
ATOM     21  C   UNL d   1      29.310 -16.219  -4.965  0.00  0.00     0.101 C 
ATOM     22  C   UNL d   1      28.096 -15.565  -4.783  0.00  0.00     0.102 C 
ATOM     23  C   UNL d   1      27.576 -15.411  -3.489  0.00  0.00     0.049 C 
BRANCH  21  24
ATOM     24  O   UNL d   1      29.919 -16.588  -6.125  0.00  0.00    -0.353 OA
ATOM     25  C   UNL d   1      30.615 -17.818  -6.069  0.00  0.00     0.210 C 
ENDBRANCH  21  24
BRANCH  22  26
ATOM     26  O   UNL d   1      27.486 -15.078  -5.897  0.00  0.00    -0.353 OA
ATOM     27  C   UNL d   1      28.155 -14.142  -6.700  0.00  0.00     0.210 C 
ENDBRANCH  22  26
ENDBRANCH   1  18
BRANCH   1  28
ATOM     28  N   UNL d   1      26.221 -16.070  -0.481  0.00  0.00    -0.061 N 
ATOM     29  C   UNL d   1      25.115 -15.868  -1.521  0.00  0.00     0.236 C 
ATOM     30  C   UNL d   1      23.827 -16.586  -1.061  0.00  0.00     0.028 C 
ATOM     31  C   UNL d   1      24.054 -18.080  -0.858  0.00  0.00     0.003 C 
ATOM     32  C   UNL d   1      25.006 -18.209   0.301  0.00  0.00     0.028 C 
ATOM     33  C   UNL d   1      26.265 -17.511  -0.099  0.00  0.00     0.236 C 
ATOM     34  H   UNL d   1      25.954 -15.555   0.366  0.00  0.00     0.280 HD
ENDBRANCH   1  28
TORSDOF 10
ENDMDL
MODEL 7
REMARK VINA RESULT:    -8.898      3.628      5.619
REMARK INTER + INTRA:         -14.167
REMARK INTER:                 -11.881
REMARK INTRA:                  -2.285
REMARK CONF_INDEPENDENT:        2.983
REMARK UNBOUND:                -2.285
REMARK  10 active torsions:
REMARK  status: ('A' for Active; 'I' for Inactive)
REMARK    1  A    between atoms: C_2  and  C_3 
REMARK    2  A    between atoms: C_3  and  S_4 
REMARK    3  A    between atoms: S_4  and  C_5 
REMARK    4  A    between atoms: C_8  and  C_9 
REMARK       I    between atoms: C_9  and  N_11 
REMARK    5  A    between atoms: N_11  and  C_12 
REMARK    6  A    between atoms: C_12  and  C_13 
REMARK    7  A    between atoms: C_13  and  C_14 
REMARK    8  A    between atoms: C_13  and  N_24 
REMARK    9  A    between atoms: C_17  and  O_18 
REMARK   10  A    between atoms: C_20  and  O_21 
ROOT
ATOM      1  C   UNL d   1      30.153 -14.267   1.031  0.00  0.00     0.238 C 
ENDROOT
BRANCH   1   2
ATOM      2  C   UNL d   1      29.177 -13.904  -0.220  0.00  0.00     0.161 C 
BRANCH   2   3
ATOM      3  N   UNL d   1      28.128 -14.903  -0.537  0.00  0.00    -0.354 N 
ATOM      4  C   UNL d   1      27.450 -15.715   0.368  0.00  0.00     0.256 C 
ATOM      5  O   UNL d   1      27.738 -15.737   1.546  0.00  0.00    -0.268 OA
ATOM      6  H   UNL d   1      27.969 -15.114  -1.510  0.00  0.00     0.162 HD
BRANCH   4   7
ATOM      7  C   UNL d   1      26.317 -16.564  -0.163  0.00  0.00     0.090 C 
ATOM      8  C   UNL d   1      26.029 -17.787   0.404  0.00  0.00     0.139 C 
ATOM      9  N   UNL d   1      25.008 -18.597   0.000  0.00  0.00    -0.234 NA
ATOM     10  C   UNL d   1      24.211 -18.165  -0.992  0.00  0.00     0.189 C 
ATOM     11  N   UNL d   1      24.396 -17.003  -1.613  0.00  0.00    -0.210 NA
ATOM     12  C   UNL d   1      25.479 -16.293  -1.227  0.00  0.00     0.146 C 
ATOM     13 CL   UNL d   1      25.831 -15.111  -2.440  0.00  0.00    -0.061 Cl
BRANCH  10  14
ATOM     14  S   UNL d   1      22.882 -19.214  -1.528  0.00  0.00    -0.090 SA
BRANCH  14  15
ATOM     15  C   UNL d   1      21.402 -18.324  -0.891  0.00  0.00     0.082 C 
BRANCH  15  16
ATOM     16  C   UNL d   1      20.234 -19.309  -0.752  0.00  0.00     0.006 C 
ATOM     17  C   UNL d   1      20.239 -20.020   0.596  0.00  0.00     0.006 C 
ENDBRANCH  15  16
ENDBRANCH  14  15
ENDBRANCH  10  14
ENDBRANCH   4   7
ENDBRANCH   2   3
ENDBRANCH   1   2
BRANCH   1  18
ATOM     18  C   UNL d   1      29.517 -13.822   2.388  0.00  0.00    -0.023 C 
ATOM     19  C   UNL d   1      29.662 -14.441   3.631  0.00  0.00     0.012 C 
ATOM     20  C   UNL d   1      28.819 -14.277   4.709  0.00  0.00     0.040 C 
ATOM     21  C   UNL d   1      28.044 -13.158   4.758  0.00  0.00     0.101 C 
ATOM     22  C   UNL d   1      27.981 -12.347   3.630  0.00  0.00     0.102 C 
ATOM     23  C   UNL d   1      28.718 -12.688   2.486  0.00  0.00     0.049 C 
BRANCH  21  24
ATOM     24  O   UNL d   1      27.524 -12.945   5.997  0.00  0.00    -0.353 OA
ATOM     25  C   UNL d   1      28.481 -12.762   7.023  0.00  0.00     0.210 C 
ENDBRANCH  21  24
BRANCH  22  26
ATOM     26  O   UNL d   1      27.167 -11.260   3.699  0.00  0.00    -0.353 OA
ATOM     27  C   UNL d   1      27.417 -10.267   4.659  0.00  0.00     0.210 C 
ENDBRANCH  22  26
ENDBRANCH   1  18
BRANCH   1  28
ATOM     28  N   UNL d   1      30.567 -15.852   0.891  0.00  0.00    -0.061 N 
ATOM     29  C   UNL d   1      30.686 -16.368  -0.546  0.00  0.00     0.236 C 
ATOM     30  C   UNL d   1      31.223 -17.816  -0.538  0.00  0.00     0.028 C 
ATOM     31  C   UNL d   1      32.586 -17.911   0.143  0.00  0.00     0.003 C 
ATOM     32  C   UNL d   1      32.358 -17.572   1.591  0.00  0.00     0.028 C 
ATOM     33  C   UNL d   1      31.821 -16.178   1.627  0.00  0.00     0.236 C 
ATOM     34  H   UNL d   1      29.816 -16.378   1.352  0.00  0.00     0.280 HD
ENDBRANCH   1  28
TORSDOF 10
ENDMDL
MODEL 8
REMARK VINA RESULT:    -8.879      4.906      7.869
REMARK INTER + INTRA:         -13.990
REMARK INTER:                 -11.862
REMARK INTRA:                  -2.128
REMARK CONF_INDEPENDENT:        2.983
REMARK UNBOUND:                -2.128
REMARK  10 active torsions:
REMARK  status: ('A' for Active; 'I' for Inactive)
REMARK    1  A    between atoms: C_2  and  C_3 
REMARK    2  A    between atoms: C_3  and  S_4 
REMARK    3  A    between atoms: S_4  and  C_5 
REMARK    4  A    between atoms: C_8  and  C_9 
REMARK       I    between atoms: C_9  and  N_11 
REMARK    5  A    between atoms: N_11  and  C_12 
REMARK    6  A    between atoms: C_12  and  C_13 
REMARK    7  A    between atoms: C_13  and  C_14 
REMARK    8  A    between atoms: C_13  and  N_24 
REMARK    9  A    between atoms: C_17  and  O_18 
REMARK   10  A    between atoms: C_20  and  O_21 
ROOT
ATOM      1  C   UNL d   1      27.306 -15.118  -0.808  0.00  0.00     0.238 C 
ENDROOT
BRANCH   1   2
ATOM      2  C   UNL d   1      28.594 -15.804  -0.088  0.00  0.00     0.161 C 
BRANCH   2   3
ATOM      3  N   UNL d   1      28.854 -15.388   1.312  0.00  0.00    -0.354 N 
ATOM      4  C   UNL d   1      28.027 -14.608   2.117  0.00  0.00     0.256 C 
ATOM      5  O   UNL d   1      27.011 -14.104   1.688  0.00  0.00    -0.268 OA
ATOM      6  H   UNL d   1      29.769 -15.576   1.688  0.00  0.00     0.162 HD
BRANCH   4   7
ATOM      7  C   UNL d   1      28.428 -14.424   3.563  0.00  0.00     0.090 C 
ATOM      8  C   UNL d   1      27.478 -14.164   4.528  0.00  0.00     0.139 C 
ATOM      9  N   UNL d   1      27.756 -14.012   5.855  0.00  0.00    -0.234 NA
ATOM     10  C   UNL d   1      29.031 -14.155   6.255  0.00  0.00     0.189 C 
ATOM     11  N   UNL d   1      30.029 -14.405   5.412  0.00  0.00    -0.210 NA
ATOM     12  C   UNL d   1      29.699 -14.451   4.103  0.00  0.00     0.146 C 
ATOM     13 CL   UNL d   1      31.139 -14.284   3.159  0.00  0.00    -0.061 Cl
BRANCH  10  14
ATOM     14  S   UNL d   1      29.404 -13.956   7.980  0.00  0.00    -0.090 SA
BRANCH  14  15
ATOM     15  C   UNL d   1      28.801 -12.250   8.315  0.00  0.00     0.082 C 
BRANCH  15  16
ATOM     16  C   UNL d   1      28.155 -12.200   9.706  0.00  0.00     0.006 C 
ATOM     17  C   UNL d   1      28.218 -13.547  10.417  0.00  0.00     0.006 C 
ENDBRANCH  15  16
ENDBRANCH  14  15
ENDBRANCH  10  14
ENDBRANCH   4   7
ENDBRANCH   2   3
ENDBRANCH   1   2
BRANCH   1  18
ATOM     18  C   UNL d   1      27.510 -15.024  -2.355  0.00  0.00    -0.023 C 
ATOM     19  C   UNL d   1      26.642 -14.453  -3.287  0.00  0.00     0.012 C 
ATOM     20  C   UNL d   1      26.643 -14.707  -4.642  0.00  0.00     0.040 C 
ATOM     21  C   UNL d   1      27.781 -15.200  -5.205  0.00  0.00     0.101 C 
ATOM     22  C   UNL d   1      28.806 -15.619  -4.365  0.00  0.00     0.102 C 
ATOM     23  C   UNL d   1      28.654 -15.516  -2.974  0.00  0.00     0.049 C 
BRANCH  21  24
ATOM     24  O   UNL d   1      27.774 -15.091  -6.562  0.00  0.00    -0.353 OA
ATOM     25  C   UNL d   1      28.688 -14.148  -7.089  0.00  0.00     0.210 C 
ENDBRANCH  21  24
BRANCH  22  26
ATOM     26  O   UNL d   1      29.912 -16.143  -4.959  0.00  0.00    -0.353 OA
ATOM     27  C   UNL d   1      30.085 -17.536  -4.997  0.00  0.00     0.210 C 
ENDBRANCH  22  26
ENDBRANCH   1  18
BRANCH   1  28
ATOM     28  N   UNL d   1      25.966 -15.914  -0.284  0.00  0.00    -0.061 N 
ATOM     29  C   UNL d   1      24.785 -15.909  -1.259  0.00  0.00     0.236 C 
ATOM     30  C   UNL d   1      23.655 -16.811  -0.715  0.00  0.00     0.028 C 
ATOM     31  C   UNL d   1      24.126 -18.247  -0.508  0.00  0.00     0.003 C 
ATOM     32  C   UNL d   1      25.151 -18.200   0.593  0.00  0.00     0.028 C 
ATOM     33  C   UNL d   1      26.259 -17.321   0.111  0.00  0.00     0.236 C 
ATOM     34  H   UNL d   1      25.670 -15.429   0.571  0.00  0.00     0.280 HD
ENDBRANCH   1  28
TORSDOF 10
ENDMDL
MODEL 9
REMARK VINA RESULT:    -8.796      4.851      7.726
REMARK INTER + INTRA:         -13.838
REMARK INTER:                 -11.779
REMARK INTRA:                  -2.059
REMARK CONF_INDEPENDENT:        2.983
REMARK UNBOUND:                -2.059
REMARK  10 active torsions:
REMARK  status: ('A' for Active; 'I' for Inactive)
REMARK    1  A    between atoms: C_2  and  C_3 
REMARK    2  A    between atoms: C_3  and  S_4 
REMARK    3  A    between atoms: S_4  and  C_5 
REMARK    4  A    between atoms: C_8  and  C_9 
REMARK       I    between atoms: C_9  and  N_11 
REMARK    5  A    between atoms: N_11  and  C_12 
REMARK    6  A    between atoms: C_12  and  C_13 
REMARK    7  A    between atoms: C_13  and  C_14 
REMARK    8  A    between atoms: C_13  and  N_24 
REMARK    9  A    between atoms: C_17  and  O_18 
REMARK   10  A    between atoms: C_20  and  O_21 
ROOT
ATOM      1  C   UNL d   1      27.046 -15.243  -0.925  0.00  0.00     0.238 C 
ENDROOT
BRANCH   1   2
ATOM      2  C   UNL d   1      28.333 -15.949  -0.225  0.00  0.00     0.161 C 
BRANCH   2   3
ATOM      3  N   UNL d   1      28.648 -15.505   1.155  0.00  0.00    -0.354 N 
ATOM      4  C   UNL d   1      27.885 -14.655   1.951  0.00  0.00     0.256 C 
ATOM      5  O   UNL d   1      26.889 -14.108   1.527  0.00  0.00    -0.268 OA
ATOM      6  H   UNL d   1      29.560 -15.733   1.517  0.00  0.00     0.162 HD
BRANCH   4   7
ATOM      7  C   UNL d   1      28.328 -14.448   3.381  0.00  0.00     0.090 C 
ATOM      8  C   UNL d   1      27.405 -14.192   4.373  0.00  0.00     0.139 C 
ATOM      9  N   UNL d   1      27.722 -14.021   5.689  0.00  0.00    -0.234 NA
ATOM     10  C   UNL d   1      29.011 -14.140   6.050  0.00  0.00     0.189 C 
ATOM     11  N   UNL d   1      29.986 -14.384   5.179  0.00  0.00    -0.210 NA
ATOM     12  C   UNL d   1      29.615 -14.450   3.881  0.00  0.00     0.146 C 
ATOM     13 CL   UNL d   1      31.023 -14.272   2.890  0.00  0.00    -0.061 Cl
BRANCH  10  14
ATOM     14  S   UNL d   1      29.435 -13.916   7.760  0.00  0.00    -0.090 SA
BRANCH  14  15
ATOM     15  C   UNL d   1      28.391 -12.477   8.235  0.00  0.00     0.082 C 
BRANCH  15  16
ATOM     16  C   UNL d   1      28.534 -12.218   9.741  0.00  0.00     0.006 C 
ATOM     17  C   UNL d   1      28.147 -13.434  10.574  0.00  0.00     0.006 C 
ENDBRANCH  15  16
ENDBRANCH  14  15
ENDBRANCH  10  14
ENDBRANCH   4   7
ENDBRANCH   2   3
ENDBRANCH   1   2
BRANCH   1  18
ATOM     18  C   UNL d   1      27.205 -15.197  -2.480  0.00  0.00    -0.023 C 
ATOM     19  C   UNL d   1      28.083 -15.950  -3.261  0.00  0.00     0.012 C 
ATOM     20  C   UNL d   1      28.479 -15.640  -4.544  0.00  0.00     0.040 C 
ATOM     21  C   UNL d   1      27.690 -14.808  -5.280  0.00  0.00     0.101 C 
ATOM     22  C   UNL d   1      26.646 -14.149  -4.640  0.00  0.00     0.102 C 
ATOM     23  C   UNL d   1      26.423 -14.362  -3.272  0.00  0.00     0.049 C 
BRANCH  21  24
ATOM     24  O   UNL d   1      27.995 -14.847  -6.606  0.00  0.00    -0.353 OA
ATOM     25  C   UNL d   1      29.038 -13.979  -7.005  0.00  0.00     0.210 C 
ENDBRANCH  21  24
BRANCH  22  26
ATOM     26  O   UNL d   1      25.902 -13.296  -5.395  0.00  0.00    -0.353 OA
ATOM     27  C   UNL d   1      25.905 -11.925  -5.097  0.00  0.00     0.210 C 
ENDBRANCH  22  26
ENDBRANCH   1  18
BRANCH   1  28
ATOM     28  N   UNL d   1      25.698 -15.982  -0.340  0.00  0.00    -0.061 N 
ATOM     29  C   UNL d   1      24.483 -15.949  -1.271  0.00  0.00     0.236 C 
ATOM     30  C   UNL d   1      23.343 -16.801  -0.672  0.00  0.00     0.028 C 
ATOM     31  C   UNL d   1      23.770 -18.250  -0.458  0.00  0.00     0.003 C 
ATOM     32  C   UNL d   1      24.835 -18.223   0.604  0.00  0.00     0.028 C 
ATOM     33  C   UNL d   1      25.956 -17.392   0.068  0.00  0.00     0.236 C 
ATOM     34  H   UNL d   1      25.451 -15.473   0.517  0.00  0.00     0.280 HD
ENDBRANCH   1  28
TORSDOF 10
ENDMDL
