MODEL 1
REMARK VINA RESULT:    -9.006      0.000      0.000
REMARK INTER + INTRA:         -15.264
REMARK INTER:                 -11.989
REMARK INTRA:                  -3.276
REMARK CONF_INDEPENDENT:        2.983
REMARK UNBOUND:                -3.276
REMARK  10 active torsions:
REMARK  status: ('A' for Active; 'I' for Inactive)
REMARK    1  A    between atoms: C_6  and  N_7 
REMARK       I    between atoms: N_7  and  C_8 
REMARK    2  A    between atoms: C_19  and  N_7 
REMARK    3  A    between atoms: C_8  and  C_10 
REMARK    4  A    between atoms: C_13  and  C_14 
REMARK       I    between atoms: C_14  and  N_15 
REMARK    5  A    between atoms: C_17  and  N_18 
REMARK    6  A    between atoms: C_19  and  C_28 
REMARK    7  A    between atoms: C_19  and  C_20 
REMARK       I    between atoms: C_20  and  N_22 
REMARK    8  A    between atoms: N_22  and  C_23 
REMARK    9  A    between atoms: C_23  and  C_24 
REMARK   10  A    between atoms: C_24  and  C_25 
ROOT
ATOM      1  N   UNL d   1      28.173 -16.104  -1.119  0.00  0.00    -0.295 N 
ATOM      2  C   UNL d   1      28.822 -14.842  -0.462  0.00  0.00     0.269 C 
ATOM      3  O   UNL d   1      29.862 -14.391  -0.991  0.00  0.00    -0.266 OA
ENDROOT
BRANCH   1   4
ATOM      4  C   UNL d   1      26.905 -16.844  -0.690  0.00  0.00     0.045 C 
ATOM      5  C   UNL d   1      26.859 -17.996   0.074  0.00  0.00     0.030 C 
ATOM      6  C   UNL d   1      25.765 -18.524   0.802  0.00  0.00     0.003 C 
ATOM      7  C   UNL d   1      24.510 -18.048   0.558  0.00  0.00     0.007 C 
ATOM      8  C   UNL d   1      24.410 -17.124  -0.451  0.00  0.00    -0.054 C 
ATOM      9  C   UNL d   1      23.069 -16.608  -0.894  0.00  0.00     0.049 C 
ATOM     10  C   UNL d   1      25.596 -16.607  -1.076  0.00  0.00    -0.029 C 
ATOM     11  C   UNL d   1      25.318 -15.862  -2.290  0.00  0.00     0.051 C 
ENDBRANCH   1   4
BRANCH   1  12
ATOM     12  C   UNL d   1      29.092 -16.719  -2.247  0.00  0.00     0.218 C 
BRANCH  12  13
ATOM     13  C   UNL d   1      29.292 -15.955  -3.621  0.00  0.00    -0.026 C 
ATOM     14  C   UNL d   1      28.588 -14.739  -3.878  0.00  0.00     0.013 C 
ATOM     15  C   UNL d   1      28.488 -14.176  -5.149  0.00  0.00     0.043 C 
ATOM     16  C   UNL d   1      29.002 -14.871  -6.223  0.00  0.00     0.116 C 
ATOM     17  F   UNL d   1      28.693 -14.475  -7.466  0.00  0.00    -0.206 F 
ATOM     18  C   UNL d   1      29.743 -16.037  -6.021  0.00  0.00     0.043 C 
ATOM     19  C   UNL d   1      29.984 -16.527  -4.712  0.00  0.00     0.013 C 
ENDBRANCH  12  13
BRANCH  12  20
ATOM     20  C   UNL d   1      30.547 -17.002  -1.691  0.00  0.00     0.245 C 
ATOM     21  O   UNL d   1      31.580 -16.773  -2.320  0.00  0.00    -0.271 OA
ATOM     22  N   UNL d   1      30.576 -17.724  -0.488  0.00  0.00    -0.359 N 
ATOM     23  H   UNL d   1      29.709 -18.129  -0.148  0.00  0.00     0.162 HD
BRANCH  22  24
ATOM     24  C   UNL d   1      31.799 -18.410  -0.148  0.00  0.00     0.123 C 
BRANCH  24  25
ATOM     25  C   UNL d   1      31.932 -19.758  -0.847  0.00  0.00     0.023 C 
BRANCH  25  26
ATOM     26  C   UNL d   1      31.184 -20.866  -0.087  0.00  0.00    -0.021 C 
ATOM     27  C   UNL d   1      31.152 -22.163  -0.897  0.00  0.00     0.009 C 
ATOM     28  C   UNL d   1      31.852 -21.123   1.263  0.00  0.00     0.009 C 
ENDBRANCH  25  26
ENDBRANCH  24  25
ENDBRANCH  22  24
ENDBRANCH  12  20
ENDBRANCH   1  12
BRANCH   2  29
ATOM     29  C   UNL d   1      28.349 -14.144   0.790  0.00  0.00     0.115 C 
ATOM     30  S   UNL d   1      26.772 -13.384   0.902  0.00  0.00     0.019 SA
ATOM     31  N   UNL d   1      26.630 -13.464   2.595  0.00  0.00    -0.203 NA
ATOM     32  C   UNL d   1      27.811 -13.848   3.112  0.00  0.00     0.155 C 
ATOM     33  C   UNL d   1      28.847 -14.160   2.084  0.00  0.00     0.065 C 
BRANCH  32  34
ATOM     34  C   UNL d   1      27.950 -14.316   4.539  0.00  0.00     0.270 C 
ATOM     35  N   UNL d   1      28.778 -15.362   4.866  0.00  0.00    -0.365 N 
ATOM     36  H   UNL d   1      29.316 -15.886   4.193  0.00  0.00     0.159 HD
ATOM     37  H   UNL d   1      28.805 -15.634   5.843  0.00  0.00     0.159 HD
ATOM     38  O   UNL d   1      27.414 -13.717   5.480  0.00  0.00    -0.266 OA
ENDBRANCH  32  34
BRANCH  33  39
ATOM     39  N   UNL d   1      30.000 -14.825   2.365  0.00  0.00    -0.299 NA
ATOM     40  H   UNL d   1      30.047 -15.200   3.321  0.00  0.00     0.124 HD
ATOM     41  H   UNL d   1      30.249 -15.581   1.729  0.00  0.00     0.124 HD
ENDBRANCH  33  39
ENDBRANCH   2  29
TORSDOF 10
ENDMDL
MODEL 2
REMARK VINA RESULT:    -8.827      3.168      6.550
REMARK INTER + INTRA:         -16.157
REMARK INTER:                 -11.810
REMARK INTRA:                  -4.347
REMARK CONF_INDEPENDENT:        2.983
REMARK UNBOUND:                -4.347
REMARK  10 active torsions:
REMARK  status: ('A' for Active; 'I' for Inactive)
REMARK    1  A    between atoms: C_6  and  N_7 
REMARK       I    between atoms: N_7  and  C_8 
REMARK    2  A    between atoms: C_19  and  N_7 
REMARK    3  A    between atoms: C_8  and  C_10 
REMARK    4  A    between atoms: C_13  and  C_14 
REMARK       I    between atoms: C_14  and  N_15 
REMARK    5  A    between atoms: C_17  and  N_18 
REMARK    6  A    between atoms: C_19  and  C_28 
REMARK    7  A    between atoms: C_19  and  C_20 
REMARK       I    between atoms: C_20  and  N_22 
REMARK    8  A    between atoms: N_22  and  C_23 
REMARK    9  A    between atoms: C_23  and  C_24 
REMARK   10  A    between atoms: C_24  and  C_25 
ROOT
ATOM      1  N   UNL d   1      27.479 -15.849  -1.701  0.00  0.00    -0.295 N 
ATOM      2  C   UNL d   1      27.286 -14.807  -0.551  0.00  0.00     0.269 C 
ATOM      3  O   UNL d   1      26.123 -14.633  -0.124  0.00  0.00    -0.266 OA
ENDROOT
BRANCH   1   4
ATOM      4  C   UNL d   1      28.779 -16.263  -2.390  0.00  0.00     0.045 C 
ATOM      5  C   UNL d   1      29.920 -16.723  -1.757  0.00  0.00     0.030 C 
ATOM      6  C   UNL d   1      30.999 -17.451  -2.313  0.00  0.00     0.003 C 
ATOM      7  C   UNL d   1      31.133 -17.514  -3.670  0.00  0.00     0.007 C 
ATOM      8  C   UNL d   1      30.223 -16.785  -4.391  0.00  0.00    -0.054 C 
ATOM      9  C   UNL d   1      30.331 -16.679  -5.887  0.00  0.00     0.049 C 
ATOM     10  C   UNL d   1      29.125 -16.140  -3.725  0.00  0.00    -0.029 C 
ATOM     11  C   UNL d   1      28.422 -15.196  -4.576  0.00  0.00     0.051 C 
ENDBRANCH   1   4
BRANCH   1  12
ATOM     12  C   UNL d   1      26.097 -16.359  -2.271  0.00  0.00     0.218 C 
BRANCH  12  13
ATOM     13  C   UNL d   1      24.933 -16.788  -1.283  0.00  0.00    -0.026 C 
ATOM     14  C   UNL d   1      25.044 -17.991  -0.520  0.00  0.00     0.013 C 
ATOM     15  C   UNL d   1      23.960 -18.575   0.133  0.00  0.00     0.043 C 
ATOM     16  C   UNL d   1      22.706 -18.029  -0.045  0.00  0.00     0.116 C 
ATOM     17  F   UNL d   1      21.630 -18.717   0.361  0.00  0.00    -0.206 F 
ATOM     18  C   UNL d   1      22.552 -16.828  -0.739  0.00  0.00     0.043 C 
ATOM     19  C   UNL d   1      23.676 -16.144  -1.270  0.00  0.00     0.013 C 
ENDBRANCH  12  13
BRANCH  12  20
ATOM     20  C   UNL d   1      25.464 -15.286  -3.247  0.00  0.00     0.245 C 
ATOM     21  O   UNL d   1      25.294 -15.469  -4.453  0.00  0.00    -0.271 OA
ATOM     22  N   UNL d   1      25.285 -14.018  -2.675  0.00  0.00    -0.359 N 
ATOM     23  H   UNL d   1      25.693 -13.839  -1.763  0.00  0.00     0.162 HD
BRANCH  22  24
ATOM     24  C   UNL d   1      25.155 -12.892  -3.569  0.00  0.00     0.123 C 
BRANCH  24  25
ATOM     25  C   UNL d   1      26.007 -11.701  -3.144  0.00  0.00     0.023 C 
BRANCH  25  26
ATOM     26  C   UNL d   1      27.263 -11.562  -4.018  0.00  0.00    -0.021 C 
ATOM     27  C   UNL d   1      28.482 -12.181  -3.332  0.00  0.00     0.009 C 
ATOM     28  C   UNL d   1      27.042 -12.235  -5.372  0.00  0.00     0.009 C 
ENDBRANCH  25  26
ENDBRANCH  24  25
ENDBRANCH  22  24
ENDBRANCH  12  20
ENDBRANCH   1  12
BRANCH   2  29
ATOM     29  C   UNL d   1      28.361 -13.942   0.061  0.00  0.00     0.115 C 
ATOM     30  S   UNL d   1      28.181 -12.206   0.241  0.00  0.00     0.019 SA
ATOM     31  N   UNL d   1      29.284 -12.021   1.521  0.00  0.00    -0.203 NA
ATOM     32  C   UNL d   1      29.951 -13.178   1.690  0.00  0.00     0.155 C 
ATOM     33  C   UNL d   1      29.491 -14.276   0.791  0.00  0.00     0.065 C 
BRANCH  32  34
ATOM     34  C   UNL d   1      30.772 -13.460   2.924  0.00  0.00     0.270 C 
ATOM     35  N   UNL d   1      30.811 -14.714   3.480  0.00  0.00    -0.365 N 
ATOM     36  H   UNL d   1      30.293 -15.504   3.125  0.00  0.00     0.159 HD
ATOM     37  H   UNL d   1      31.369 -14.825   4.320  0.00  0.00     0.159 HD
ATOM     38  O   UNL d   1      31.522 -12.609   3.420  0.00  0.00    -0.266 OA
ENDBRANCH  32  34
BRANCH  33  39
ATOM     39  N   UNL d   1      29.822 -15.583   0.980  0.00  0.00    -0.299 NA
ATOM     40  H   UNL d   1      30.508 -15.739   1.730  0.00  0.00     0.124 HD
ATOM     41  H   UNL d   1      29.046 -16.224   1.139  0.00  0.00     0.124 HD
ENDBRANCH  33  39
ENDBRANCH   2  29
TORSDOF 10
ENDMDL
MODEL 3
REMARK VINA RESULT:    -8.411      3.100      6.574
REMARK INTER + INTRA:         -15.958
REMARK INTER:                 -11.394
REMARK INTRA:                  -4.564
REMARK CONF_INDEPENDENT:        2.983
REMARK UNBOUND:                -4.564
REMARK  10 active torsions:
REMARK  status: ('A' for Active; 'I' for Inactive)
REMARK    1  A    between atoms: C_6  and  N_7 
REMARK       I    between atoms: N_7  and  C_8 
REMARK    2  A    between atoms: C_19  and  N_7 
REMARK    3  A    between atoms: C_8  and  C_10 
REMARK    4  A    between atoms: C_13  and  C_14 
REMARK       I    between atoms: C_14  and  N_15 
REMARK    5  A    between atoms: C_17  and  N_18 
REMARK    6  A    between atoms: C_19  and  C_28 
REMARK    7  A    between atoms: C_19  and  C_20 
REMARK       I    between atoms: C_20  and  N_22 
REMARK    8  A    between atoms: N_22  and  C_23 
REMARK    9  A    between atoms: C_23  and  C_24 
REMARK   10  A    between atoms: C_24  and  C_25 
ROOT
ATOM      1  N   UNL d   1      27.472 -15.787  -1.673  0.00  0.00    -0.295 N 
ATOM      2  C   UNL d   1      27.258 -14.817  -0.465  0.00  0.00     0.269 C 
ATOM      3  O   UNL d   1      26.098 -14.716  -0.009  0.00  0.00    -0.266 OA
ENDROOT
BRANCH   1   4
ATOM      4  C   UNL d   1      28.774 -16.108  -2.407  0.00  0.00     0.045 C 
ATOM      5  C   UNL d   1      29.062 -15.790  -3.722  0.00  0.00     0.030 C 
ATOM      6  C   UNL d   1      30.328 -15.719  -4.351  0.00  0.00     0.003 C 
ATOM      7  C   UNL d   1      31.412 -16.271  -3.733  0.00  0.00     0.007 C 
ATOM      8  C   UNL d   1      31.155 -16.926  -2.556  0.00  0.00    -0.054 C 
ATOM      9  C   UNL d   1      32.243 -17.674  -1.835  0.00  0.00     0.049 C 
ATOM     10  C   UNL d   1      29.843 -16.874  -1.972  0.00  0.00    -0.029 C 
ATOM     11  C   UNL d   1      29.664 -17.828  -0.893  0.00  0.00     0.051 C 
ENDBRANCH   1   4
BRANCH   1  12
ATOM     12  C   UNL d   1      26.101 -16.327  -2.243  0.00  0.00     0.218 C 
BRANCH  12  13
ATOM     13  C   UNL d   1      24.944 -16.774  -1.257  0.00  0.00    -0.026 C 
ATOM     14  C   UNL d   1      25.091 -17.951  -0.461  0.00  0.00     0.013 C 
ATOM     15  C   UNL d   1      24.023 -18.559   0.197  0.00  0.00     0.043 C 
ATOM     16  C   UNL d   1      22.752 -18.065  -0.009  0.00  0.00     0.116 C 
ATOM     17  F   UNL d   1      21.698 -18.783   0.404  0.00  0.00    -0.206 F 
ATOM     18  C   UNL d   1      22.560 -16.889  -0.736  0.00  0.00     0.043 C 
ATOM     19  C   UNL d   1      23.663 -16.178  -1.273  0.00  0.00     0.013 C 
ENDBRANCH  12  13
BRANCH  12  20
ATOM     20  C   UNL d   1      25.450 -15.271  -3.227  0.00  0.00     0.245 C 
ATOM     21  O   UNL d   1      25.243 -15.480  -4.422  0.00  0.00    -0.271 OA
ATOM     22  N   UNL d   1      25.300 -13.987  -2.679  0.00  0.00    -0.359 N 
ATOM     23  H   UNL d   1      25.736 -13.792  -1.784  0.00  0.00     0.162 HD
BRANCH  22  24
ATOM     24  C   UNL d   1      25.155 -12.882  -3.595  0.00  0.00     0.123 C 
BRANCH  24  25
ATOM     25  C   UNL d   1      26.197 -11.792  -3.372  0.00  0.00     0.023 C 
BRANCH  25  26
ATOM     26  C   UNL d   1      27.478 -12.058  -4.179  0.00  0.00    -0.021 C 
ATOM     27  C   UNL d   1      28.643 -12.420  -3.256  0.00  0.00     0.009 C 
ATOM     28  C   UNL d   1      27.247 -13.191  -5.178  0.00  0.00     0.009 C 
ENDBRANCH  25  26
ENDBRANCH  24  25
ENDBRANCH  22  24
ENDBRANCH  12  20
ENDBRANCH   1  12
BRANCH   2  29
ATOM     29  C   UNL d   1      28.308 -13.939   0.171  0.00  0.00     0.115 C 
ATOM     30  S   UNL d   1      28.063 -12.223   0.437  0.00  0.00     0.019 SA
ATOM     31  N   UNL d   1      29.179 -12.055   1.709  0.00  0.00    -0.203 NA
ATOM     32  C   UNL d   1      29.893 -13.190   1.813  0.00  0.00     0.155 C 
ATOM     33  C   UNL d   1      29.462 -14.262   0.868  0.00  0.00     0.065 C 
BRANCH  32  34
ATOM     34  C   UNL d   1      30.745 -13.497   3.019  0.00  0.00     0.270 C 
ATOM     35  N   UNL d   1      30.863 -14.778   3.499  0.00  0.00    -0.365 N 
ATOM     36  H   UNL d   1      30.386 -15.574   3.102  0.00  0.00     0.159 HD
ATOM     37  H   UNL d   1      31.436 -14.906   4.326  0.00  0.00     0.159 HD
ATOM     38  O   UNL d   1      31.452 -12.636   3.558  0.00  0.00    -0.266 OA
ENDBRANCH  32  34
BRANCH  33  39
ATOM     39  N   UNL d   1      29.848 -15.562   0.989  0.00  0.00    -0.299 NA
ATOM     40  H   UNL d   1      30.559 -15.724   1.715  0.00  0.00     0.124 HD
ATOM     41  H   UNL d   1      29.102 -16.240   1.138  0.00  0.00     0.124 HD
ENDBRANCH  33  39
ENDBRANCH   2  29
TORSDOF 10
ENDMDL
MODEL 4
REMARK VINA RESULT:    -8.380      2.316      4.973
REMARK INTER + INTRA:         -15.418
REMARK INTER:                 -11.363
REMARK INTRA:                  -4.055
REMARK CONF_INDEPENDENT:        2.983
REMARK UNBOUND:                -4.055
REMARK  10 active torsions:
REMARK  status: ('A' for Active; 'I' for Inactive)
REMARK    1  A    between atoms: C_6  and  N_7 
REMARK       I    between atoms: N_7  and  C_8 
REMARK    2  A    between atoms: C_19  and  N_7 
REMARK    3  A    between atoms: C_8  and  C_10 
REMARK    4  A    between atoms: C_13  and  C_14 
REMARK       I    between atoms: C_14  and  N_15 
REMARK    5  A    between atoms: C_17  and  N_18 
REMARK    6  A    between atoms: C_19  and  C_28 
REMARK    7  A    between atoms: C_19  and  C_20 
REMARK       I    between atoms: C_20  and  N_22 
REMARK    8  A    between atoms: N_22  and  C_23 
REMARK    9  A    between atoms: C_23  and  C_24 
REMARK   10  A    between atoms: C_24  and  C_25 
ROOT
ATOM      1  N   UNL d   1      28.284 -15.014  -1.654  0.00  0.00    -0.295 N 
ATOM      2  C   UNL d   1      28.697 -13.677  -0.954  0.00  0.00     0.269 C 
ATOM      3  O   UNL d   1      29.416 -12.888  -1.605  0.00  0.00    -0.266 OA
ENDROOT
BRANCH   1   4
ATOM      4  C   UNL d   1      27.408 -16.137  -1.099  0.00  0.00     0.045 C 
ATOM      5  C   UNL d   1      27.828 -17.148  -0.253  0.00  0.00     0.030 C 
ATOM      6  C   UNL d   1      27.039 -17.984   0.575  0.00  0.00     0.003 C 
ATOM      7  C   UNL d   1      25.691 -18.043   0.373  0.00  0.00     0.007 C 
ATOM      8  C   UNL d   1      25.218 -17.319  -0.692  0.00  0.00    -0.054 C 
ATOM      9  C   UNL d   1      23.769 -17.390  -1.090  0.00  0.00     0.049 C 
ATOM     10  C   UNL d   1      26.098 -16.449  -1.422  0.00  0.00    -0.029 C 
ATOM     11  C   UNL d   1      25.522 -15.975  -2.667  0.00  0.00     0.051 C 
ENDBRANCH   1   4
BRANCH   1  12
ATOM     12  C   UNL d   1      29.042 -15.219  -3.024  0.00  0.00     0.218 C 
BRANCH  12  13
ATOM     13  C   UNL d   1      29.556 -16.658  -3.447  0.00  0.00    -0.026 C 
ATOM     14  C   UNL d   1      30.134 -17.530  -2.474  0.00  0.00     0.013 C 
ATOM     15  C   UNL d   1      30.861 -18.670  -2.817  0.00  0.00     0.043 C 
ATOM     16  C   UNL d   1      31.121 -18.913  -4.149  0.00  0.00     0.116 C 
ATOM     17  F   UNL d   1      32.023 -19.849  -4.477  0.00  0.00    -0.206 F 
ATOM     18  C   UNL d   1      30.538 -18.121  -5.139  0.00  0.00     0.043 C 
ATOM     19  C   UNL d   1      29.666 -17.056  -4.798  0.00  0.00     0.013 C 
ENDBRANCH  12  13
BRANCH  12  20
ATOM     20  C   UNL d   1      28.162 -14.700  -4.233  0.00  0.00     0.245 C 
ATOM     21  O   UNL d   1      27.687 -15.431  -5.102  0.00  0.00    -0.271 OA
ATOM     22  N   UNL d   1      28.121 -13.303  -4.360  0.00  0.00    -0.359 N 
ATOM     23  H   UNL d   1      28.750 -12.748  -3.787  0.00  0.00     0.162 HD
BRANCH  22  24
ATOM     24  C   UNL d   1      27.749 -12.758  -5.643  0.00  0.00     0.123 C 
BRANCH  24  25
ATOM     25  C   UNL d   1      26.448 -11.965  -5.591  0.00  0.00     0.023 C 
BRANCH  25  26
ATOM     26  C   UNL d   1      26.273 -11.249  -4.241  0.00  0.00    -0.021 C 
ATOM     27  C   UNL d   1      25.506  -9.937  -4.410  0.00  0.00     0.009 C 
ATOM     28  C   UNL d   1      25.532 -12.153  -3.257  0.00  0.00     0.009 C 
ENDBRANCH  25  26
ENDBRANCH  24  25
ENDBRANCH  22  24
ENDBRANCH  12  20
ENDBRANCH   1  12
BRANCH   2  29
ATOM     29  C   UNL d   1      28.360 -13.268   0.459  0.00  0.00     0.115 C 
ATOM     30  S   UNL d   1      27.028 -12.190   0.833  0.00  0.00     0.019 SA
ATOM     31  N   UNL d   1      26.790 -12.712   2.434  0.00  0.00    -0.203 NA
ATOM     32  C   UNL d   1      27.808 -13.519   2.783  0.00  0.00     0.155 C 
ATOM     33  C   UNL d   1      28.776 -13.781   1.678  0.00  0.00     0.065 C 
BRANCH  32  34
ATOM     34  C   UNL d   1      27.755 -14.395   4.010  0.00  0.00     0.270 C 
ATOM     35  N   UNL d   1      28.812 -15.200   4.354  0.00  0.00    -0.365 N 
ATOM     36  H   UNL d   1      29.662 -15.275   3.815  0.00  0.00     0.159 HD
ATOM     37  H   UNL d   1      28.698 -15.777   5.181  0.00  0.00     0.159 HD
ATOM     38  O   UNL d   1      26.811 -14.346   4.809  0.00  0.00    -0.266 OA
ENDBRANCH  32  34
BRANCH  33  39
ATOM     39  N   UNL d   1      29.706 -14.774   1.722  0.00  0.00    -0.299 NA
ATOM     40  H   UNL d   1      30.349 -14.713   2.522  0.00  0.00     0.124 HD
ATOM     41  H   UNL d   1      29.347 -15.727   1.692  0.00  0.00     0.124 HD
ENDBRANCH  33  39
ENDBRANCH   2  29
TORSDOF 10
ENDMDL
MODEL 5
REMARK VINA RESULT:    -8.348      3.369      6.119
REMARK INTER + INTRA:         -15.852
REMARK INTER:                 -11.331
REMARK INTRA:                  -4.520
REMARK CONF_INDEPENDENT:        2.983
REMARK UNBOUND:                -4.520
REMARK  10 active torsions:
REMARK  status: ('A' for Active; 'I' for Inactive)
REMARK    1  A    between atoms: C_6  and  N_7 
REMARK       I    between atoms: N_7  and  C_8 
REMARK    2  A    between atoms: C_19  and  N_7 
REMARK    3  A    between atoms: C_8  and  C_10 
REMARK    4  A    between atoms: C_13  and  C_14 
REMARK       I    between atoms: C_14  and  N_15 
REMARK    5  A    between atoms: C_17  and  N_18 
REMARK    6  A    between atoms: C_19  and  C_28 
REMARK    7  A    between atoms: C_19  and  C_20 
REMARK       I    between atoms: C_20  and  N_22 
REMARK    8  A    between atoms: N_22  and  C_23 
REMARK    9  A    between atoms: C_23  and  C_24 
REMARK   10  A    between atoms: C_24  and  C_25 
ROOT
ATOM      1  N   UNL d   1      27.976 -15.642  -1.287  0.00  0.00    -0.295 N 
ATOM      2  C   UNL d   1      29.338 -15.990  -1.973  0.00  0.00     0.269 C 
ATOM      3  O   UNL d   1      29.291 -16.614  -3.056  0.00  0.00    -0.266 OA
ENDROOT
BRANCH   1   4
ATOM      4  C   UNL d   1      27.745 -14.883   0.020  0.00  0.00     0.045 C 
ATOM      5  C   UNL d   1      27.781 -15.428   1.290  0.00  0.00     0.030 C 
ATOM      6  C   UNL d   1      27.939 -14.760   2.528  0.00  0.00     0.003 C 
ATOM      7  C   UNL d   1      27.778 -13.406   2.582  0.00  0.00     0.007 C 
ATOM      8  C   UNL d   1      27.394 -12.807   1.409  0.00  0.00    -0.054 C 
ATOM      9  C   UNL d   1      27.073 -11.339   1.361  0.00  0.00     0.049 C 
ATOM     10  C   UNL d   1      27.332 -13.573   0.194  0.00  0.00    -0.029 C 
ATOM     11  C   UNL d   1      26.655 -12.873  -0.883  0.00  0.00     0.051 C 
ENDBRANCH   1   4
BRANCH   1  12
ATOM     12  C   UNL d   1      26.758 -16.341  -2.009  0.00  0.00     0.218 C 
BRANCH  12  13
ATOM     13  C   UNL d   1      25.457 -16.729  -1.191  0.00  0.00    -0.026 C 
ATOM     14  C   UNL d   1      25.364 -18.000  -0.546  0.00  0.00     0.013 C 
ATOM     15  C   UNL d   1      24.163 -18.519  -0.066  0.00  0.00     0.043 C 
ATOM     16  C   UNL d   1      22.997 -17.826  -0.312  0.00  0.00     0.116 C 
ATOM     17  F   UNL d   1      21.820 -18.427  -0.087  0.00  0.00    -0.206 F 
ATOM     18  C   UNL d   1      23.038 -16.557  -0.892  0.00  0.00     0.043 C 
ATOM     19  C   UNL d   1      24.275 -15.955  -1.237  0.00  0.00     0.013 C 
ENDBRANCH  12  13
BRANCH  12  20
ATOM     20  C   UNL d   1      26.258 -15.469  -3.232  0.00  0.00     0.245 C 
ATOM     21  O   UNL d   1      25.155 -15.599  -3.765  0.00  0.00    -0.271 OA
ATOM     22  N   UNL d   1      27.247 -14.654  -3.804  0.00  0.00    -0.359 N 
ATOM     23  H   UNL d   1      28.209 -14.785  -3.508  0.00  0.00     0.162 HD
BRANCH  22  24
ATOM     24  C   UNL d   1      27.033 -14.189  -5.154  0.00  0.00     0.123 C 
BRANCH  24  25
ATOM     25  C   UNL d   1      27.994 -14.822  -6.154  0.00  0.00     0.023 C 
BRANCH  25  26
ATOM     26  C   UNL d   1      29.369 -15.095  -5.525  0.00  0.00    -0.021 C 
ATOM     27  C   UNL d   1      30.031 -16.319  -6.160  0.00  0.00     0.009 C 
ATOM     28  C   UNL d   1      30.278 -13.879  -5.693  0.00  0.00     0.009 C 
ENDBRANCH  25  26
ENDBRANCH  24  25
ENDBRANCH  22  24
ENDBRANCH  12  20
ENDBRANCH   1  12
BRANCH   2  29
ATOM     29  C   UNL d   1      30.714 -15.698  -1.425  0.00  0.00     0.115 C 
ATOM     30  S   UNL d   1      31.748 -14.452  -2.099  0.00  0.00     0.019 SA
ATOM     31  N   UNL d   1      32.685 -14.192  -0.705  0.00  0.00    -0.203 NA
ATOM     32  C   UNL d   1      32.400 -15.152   0.195  0.00  0.00     0.155 C 
ATOM     33  C   UNL d   1      31.323 -16.087  -0.242  0.00  0.00     0.065 C 
BRANCH  32  34
ATOM     34  C   UNL d   1      32.816 -15.047   1.642  0.00  0.00     0.270 C 
ATOM     35  N   UNL d   1      32.014 -15.528   2.647  0.00  0.00    -0.365 N 
ATOM     36  H   UNL d   1      31.111 -15.951   2.494  0.00  0.00     0.159 HD
ATOM     37  H   UNL d   1      32.349 -15.404   3.597  0.00  0.00     0.159 HD
ATOM     38  O   UNL d   1      33.931 -14.625   1.974  0.00  0.00    -0.266 OA
ENDBRANCH  32  34
BRANCH  33  39
ATOM     39  N   UNL d   1      30.690 -16.943   0.605  0.00  0.00    -0.299 NA
ATOM     40  H   UNL d   1      29.912 -16.518   1.127  0.00  0.00     0.124 HD
ATOM     41  H   UNL d   1      30.342 -17.808   0.193  0.00  0.00     0.124 HD
ENDBRANCH  33  39
ENDBRANCH   2  29
TORSDOF 10
ENDMDL
MODEL 6
REMARK VINA RESULT:    -8.281      4.187      8.251
REMARK INTER + INTRA:         -16.000
REMARK INTER:                 -11.264
REMARK INTRA:                  -4.736
REMARK CONF_INDEPENDENT:        2.983
REMARK UNBOUND:                -4.736
REMARK  10 active torsions:
REMARK  status: ('A' for Active; 'I' for Inactive)
REMARK    1  A    between atoms: C_6  and  N_7 
REMARK       I    between atoms: N_7  and  C_8 
REMARK    2  A    between atoms: C_19  and  N_7 
REMARK    3  A    between atoms: C_8  and  C_10 
REMARK    4  A    between atoms: C_13  and  C_14 
REMARK       I    between atoms: C_14  and  N_15 
REMARK    5  A    between atoms: C_17  and  N_18 
REMARK    6  A    between atoms: C_19  and  C_28 
REMARK    7  A    between atoms: C_19  and  C_20 
REMARK       I    between atoms: C_20  and  N_22 
REMARK    8  A    between atoms: N_22  and  C_23 
REMARK    9  A    between atoms: C_23  and  C_24 
REMARK   10  A    between atoms: C_24  and  C_25 
ROOT
ATOM      1  N   UNL d   1      27.330 -15.606  -3.201  0.00  0.00    -0.295 N 
ATOM      2  C   UNL d   1      27.921 -15.525  -4.647  0.00  0.00     0.269 C 
ATOM      3  O   UNL d   1      27.112 -15.375  -5.589  0.00  0.00    -0.266 OA
ENDROOT
BRANCH   1   4
ATOM      4  C   UNL d   1      28.085 -15.770  -1.882  0.00  0.00     0.045 C 
ATOM      5  C   UNL d   1      28.857 -16.859  -1.521  0.00  0.00     0.030 C 
ATOM      6  C   UNL d   1      29.852 -16.936  -0.516  0.00  0.00     0.003 C 
ATOM      7  C   UNL d   1      29.931 -15.948   0.422  0.00  0.00     0.007 C 
ATOM      8  C   UNL d   1      28.964 -14.978   0.346  0.00  0.00    -0.054 C 
ATOM      9  C   UNL d   1      28.871 -13.898   1.388  0.00  0.00     0.049 C 
ATOM     10  C   UNL d   1      28.045 -14.961  -0.759  0.00  0.00    -0.029 C 
ATOM     11  C   UNL d   1      26.929 -14.055  -0.553  0.00  0.00     0.051 C 
ENDBRANCH   1   4
BRANCH   1  12
ATOM     12  C   UNL d   1      25.753 -15.690  -3.214  0.00  0.00     0.218 C 
BRANCH  12  13
ATOM     13  C   UNL d   1      24.974 -16.302  -1.977  0.00  0.00    -0.026 C 
ATOM     14  C   UNL d   1      25.502 -17.433  -1.281  0.00  0.00     0.013 C 
ATOM     15  C   UNL d   1      24.748 -18.193  -0.390  0.00  0.00     0.043 C 
ATOM     16  C   UNL d   1      23.406 -17.908  -0.247  0.00  0.00     0.116 C 
ATOM     17  F   UNL d   1      22.620 -18.778   0.402  0.00  0.00    -0.206 F 
ATOM     18  C   UNL d   1      22.853 -16.785  -0.864  0.00  0.00     0.043 C 
ATOM     19  C   UNL d   1      23.656 -15.915  -1.645  0.00  0.00     0.013 C 
ENDBRANCH  12  13
BRANCH  12  20
ATOM     20  C   UNL d   1      25.119 -14.260  -3.461  0.00  0.00     0.245 C 
ATOM     21  O   UNL d   1      24.032 -14.075  -4.008  0.00  0.00    -0.271 OA
ATOM     22  N   UNL d   1      25.983 -13.189  -3.185  0.00  0.00    -0.359 N 
ATOM     23  H   UNL d   1      26.960 -13.394  -2.999  0.00  0.00     0.162 HD
BRANCH  22  24
ATOM     24  C   UNL d   1      25.683 -11.914  -3.790  0.00  0.00     0.123 C 
BRANCH  24  25
ATOM     25  C   UNL d   1      25.942 -11.900  -5.293  0.00  0.00     0.023 C 
BRANCH  25  26
ATOM     26  C   UNL d   1      27.372 -12.352  -5.626  0.00  0.00    -0.021 C 
ATOM     27  C   UNL d   1      27.781 -11.895  -7.027  0.00  0.00     0.009 C 
ATOM     28  C   UNL d   1      28.356 -11.793  -4.599  0.00  0.00     0.009 C 
ENDBRANCH  25  26
ENDBRANCH  24  25
ENDBRANCH  22  24
ENDBRANCH  12  20
ENDBRANCH   1  12
BRANCH   2  29
ATOM     29  C   UNL d   1      29.375 -15.668  -5.027  0.00  0.00     0.115 C 
ATOM     30  S   UNL d   1      30.454 -16.782  -4.208  0.00  0.00     0.019 SA
ATOM     31  N   UNL d   1      31.569 -16.953  -5.480  0.00  0.00    -0.203 NA
ATOM     32  C   UNL d   1      31.287 -16.043  -6.430  0.00  0.00     0.155 C 
ATOM     33  C   UNL d   1      30.071 -15.228  -6.142  0.00  0.00     0.065 C 
BRANCH  32  34
ATOM     34  C   UNL d   1      31.876 -16.120  -7.817  0.00  0.00     0.270 C 
ATOM     35  N   UNL d   1      32.297 -17.314  -8.345  0.00  0.00    -0.365 N 
ATOM     36  H   UNL d   1      32.263 -18.193  -7.849  0.00  0.00     0.159 HD
ATOM     37  H   UNL d   1      32.701 -17.286  -9.275  0.00  0.00     0.159 HD
ATOM     38  O   UNL d   1      31.905 -15.138  -8.571  0.00  0.00    -0.266 OA
ENDBRANCH  32  34
BRANCH  33  39
ATOM     39  N   UNL d   1      29.449 -14.460  -7.078  0.00  0.00    -0.299 NA
ATOM     40  H   UNL d   1      29.860 -14.528  -8.018  0.00  0.00     0.124 HD
ATOM     41  H   UNL d   1      28.444 -14.597  -7.175  0.00  0.00     0.124 HD
ENDBRANCH  33  39
ENDBRANCH   2  29
TORSDOF 10
ENDMDL
MODEL 7
REMARK VINA RESULT:    -8.100      3.653      7.155
REMARK INTER + INTRA:         -16.280
REMARK INTER:                 -11.083
REMARK INTRA:                  -5.198
REMARK CONF_INDEPENDENT:        2.983
REMARK UNBOUND:                -5.198
REMARK  10 active torsions:
REMARK  status: ('A' for Active; 'I' for Inactive)
REMARK    1  A    between atoms: C_6  and  N_7 
REMARK       I    between atoms: N_7  and  C_8 
REMARK    2  A    between atoms: C_19  and  N_7 
REMARK    3  A    between atoms: C_8  and  C_10 
REMARK    4  A    between atoms: C_13  and  C_14 
REMARK       I    between atoms: C_14  and  N_15 
REMARK    5  A    between atoms: C_17  and  N_18 
REMARK    6  A    between atoms: C_19  and  C_28 
REMARK    7  A    between atoms: C_19  and  C_20 
REMARK       I    between atoms: C_20  and  N_22 
REMARK    8  A    between atoms: N_22  and  C_23 
REMARK    9  A    between atoms: C_23  and  C_24 
REMARK   10  A    between atoms: C_24  and  C_25 
ROOT
ATOM      1  N   UNL d   1      26.125 -14.859  -0.380  0.00  0.00    -0.295 N 
ATOM      2  C   UNL d   1      25.726 -14.524  -1.855  0.00  0.00     0.269 C 
ATOM      3  O   UNL d   1      25.199 -15.438  -2.527  0.00  0.00    -0.266 OA
ENDROOT
BRANCH   1   4
ATOM      4  C   UNL d   1      26.765 -13.935   0.657  0.00  0.00     0.045 C 
ATOM      5  C   UNL d   1      26.353 -12.650   0.960  0.00  0.00     0.030 C 
ATOM      6  C   UNL d   1      26.639 -11.887   2.118  0.00  0.00     0.003 C 
ATOM      7  C   UNL d   1      27.643 -12.288   2.950  0.00  0.00     0.007 C 
ATOM      8  C   UNL d   1      28.352 -13.388   2.539  0.00  0.00    -0.054 C 
ATOM      9  C   UNL d   1      29.554 -13.863   3.308  0.00  0.00     0.049 C 
ATOM     10  C   UNL d   1      27.929 -14.128   1.383  0.00  0.00    -0.029 C 
ATOM     11  C   UNL d   1      28.923 -15.081   0.925  0.00  0.00     0.051 C 
ENDBRANCH   1   4
BRANCH   1  12
ATOM     12  C   UNL d   1      25.969 -16.398  -0.063  0.00  0.00     0.218 C 
BRANCH  12  13
ATOM     13  C   UNL d   1      24.638 -17.165  -0.453  0.00  0.00    -0.026 C 
ATOM     14  C   UNL d   1      23.396 -16.462  -0.521  0.00  0.00     0.013 C 
ATOM     15  C   UNL d   1      22.162 -17.109  -0.568  0.00  0.00     0.043 C 
ATOM     16  C   UNL d   1      22.129 -18.482  -0.441  0.00  0.00     0.116 C 
ATOM     17  F   UNL d   1      20.953 -19.089  -0.228  0.00  0.00    -0.206 F 
ATOM     18  C   UNL d   1      23.314 -19.218  -0.422  0.00  0.00     0.043 C 
ATOM     19  C   UNL d   1      24.573 -18.574  -0.536  0.00  0.00     0.013 C 
ENDBRANCH  12  13
BRANCH  12  20
ATOM     20  C   UNL d   1      27.153 -17.226  -0.712  0.00  0.00     0.245 C 
ATOM     21  O   UNL d   1      27.718 -18.169  -0.158  0.00  0.00    -0.271 OA
ATOM     22  N   UNL d   1      27.655 -16.679  -1.903  0.00  0.00    -0.359 N 
ATOM     23  H   UNL d   1      27.344 -15.752  -2.177  0.00  0.00     0.162 HD
BRANCH  22  24
ATOM     24  C   UNL d   1      28.981 -17.075  -2.314  0.00  0.00     0.123 C 
BRANCH  24  25
ATOM     25  C   UNL d   1      29.401 -16.443  -3.636  0.00  0.00     0.023 C 
BRANCH  25  26
ATOM     26  C   UNL d   1      28.718 -15.083  -3.858  0.00  0.00    -0.021 C 
ATOM     27  C   UNL d   1      29.736 -14.017  -4.265  0.00  0.00     0.009 C 
ATOM     28  C   UNL d   1      27.643 -15.202  -4.936  0.00  0.00     0.009 C 
ENDBRANCH  25  26
ENDBRANCH  24  25
ENDBRANCH  22  24
ENDBRANCH  12  20
ENDBRANCH   1  12
BRANCH   2  29
ATOM     29  C   UNL d   1      25.968 -13.218  -2.571  0.00  0.00     0.115 C 
ATOM     30  S   UNL d   1      27.317 -12.167  -2.178  0.00  0.00     0.019 SA
ATOM     31  N   UNL d   1      27.401 -11.377  -3.681  0.00  0.00    -0.203 NA
ATOM     32  C   UNL d   1      26.321 -11.714  -4.410  0.00  0.00     0.155 C 
ATOM     33  C   UNL d   1      25.433 -12.712  -3.745  0.00  0.00     0.065 C 
BRANCH  32  34
ATOM     34  C   UNL d   1      26.235 -11.443  -5.892  0.00  0.00     0.270 C 
ATOM     35  N   UNL d   1      27.366 -11.295  -6.654  0.00  0.00    -0.365 N 
ATOM     36  H   UNL d   1      28.305 -11.335  -6.284  0.00  0.00     0.159 HD
ATOM     37  H   UNL d   1      27.231 -11.095  -7.639  0.00  0.00     0.159 HD
ATOM     38  O   UNL d   1      25.155 -11.449  -6.496  0.00  0.00    -0.266 OA
ENDBRANCH  32  34
BRANCH  33  39
ATOM     39  N   UNL d   1      24.456 -13.395  -4.402  0.00  0.00    -0.299 NA
ATOM     40  H   UNL d   1      24.351 -13.131  -5.391  0.00  0.00     0.124 HD
ATOM     41  H   UNL d   1      24.516 -14.412  -4.363  0.00  0.00     0.124 HD
ENDBRANCH  33  39
ENDBRANCH   2  29
TORSDOF 10
ENDMDL
MODEL 8
REMARK VINA RESULT:    -7.707      3.743      7.324
REMARK INTER + INTRA:         -15.636
REMARK INTER:                 -10.690
REMARK INTRA:                  -4.947
REMARK CONF_INDEPENDENT:        2.983
REMARK UNBOUND:                -4.947
REMARK  10 active torsions:
REMARK  status: ('A' for Active; 'I' for Inactive)
REMARK    1  A    between atoms: C_6  and  N_7 
REMARK       I    between atoms: N_7  and  C_8 
REMARK    2  A    between atoms: C_19  and  N_7 
REMARK    3  A    between atoms: C_8  and  C_10 
REMARK    4  A    between atoms: C_13  and  C_14 
REMARK       I    between atoms: C_14  and  N_15 
REMARK    5  A    between atoms: C_17  and  N_18 
REMARK    6  A    between atoms: C_19  and  C_28 
REMARK    7  A    between atoms: C_19  and  C_20 
REMARK       I    between atoms: C_20  and  N_22 
REMARK    8  A    between atoms: N_22  and  C_23 
REMARK    9  A    between atoms: C_23  and  C_24 
REMARK   10  A    between atoms: C_24  and  C_25 
ROOT
ATOM      1  N   UNL d   1      26.327 -14.491  -1.501  0.00  0.00    -0.295 N 
ATOM      2  C   UNL d   1      25.913 -14.763  -2.984  0.00  0.00     0.269 C 
ATOM      3  O   UNL d   1      25.451 -15.895  -3.252  0.00  0.00    -0.266 OA
ENDROOT
BRANCH   1   4
ATOM      4  C   UNL d   1      26.899 -13.206  -0.902  0.00  0.00     0.045 C 
ATOM      5  C   UNL d   1      27.677 -12.278  -1.570  0.00  0.00     0.030 C 
ATOM      6  C   UNL d   1      27.932 -10.930  -1.218  0.00  0.00     0.003 C 
ATOM      7  C   UNL d   1      27.633 -10.501   0.042  0.00  0.00     0.007 C 
ATOM      8  C   UNL d   1      27.163 -11.462   0.901  0.00  0.00    -0.054 C 
ATOM      9  C   UNL d   1      26.904 -11.144   2.348  0.00  0.00     0.049 C 
ATOM     10  C   UNL d   1      26.875 -12.784   0.417  0.00  0.00    -0.029 C 
ATOM     11  C   UNL d   1      26.655 -13.743   1.484  0.00  0.00     0.051 C 
ENDBRANCH   1   4
BRANCH   1  12
ATOM     12  C   UNL d   1      26.274 -15.804  -0.624  0.00  0.00     0.218 C 
BRANCH  12  13
ATOM     13  C   UNL d   1      25.038 -16.791  -0.735  0.00  0.00    -0.026 C 
ATOM     14  C   UNL d   1      23.713 -16.273  -0.858  0.00  0.00     0.013 C 
ATOM     15  C   UNL d   1      22.574 -17.055  -0.668  0.00  0.00     0.043 C 
ATOM     16  C   UNL d   1      22.729 -18.358  -0.243  0.00  0.00     0.116 C 
ATOM     17  F   UNL d   1      21.656 -19.037   0.186  0.00  0.00    -0.206 F 
ATOM     18  C   UNL d   1      24.001 -18.926  -0.157  0.00  0.00     0.043 C 
ATOM     19  C   UNL d   1      25.157 -18.180  -0.505  0.00  0.00     0.013 C 
ENDBRANCH  12  13
BRANCH  12  20
ATOM     20  C   UNL d   1      27.562 -16.692  -0.869  0.00  0.00     0.245 C 
ATOM     21  O   UNL d   1      28.224 -17.206   0.033  0.00  0.00    -0.271 OA
ATOM     22  N   UNL d   1      28.020 -16.693  -2.195  0.00  0.00    -0.359 N 
ATOM     23  H   UNL d   1      27.605 -16.036  -2.849  0.00  0.00     0.162 HD
BRANCH  22  24
ATOM     24  C   UNL d   1      29.392 -17.075  -2.429  0.00  0.00     0.123 C 
BRANCH  24  25
ATOM     25  C   UNL d   1      30.261 -15.905  -2.875  0.00  0.00     0.023 C 
BRANCH  25  26
ATOM     26  C   UNL d   1      29.636 -15.154  -4.063  0.00  0.00    -0.021 C 
ATOM     27  C   UNL d   1      29.909 -13.652  -3.969  0.00  0.00     0.009 C 
ATOM     28  C   UNL d   1      30.192 -15.694  -5.380  0.00  0.00     0.009 C 
ENDBRANCH  25  26
ENDBRANCH  24  25
ENDBRANCH  22  24
ENDBRANCH  12  20
ENDBRANCH   1  12
BRANCH   2  29
ATOM     29  C   UNL d   1      26.069 -13.811  -4.144  0.00  0.00     0.115 C 
ATOM     30  S   UNL d   1      25.796 -12.085  -3.986  0.00  0.00     0.019 SA
ATOM     31  N   UNL d   1      26.766 -11.606  -5.297  0.00  0.00    -0.203 NA
ATOM     32  C   UNL d   1      27.127 -12.701  -5.992  0.00  0.00     0.155 C 
ATOM     33  C   UNL d   1      26.656 -13.981  -5.388  0.00  0.00     0.065 C 
BRANCH  32  34
ATOM     34  C   UNL d   1      28.229 -12.673  -7.022  0.00  0.00     0.270 C 
ATOM     35  N   UNL d   1      28.565 -13.797  -7.734  0.00  0.00    -0.365 N 
ATOM     36  H   UNL d   1      28.126 -14.697  -7.606  0.00  0.00     0.159 HD
ATOM     37  H   UNL d   1      29.330 -13.708  -8.395  0.00  0.00     0.159 HD
ATOM     38  O   UNL d   1      28.799 -11.622  -7.342  0.00  0.00    -0.266 OA
ENDBRANCH  32  34
BRANCH  33  39
ATOM     39  N   UNL d   1      27.134 -15.201  -5.758  0.00  0.00    -0.299 NA
ATOM     40  H   UNL d   1      26.794 -15.979  -5.179  0.00  0.00     0.124 HD
ATOM     41  H   UNL d   1      26.991 -15.462  -6.733  0.00  0.00     0.124 HD
ENDBRANCH  33  39
ENDBRANCH   2  29
TORSDOF 10
ENDMDL
MODEL 9
REMARK VINA RESULT:    -6.883      2.678      3.577
REMARK INTER + INTRA:         -15.424
REMARK INTER:                  -9.866
REMARK INTRA:                  -5.558
REMARK CONF_INDEPENDENT:        2.983
REMARK UNBOUND:                -5.558
REMARK  10 active torsions:
REMARK  status: ('A' for Active; 'I' for Inactive)
REMARK    1  A    between atoms: C_6  and  N_7 
REMARK       I    between atoms: N_7  and  C_8 
REMARK    2  A    between atoms: C_19  and  N_7 
REMARK    3  A    between atoms: C_8  and  C_10 
REMARK    4  A    between atoms: C_13  and  C_14 
REMARK       I    between atoms: C_14  and  N_15 
REMARK    5  A    between atoms: C_17  and  N_18 
REMARK    6  A    between atoms: C_19  and  C_28 
REMARK    7  A    between atoms: C_19  and  C_20 
REMARK       I    between atoms: C_20  and  N_22 
REMARK    8  A    between atoms: N_22  and  C_23 
REMARK    9  A    between atoms: C_23  and  C_24 
REMARK   10  A    between atoms: C_24  and  C_25 
ROOT
ATOM      1  N   UNL d   1      26.665 -14.853  -2.032  0.00  0.00    -0.295 N 
ATOM      2  C   UNL d   1      27.529 -13.747  -1.343  0.00  0.00     0.269 C 
ATOM      3  O   UNL d   1      27.984 -12.838  -2.073  0.00  0.00    -0.266 OA
ENDROOT
BRANCH   1   4
ATOM      4  C   UNL d   1      25.982 -16.057  -1.382  0.00  0.00     0.045 C 
ATOM      5  C   UNL d   1      26.609 -17.217  -0.966  0.00  0.00     0.030 C 
ATOM      6  C   UNL d   1      26.137 -18.193  -0.055  0.00  0.00     0.003 C 
ATOM      7  C   UNL d   1      24.817 -18.200   0.290  0.00  0.00     0.007 C 
ATOM      8  C   UNL d   1      24.030 -17.278  -0.351  0.00  0.00    -0.054 C 
ATOM      9  C   UNL d   1      22.541 -17.258  -0.145  0.00  0.00     0.049 C 
ATOM     10  C   UNL d   1      24.628 -16.288  -1.205  0.00  0.00    -0.029 C 
ATOM     11  C   UNL d   1      23.655 -15.575  -2.013  0.00  0.00     0.051 C 
ENDBRANCH   1   4
BRANCH   1  12
ATOM     12  C   UNL d   1      26.694 -14.729  -3.606  0.00  0.00     0.218 C 
BRANCH  12  13
ATOM     13  C   UNL d   1      26.406 -13.335  -4.304  0.00  0.00    -0.026 C 
ATOM     14  C   UNL d   1      27.188 -12.916  -5.424  0.00  0.00     0.013 C 
ATOM     15  C   UNL d   1      27.191 -11.605  -5.897  0.00  0.00     0.043 C 
ATOM     16  C   UNL d   1      26.491 -10.646  -5.196  0.00  0.00     0.116 C 
ATOM     17  F   UNL d   1      26.688  -9.353  -5.484  0.00  0.00    -0.206 F 
ATOM     18  C   UNL d   1      25.672 -11.012  -4.127  0.00  0.00     0.043 C 
ATOM     19  C   UNL d   1      25.540 -12.370  -3.742  0.00  0.00     0.013 C 
ENDBRANCH  12  13
BRANCH  12  20
ATOM     20  C   UNL d   1      28.083 -15.224  -4.181  0.00  0.00     0.245 C 
ATOM     21  O   UNL d   1      28.207 -15.860  -5.228  0.00  0.00    -0.271 OA
ATOM     22  N   UNL d   1      29.165 -15.055  -3.303  0.00  0.00    -0.359 N 
ATOM     23  H   UNL d   1      28.970 -14.780  -2.345  0.00  0.00     0.162 HD
BRANCH  22  24
ATOM     24  C   UNL d   1      30.342 -15.860  -3.529  0.00  0.00     0.123 C 
BRANCH  24  25
ATOM     25  C   UNL d   1      30.406 -17.078  -2.613  0.00  0.00     0.023 C 
BRANCH  25  26
ATOM     26  C   UNL d   1      30.853 -16.696  -1.193  0.00  0.00    -0.021 C 
ATOM     27  C   UNL d   1      31.528 -15.324  -1.179  0.00  0.00     0.009 C 
ATOM     28  C   UNL d   1      29.653 -16.685  -0.247  0.00  0.00     0.009 C 
ENDBRANCH  25  26
ENDBRANCH  24  25
ENDBRANCH  22  24
ENDBRANCH  12  20
ENDBRANCH   1  12
BRANCH   2  29
ATOM     29  C   UNL d   1      27.920 -13.696   0.113  0.00  0.00     0.115 C 
ATOM     30  S   UNL d   1      27.030 -14.558   1.355  0.00  0.00     0.019 SA
ATOM     31  N   UNL d   1      28.302 -14.663   2.479  0.00  0.00    -0.203 NA
ATOM     32  C   UNL d   1      29.320 -13.891   2.055  0.00  0.00     0.155 C 
ATOM     33  C   UNL d   1      29.080 -13.251   0.729  0.00  0.00     0.065 C 
BRANCH  32  34
ATOM     34  C   UNL d   1      30.705 -13.993   2.644  0.00  0.00     0.270 C 
ATOM     35  N   UNL d   1      31.001 -14.927   3.605  0.00  0.00    -0.365 N 
ATOM     36  H   UNL d   1      30.329 -15.574   3.988  0.00  0.00     0.159 HD
ATOM     37  H   UNL d   1      31.949 -14.923   3.969  0.00  0.00     0.159 HD
ATOM     38  O   UNL d   1      31.650 -13.320   2.213  0.00  0.00    -0.266 OA
ENDBRANCH  32  34
BRANCH  33  39
ATOM     39  N   UNL d   1      30.066 -12.670  -0.008  0.00  0.00    -0.299 NA
ATOM     40  H   UNL d   1      31.002 -13.061   0.160  0.00  0.00     0.124 HD
ATOM     41  H   UNL d   1      29.921 -12.651  -1.017  0.00  0.00     0.124 HD
ENDBRANCH  33  39
ENDBRANCH   2  29
TORSDOF 10
ENDMDL
