MODEL 1
REMARK VINA RESULT:    -9.711      0.000      0.000
REMARK INTER + INTRA:         -15.126
REMARK INTER:                 -12.396
REMARK INTRA:                  -2.731
REMARK CONF_INDEPENDENT:        2.685
REMARK UNBOUND:                -2.731
REMARK  9 active torsions:
REMARK  status: ('A' for Active; 'I' for Inactive)
REMARK    1  A    between atoms: C_2  and  C_3 
REMARK       I    between atoms: C_2  and  N_30 
REMARK    2  A    between atoms: C_3  and  S_4 
REMARK    3  A    between atoms: C_5  and  S_4 
REMARK    4  A    between atoms: N_15  and  N_16 
REMARK       I    between atoms: N_16  and  C_17 
REMARK    5  A    between atoms: C_17  and  C_19 
REMARK    6  A    between atoms: C_19  and  C_20 
REMARK    7  A    between atoms: C_20  and  C_21 
REMARK    8  A    between atoms: N_30  and  C_31 
REMARK    9  A    between atoms: C_31  and  C_32 
ROOT
ATOM      1  C   UNL d   1      27.060 -15.179  -1.200  0.00  0.00     0.274 C 
ATOM      2  N   UNL d   1      28.154 -15.726  -1.997  0.00  0.00    -0.358 N 
ATOM      3  C   UNL d   1      28.187 -15.438  -3.362  0.00  0.00     0.046 A 
ATOM      4  C   UNL d   1      29.359 -15.499  -4.123  0.00  0.00     0.030 A 
ATOM      5  C   UNL d   1      29.329 -15.302  -5.518  0.00  0.00     0.002 A 
ATOM      6  C   UNL d   1      28.125 -15.076  -6.180  0.00  0.00     0.001 A 
ATOM      7  C   UNL d   1      26.961 -14.989  -5.440  0.00  0.00     0.019 A 
ATOM      8  C   UNL d   1      27.010 -15.138  -4.046  0.00  0.00     0.060 A 
ATOM      9  C   UNL d   1      25.767 -15.001  -3.286  0.00  0.00     0.277 C 
ATOM     10  O   UNL d   1      24.791 -14.566  -3.898  0.00  0.00    -0.266 OA
ATOM     11  N   UNL d   1      25.815 -15.371  -1.943  0.00  0.00    -0.221 N 
ATOM     12  H   UNL d   1      29.035 -15.901  -1.531  0.00  0.00     0.162 HD
ENDROOT
BRANCH  11  13
ATOM     13  N   UNL d   1      24.599 -15.575  -1.181  0.00  0.00    -0.262 N 
ATOM     14  C   UNL d   1      24.029 -16.846  -1.125  0.00  0.00     0.236 C 
ATOM     15  O   UNL d   1      24.405 -17.859  -1.702  0.00  0.00    -0.272 OA
ATOM     16  H   UNL d   1      24.478 -14.964  -0.381  0.00  0.00     0.190 HD
BRANCH  14  17
ATOM     17  C   UNL d   1      22.851 -16.984  -0.201  0.00  0.00     0.109 C 
BRANCH  17  18
ATOM     18  C   UNL d   1      22.676 -18.491   0.063  0.00  0.00     0.046 C 
BRANCH  18  19
ATOM     19  C   UNL d   1      21.312 -18.999  -0.207  0.00  0.00    -0.050 A 
ATOM     20  C   UNL d   1      20.489 -19.518   0.704  0.00  0.00    -0.006 A 
ATOM     21  C   UNL d   1      20.567 -19.706   2.113  0.00  0.00     0.014 A 
ATOM     22  C   UNL d   1      19.323 -19.969  -0.073  0.00  0.00     0.038 A 
ATOM     23  C   UNL d   1      19.550 -20.331   2.726  0.00  0.00     0.001 A 
ATOM     24  C   UNL d   1      18.396 -20.815   1.981  0.00  0.00     0.002 A 
ATOM     25  C   UNL d   1      18.247 -20.665   0.650  0.00  0.00     0.030 A 
ATOM     26  N   UNL d   1      19.438 -19.700  -1.318  0.00  0.00    -0.385 N 
ATOM     27  C   UNL d   1      20.713 -19.014  -1.574  0.00  0.00     0.155 A 
ATOM     28  H   UNL d   1      18.747 -19.958  -2.018  0.00  0.00     0.160 HD
ENDBRANCH  18  19
ENDBRANCH  17  18
ENDBRANCH  14  17
ENDBRANCH  11  13
BRANCH   1  29
ATOM     29  S   UNL d   1      27.429 -13.434  -0.788  0.00  0.00    -0.112 SA
BRANCH  29  30
ATOM     30  C   UNL d   1      29.218 -13.426  -0.361  0.00  0.00     0.180 C 
BRANCH  30  31
ATOM     31  C   UNL d   1      29.572 -14.622   0.552  0.00  0.00     0.227 C 
ATOM     32  O   UNL d   1      30.258 -15.582   0.201  0.00  0.00    -0.273 OA
ATOM     33  N   UNL d   1      29.104 -14.630   1.839  0.00  0.00    -0.354 N 
ATOM     34  H   UNL d   1      29.376 -15.459   2.362  0.00  0.00     0.162 HD
BRANCH  33  35
ATOM     35  C   UNL d   1      28.269 -13.649   2.493  0.00  0.00     0.187 C 
BRANCH  35  36
ATOM     36  C   UNL d   1      28.321 -13.846   3.963  0.00  0.00     0.070 A 
ATOM     37  C   UNL d   1      27.778 -13.126   5.006  0.00  0.00     0.036 A 
ATOM     38  C   UNL d   1      28.187 -13.764   6.198  0.00  0.00     0.027 A 
ATOM     39  C   UNL d   1      28.934 -14.853   5.811  0.00  0.00     0.142 A 
ATOM     40  O   UNL d   1      29.014 -14.918   4.452  0.00  0.00    -0.325 OA
ENDBRANCH  35  36
ENDBRANCH  33  35
ENDBRANCH  30  31
ENDBRANCH  29  30
ENDBRANCH   1  29
TORSDOF 9
ENDMDL
MODEL 2
REMARK VINA RESULT:    -9.561      2.026      8.927
REMARK INTER + INTRA:         -14.810
REMARK INTER:                 -12.246
REMARK INTRA:                  -2.564
REMARK CONF_INDEPENDENT:        2.685
REMARK UNBOUND:                -2.564
REMARK  9 active torsions:
REMARK  status: ('A' for Active; 'I' for Inactive)
REMARK    1  A    between atoms: C_2  and  C_3 
REMARK       I    between atoms: C_2  and  N_30 
REMARK    2  A    between atoms: C_3  and  S_4 
REMARK    3  A    between atoms: C_5  and  S_4 
REMARK    4  A    between atoms: N_15  and  N_16 
REMARK       I    between atoms: N_16  and  C_17 
REMARK    5  A    between atoms: C_17  and  C_19 
REMARK    6  A    between atoms: C_19  and  C_20 
REMARK    7  A    between atoms: C_20  and  C_21 
REMARK    8  A    between atoms: N_30  and  C_31 
REMARK    9  A    between atoms: C_31  and  C_32 
ROOT
ATOM      1  C   UNL d   1      26.903 -15.995  -0.213  0.00  0.00     0.274 C 
ATOM      2  N   UNL d   1      26.016 -15.365  -1.186  0.00  0.00    -0.358 N 
ATOM      3  C   UNL d   1      26.473 -15.210  -2.495  0.00  0.00     0.046 A 
ATOM      4  C   UNL d   1      25.612 -15.058  -3.587  0.00  0.00     0.030 A 
ATOM      5  C   UNL d   1      26.116 -14.801  -4.878  0.00  0.00     0.002 A 
ATOM      6  C   UNL d   1      27.484 -14.656  -5.093  0.00  0.00     0.001 A 
ATOM      7  C   UNL d   1      28.350 -14.826  -4.028  0.00  0.00     0.019 A 
ATOM      8  C   UNL d   1      27.840 -15.131  -2.757  0.00  0.00     0.060 A 
ATOM      9  C   UNL d   1      28.783 -15.346  -1.660  0.00  0.00     0.277 C 
ATOM     10  O   UNL d   1      29.973 -15.441  -1.965  0.00  0.00    -0.266 OA
ATOM     11  N   UNL d   1      28.239 -15.427  -0.379  0.00  0.00    -0.221 N 
ATOM     12  H   UNL d   1      25.018 -15.457  -1.043  0.00  0.00     0.162 HD
ENDROOT
BRANCH  11  13
ATOM     13  N   UNL d   1      29.081 -15.323   0.796  0.00  0.00    -0.262 N 
ATOM     14  C   UNL d   1      29.610 -14.085   1.155  0.00  0.00     0.236 C 
ATOM     15  O   UNL d   1      29.500 -13.023   0.555  0.00  0.00    -0.272 OA
ATOM     16  H   UNL d   1      28.878 -15.986   1.537  0.00  0.00     0.190 HD
BRANCH  14  17
ATOM     17  C   UNL d   1      30.354 -14.056   2.462  0.00  0.00     0.109 C 
BRANCH  17  18
ATOM     18  C   UNL d   1      29.690 -12.963   3.320  0.00  0.00     0.046 C 
BRANCH  18  19
ATOM     19  C   UNL d   1      29.263 -13.422   4.660  0.00  0.00    -0.050 A 
ATOM     20  C   UNL d   1      29.037 -12.631   5.710  0.00  0.00    -0.006 A 
ATOM     21  C   UNL d   1      29.058 -11.222   5.907  0.00  0.00     0.014 A 
ATOM     22  C   UNL d   1      28.750 -13.562   6.812  0.00  0.00     0.038 A 
ATOM     23  C   UNL d   1      28.830 -10.752   7.142  0.00  0.00     0.001 A 
ATOM     24  C   UNL d   1      28.573 -11.648   8.261  0.00  0.00     0.002 A 
ATOM     25  C   UNL d   1      28.526 -12.991   8.149  0.00  0.00     0.030 A 
ATOM     26  N   UNL d   1      28.767 -14.783   6.432  0.00  0.00    -0.385 N 
ATOM     27  C   UNL d   1      29.067 -14.864   4.995  0.00  0.00     0.155 A 
ATOM     28  H   UNL d   1      28.619 -15.572   7.057  0.00  0.00     0.160 HD
ENDBRANCH  18  19
ENDBRANCH  17  18
ENDBRANCH  14  17
ENDBRANCH  11  13
BRANCH   1  29
ATOM     29  S   UNL d   1      26.828 -17.813  -0.417  0.00  0.00    -0.112 SA
BRANCH  29  30
ATOM     30  C   UNL d   1      25.135 -18.273   0.140  0.00  0.00     0.180 C 
BRANCH  30  31
ATOM     31  C   UNL d   1      24.076 -17.827  -0.893  0.00  0.00     0.227 C 
ATOM     32  O   UNL d   1      24.340 -17.310  -1.977  0.00  0.00    -0.273 OA
ATOM     33  N   UNL d   1      22.751 -18.015  -0.600  0.00  0.00    -0.354 N 
ATOM     34  H   UNL d   1      22.126 -17.683  -1.330  0.00  0.00     0.162 HD
BRANCH  33  35
ATOM     35  C   UNL d   1      22.170 -18.576   0.598  0.00  0.00     0.187 C 
BRANCH  35  36
ATOM     36  C   UNL d   1      20.875 -19.222   0.272  0.00  0.00     0.070 A 
ATOM     37  C   UNL d   1      20.075 -20.088   0.989  0.00  0.00     0.036 A 
ATOM     38  C   UNL d   1      18.975 -20.405   0.161  0.00  0.00     0.027 A 
ATOM     39  C   UNL d   1      19.154 -19.693  -1.002  0.00  0.00     0.142 A 
ATOM     40  O   UNL d   1      20.303 -18.962  -0.942  0.00  0.00    -0.325 OA
ENDBRANCH  35  36
ENDBRANCH  33  35
ENDBRANCH  30  31
ENDBRANCH  29  30
ENDBRANCH   1  29
TORSDOF 9
ENDMDL
MODEL 3
REMARK VINA RESULT:    -8.855      2.926      5.198
REMARK INTER + INTRA:         -14.737
REMARK INTER:                 -11.540
REMARK INTRA:                  -3.198
REMARK CONF_INDEPENDENT:        2.685
REMARK UNBOUND:                -3.198
REMARK  9 active torsions:
REMARK  status: ('A' for Active; 'I' for Inactive)
REMARK    1  A    between atoms: C_2  and  C_3 
REMARK       I    between atoms: C_2  and  N_30 
REMARK    2  A    between atoms: C_3  and  S_4 
REMARK    3  A    between atoms: C_5  and  S_4 
REMARK    4  A    between atoms: N_15  and  N_16 
REMARK       I    between atoms: N_16  and  C_17 
REMARK    5  A    between atoms: C_17  and  C_19 
REMARK    6  A    between atoms: C_19  and  C_20 
REMARK    7  A    between atoms: C_20  and  C_21 
REMARK    8  A    between atoms: N_30  and  C_31 
REMARK    9  A    between atoms: C_31  and  C_32 
ROOT
ATOM      1  C   UNL d   1      25.278 -14.876  -2.345  0.00  0.00     0.274 C 
ATOM      2  N   UNL d   1      25.921 -13.743  -1.688  0.00  0.00    -0.358 N 
ATOM      3  C   UNL d   1      27.285 -13.830  -1.403  0.00  0.00     0.046 A 
ATOM      4  C   UNL d   1      28.094 -12.705  -1.211  0.00  0.00     0.030 A 
ATOM      5  C   UNL d   1      29.442 -12.839  -0.824  0.00  0.00     0.002 A 
ATOM      6  C   UNL d   1      29.995 -14.095  -0.588  0.00  0.00     0.001 A 
ATOM      7  C   UNL d   1      29.215 -15.217  -0.797  0.00  0.00     0.019 A 
ATOM      8  C   UNL d   1      27.889 -15.074  -1.230  0.00  0.00     0.060 A 
ATOM      9  C   UNL d   1      27.102 -16.281  -1.480  0.00  0.00     0.277 C 
ATOM     10  O   UNL d   1      27.717 -17.349  -1.486  0.00  0.00    -0.266 OA
ATOM     11  N   UNL d   1      25.737 -16.101  -1.693  0.00  0.00    -0.221 N 
ATOM     12  H   UNL d   1      25.531 -12.823  -1.845  0.00  0.00     0.162 HD
ENDROOT
BRANCH  11  13
ATOM     13  N   UNL d   1      24.819 -17.223  -1.640  0.00  0.00    -0.262 N 
ATOM     14  C   UNL d   1      24.735 -17.986  -0.477  0.00  0.00     0.236 C 
ATOM     15  O   UNL d   1      25.402 -17.867   0.545  0.00  0.00    -0.272 OA
ATOM     16  H   UNL d   1      23.985 -17.130  -2.209  0.00  0.00     0.190 HD
BRANCH  14  17
ATOM     17  C   UNL d   1      23.660 -19.037  -0.471  0.00  0.00     0.109 C 
BRANCH  17  18
ATOM     18  C   UNL d   1      22.480 -18.453   0.328  0.00  0.00     0.046 C 
BRANCH  18  19
ATOM     19  C   UNL d   1      21.157 -18.987  -0.067  0.00  0.00    -0.050 A 
ATOM     20  C   UNL d   1      20.277 -19.553   0.759  0.00  0.00    -0.006 A 
ATOM     21  C   UNL d   1      20.246 -19.782   2.163  0.00  0.00     0.014 A 
ATOM     22  C   UNL d   1      19.191 -20.009  -0.123  0.00  0.00     0.038 A 
ATOM     23  C   UNL d   1      19.200 -20.450   2.673  0.00  0.00     0.001 A 
ATOM     24  C   UNL d   1      18.124 -20.940   1.823  0.00  0.00     0.002 A 
ATOM     25  C   UNL d   1      18.080 -20.753   0.489  0.00  0.00     0.030 A 
ATOM     26  N   UNL d   1      19.399 -19.700  -1.347  0.00  0.00    -0.385 N 
ATOM     27  C   UNL d   1      20.672 -18.975  -1.478  0.00  0.00     0.155 A 
ATOM     28  H   UNL d   1      18.774 -19.954  -2.108  0.00  0.00     0.160 HD
ENDBRANCH  18  19
ENDBRANCH  17  18
ENDBRANCH  14  17
ENDBRANCH  11  13
BRANCH   1  29
ATOM     29  S   UNL d   1      25.621 -14.805  -4.142  0.00  0.00    -0.112 SA
BRANCH  29  30
ATOM     30  C   UNL d   1      25.122 -13.107  -4.644  0.00  0.00     0.180 C 
BRANCH  30  31
ATOM     31  C   UNL d   1      26.140 -12.061  -4.134  0.00  0.00     0.227 C 
ATOM     32  O   UNL d   1      25.924 -11.277  -3.211  0.00  0.00    -0.273 OA
ATOM     33  N   UNL d   1      27.369 -11.992  -4.735  0.00  0.00    -0.354 N 
ATOM     34  H   UNL d   1      27.969 -11.270  -4.343  0.00  0.00     0.162 HD
BRANCH  33  35
ATOM     35  C   UNL d   1      27.870 -12.774  -5.842  0.00  0.00     0.187 C 
BRANCH  35  36
ATOM     36  C   UNL d   1      28.604 -13.956  -5.329  0.00  0.00     0.070 A 
ATOM     37  C   UNL d   1      29.722 -14.066  -4.528  0.00  0.00     0.036 A 
ATOM     38  C   UNL d   1      29.993 -15.446  -4.395  0.00  0.00     0.027 A 
ATOM     39  C   UNL d   1      29.008 -16.099  -5.100  0.00  0.00     0.142 A 
ATOM     40  O   UNL d   1      28.152 -15.201  -5.665  0.00  0.00    -0.325 OA
ENDBRANCH  35  36
ENDBRANCH  33  35
ENDBRANCH  30  31
ENDBRANCH  29  30
ENDBRANCH   1  29
TORSDOF 9
ENDMDL
MODEL 4
REMARK VINA RESULT:    -8.619      3.652      8.890
REMARK INTER + INTRA:         -14.352
REMARK INTER:                 -11.303
REMARK INTRA:                  -3.048
REMARK CONF_INDEPENDENT:        2.685
REMARK UNBOUND:                -3.048
REMARK  9 active torsions:
REMARK  status: ('A' for Active; 'I' for Inactive)
REMARK    1  A    between atoms: C_2  and  C_3 
REMARK       I    between atoms: C_2  and  N_30 
REMARK    2  A    between atoms: C_3  and  S_4 
REMARK    3  A    between atoms: C_5  and  S_4 
REMARK    4  A    between atoms: N_15  and  N_16 
REMARK       I    between atoms: N_16  and  C_17 
REMARK    5  A    between atoms: C_17  and  C_19 
REMARK    6  A    between atoms: C_19  and  C_20 
REMARK    7  A    between atoms: C_20  and  C_21 
REMARK    8  A    between atoms: N_30  and  C_31 
REMARK    9  A    between atoms: C_31  and  C_32 
ROOT
ATOM      1  C   UNL d   1      27.586 -16.129  -1.182  0.00  0.00     0.274 C 
ATOM      2  N   UNL d   1      26.273 -16.057  -1.815  0.00  0.00    -0.358 N 
ATOM      3  C   UNL d   1      25.194 -16.669  -1.176  0.00  0.00     0.046 A 
ATOM      4  C   UNL d   1      23.865 -16.305  -1.412  0.00  0.00     0.030 A 
ATOM      5  C   UNL d   1      22.802 -17.019  -0.823  0.00  0.00     0.002 A 
ATOM      6  C   UNL d   1      23.047 -18.128  -0.018  0.00  0.00     0.001 A 
ATOM      7  C   UNL d   1      24.357 -18.486   0.244  0.00  0.00     0.019 A 
ATOM      8  C   UNL d   1      25.408 -17.739  -0.307  0.00  0.00     0.060 A 
ATOM      9  C   UNL d   1      26.781 -18.118   0.021  0.00  0.00     0.277 C 
ATOM     10  O   UNL d   1      26.925 -18.948   0.921  0.00  0.00    -0.266 OA
ATOM     11  N   UNL d   1      27.791 -17.498  -0.713  0.00  0.00    -0.221 N 
ATOM     12  H   UNL d   1      26.078 -15.259  -2.407  0.00  0.00     0.162 HD
ENDROOT
BRANCH  11  13
ATOM     13  N   UNL d   1      29.146 -18.012  -0.699  0.00  0.00    -0.262 N 
ATOM     14  C   UNL d   1      30.039 -17.621  -1.695  0.00  0.00     0.236 C 
ATOM     15  O   UNL d   1      29.811 -16.905  -2.663  0.00  0.00    -0.272 OA
ATOM     16  H   UNL d   1      29.522 -18.225   0.218  0.00  0.00     0.190 HD
BRANCH  14  17
ATOM     17  C   UNL d   1      31.454 -18.097  -1.517  0.00  0.00     0.109 C 
BRANCH  17  18
ATOM     18  C   UNL d   1      32.122 -18.018  -2.902  0.00  0.00     0.046 C 
BRANCH  18  19
ATOM     19  C   UNL d   1      31.611 -19.008  -3.877  0.00  0.00    -0.050 A 
ATOM     20  C   UNL d   1      31.471 -18.797  -5.187  0.00  0.00    -0.006 A 
ATOM     21  C   UNL d   1      31.773 -17.706  -6.050  0.00  0.00     0.014 A 
ATOM     22  C   UNL d   1      30.832 -20.025  -5.686  0.00  0.00     0.038 A 
ATOM     23  C   UNL d   1      31.440 -17.813  -7.345  0.00  0.00     0.001 A 
ATOM     24  C   UNL d   1      30.780 -19.002  -7.864  0.00  0.00     0.002 A 
ATOM     25  C   UNL d   1      30.472 -20.077  -7.112  0.00  0.00     0.030 A 
ATOM     26  N   UNL d   1      30.654 -20.890  -4.761  0.00  0.00    -0.385 N 
ATOM     27  C   UNL d   1      31.155 -20.372  -3.479  0.00  0.00     0.155 A 
ATOM     28  H   UNL d   1      30.202 -21.789  -4.907  0.00  0.00     0.160 HD
ENDBRANCH  18  19
ENDBRANCH  17  18
ENDBRANCH  14  17
ENDBRANCH  11  13
BRANCH   1  29
ATOM     29  S   UNL d   1      27.690 -14.860   0.134  0.00  0.00    -0.112 SA
BRANCH  29  30
ATOM     30  C   UNL d   1      26.528 -13.538  -0.402  0.00  0.00     0.180 C 
BRANCH  30  31
ATOM     31  C   UNL d   1      27.284 -12.403  -1.130  0.00  0.00     0.227 C 
ATOM     32  O   UNL d   1      28.275 -11.830  -0.678  0.00  0.00    -0.273 OA
ATOM     33  N   UNL d   1      26.839 -11.999  -2.361  0.00  0.00    -0.354 N 
ATOM     34  H   UNL d   1      27.388 -11.243  -2.759  0.00  0.00     0.162 HD
BRANCH  33  35
ATOM     35  C   UNL d   1      25.698 -12.485  -3.104  0.00  0.00     0.187 C 
BRANCH  35  36
ATOM     36  C   UNL d   1      26.099 -13.649  -3.932  0.00  0.00     0.070 A 
ATOM     37  C   UNL d   1      27.308 -14.002  -4.495  0.00  0.00     0.036 A 
ATOM     38  C   UNL d   1      27.089 -15.200  -5.211  0.00  0.00     0.027 A 
ATOM     39  C   UNL d   1      25.765 -15.522  -5.021  0.00  0.00     0.142 A 
ATOM     40  O   UNL d   1      25.155 -14.590  -4.236  0.00  0.00    -0.325 OA
ENDBRANCH  35  36
ENDBRANCH  33  35
ENDBRANCH  30  31
ENDBRANCH  29  30
ENDBRANCH   1  29
TORSDOF 9
ENDMDL
MODEL 5
REMARK VINA RESULT:    -8.423      2.776      7.982
REMARK INTER + INTRA:         -14.238
REMARK INTER:                 -11.108
REMARK INTRA:                  -3.131
REMARK CONF_INDEPENDENT:        2.685
REMARK UNBOUND:                -3.131
REMARK  9 active torsions:
REMARK  status: ('A' for Active; 'I' for Inactive)
REMARK    1  A    between atoms: C_2  and  C_3 
REMARK       I    between atoms: C_2  and  N_30 
REMARK    2  A    between atoms: C_3  and  S_4 
REMARK    3  A    between atoms: C_5  and  S_4 
REMARK    4  A    between atoms: N_15  and  N_16 
REMARK       I    between atoms: N_16  and  C_17 
REMARK    5  A    between atoms: C_17  and  C_19 
REMARK    6  A    between atoms: C_19  and  C_20 
REMARK    7  A    between atoms: C_20  and  C_21 
REMARK    8  A    between atoms: N_30  and  C_31 
REMARK    9  A    between atoms: C_31  and  C_32 
ROOT
ATOM      1  C   UNL d   1      26.362 -14.857  -2.249  0.00  0.00     0.274 C 
ATOM      2  N   UNL d   1      24.962 -15.272  -2.259  0.00  0.00    -0.358 N 
ATOM      3  C   UNL d   1      24.564 -16.277  -1.376  0.00  0.00     0.046 A 
ATOM      4  C   UNL d   1      23.238 -16.444  -0.965  0.00  0.00     0.030 A 
ATOM      5  C   UNL d   1      22.862 -17.534  -0.154  0.00  0.00     0.002 A 
ATOM      6  C   UNL d   1      23.796 -18.492   0.230  0.00  0.00     0.001 A 
ATOM      7  C   UNL d   1      25.116 -18.328  -0.149  0.00  0.00     0.019 A 
ATOM      8  C   UNL d   1      25.487 -17.213  -0.914  0.00  0.00     0.060 A 
ATOM      9  C   UNL d   1      26.898 -17.047  -1.265  0.00  0.00     0.277 C 
ATOM     10  O   UNL d   1      27.699 -17.791  -0.697  0.00  0.00    -0.266 OA
ATOM     11  N   UNL d   1      27.193 -16.058  -2.202  0.00  0.00    -0.221 N 
ATOM     12  H   UNL d   1      24.270 -14.590  -2.539  0.00  0.00     0.162 HD
ENDROOT
BRANCH  11  13
ATOM     13  N   UNL d   1      28.488 -16.010  -2.852  0.00  0.00    -0.262 N 
ATOM     14  C   UNL d   1      28.561 -15.738  -4.217  0.00  0.00     0.236 C 
ATOM     15  O   UNL d   1      27.631 -15.575  -4.997  0.00  0.00    -0.272 OA
ATOM     16  H   UNL d   1      29.259 -15.710  -2.266  0.00  0.00     0.190 HD
BRANCH  14  17
ATOM     17  C   UNL d   1      29.950 -15.574  -4.768  0.00  0.00     0.109 C 
BRANCH  17  18
ATOM     18  C   UNL d   1      30.013 -16.414  -6.057  0.00  0.00     0.046 C 
BRANCH  18  19
ATOM     19  C   UNL d   1      30.452 -17.812  -5.848  0.00  0.00    -0.050 A 
ATOM     20  C   UNL d   1      30.901 -18.629  -6.801  0.00  0.00    -0.006 A 
ATOM     21  C   UNL d   1      31.155 -18.478  -8.193  0.00  0.00     0.014 A 
ATOM     22  C   UNL d   1      31.096 -19.916  -6.115  0.00  0.00     0.038 A 
ATOM     23  C   UNL d   1      31.562 -19.553  -8.884  0.00  0.00     0.001 A 
ATOM     24  C   UNL d   1      31.736 -20.848  -8.240  0.00  0.00     0.002 A 
ATOM     25  C   UNL d   1      31.526 -21.066  -6.926  0.00  0.00     0.030 A 
ATOM     26  N   UNL d   1      30.826 -19.846  -4.867  0.00  0.00    -0.385 N 
ATOM     27  C   UNL d   1      30.405 -18.482  -4.515  0.00  0.00     0.155 A 
ATOM     28  H   UNL d   1      30.874 -20.639  -4.232  0.00  0.00     0.160 HD
ENDBRANCH  18  19
ENDBRANCH  17  18
ENDBRANCH  14  17
ENDBRANCH  11  13
BRANCH   1  29
ATOM     29  S   UNL d   1      26.637 -13.697  -0.860  0.00  0.00    -0.112 SA
BRANCH  29  30
ATOM     30  C   UNL d   1      28.464 -13.497  -0.777  0.00  0.00     0.180 C 
BRANCH  30  31
ATOM     31  C   UNL d   1      29.107 -14.643   0.037  0.00  0.00     0.227 C 
ATOM     32  O   UNL d   1      29.927 -15.440  -0.417  0.00  0.00    -0.273 OA
ATOM     33  N   UNL d   1      28.756 -14.793   1.353  0.00  0.00    -0.354 N 
ATOM     34  H   UNL d   1      29.219 -15.576   1.806  0.00  0.00     0.162 HD
BRANCH  33  35
ATOM     35  C   UNL d   1      27.811 -14.014   2.122  0.00  0.00     0.187 C 
BRANCH  35  36
ATOM     36  C   UNL d   1      28.097 -14.167   3.569  0.00  0.00     0.070 A 
ATOM     37  C   UNL d   1      27.406 -13.757   4.690  0.00  0.00     0.036 A 
ATOM     38  C   UNL d   1      28.174 -14.149   5.808  0.00  0.00     0.027 A 
ATOM     39  C   UNL d   1      29.277 -14.800   5.305  0.00  0.00     0.142 A 
ATOM     40  O   UNL d   1      29.236 -14.825   3.943  0.00  0.00    -0.325 OA
ENDBRANCH  35  36
ENDBRANCH  33  35
ENDBRANCH  30  31
ENDBRANCH  29  30
ENDBRANCH   1  29
TORSDOF 9
ENDMDL
MODEL 6
REMARK VINA RESULT:    -7.967      2.179      8.556
REMARK INTER + INTRA:         -14.157
REMARK INTER:                 -10.652
REMARK INTRA:                  -3.505
REMARK CONF_INDEPENDENT:        2.685
REMARK UNBOUND:                -3.505
REMARK  9 active torsions:
REMARK  status: ('A' for Active; 'I' for Inactive)
REMARK    1  A    between atoms: C_2  and  C_3 
REMARK       I    between atoms: C_2  and  N_30 
REMARK    2  A    between atoms: C_3  and  S_4 
REMARK    3  A    between atoms: C_5  and  S_4 
REMARK    4  A    between atoms: N_15  and  N_16 
REMARK       I    between atoms: N_16  and  C_17 
REMARK    5  A    between atoms: C_17  and  C_19 
REMARK    6  A    between atoms: C_19  and  C_20 
REMARK    7  A    between atoms: C_20  and  C_21 
REMARK    8  A    between atoms: N_30  and  C_31 
REMARK    9  A    between atoms: C_31  and  C_32 
ROOT
ATOM      1  C   UNL d   1      27.266 -16.080  -0.310  0.00  0.00     0.274 C 
ATOM      2  N   UNL d   1      26.409 -15.175  -1.069  0.00  0.00    -0.358 N 
ATOM      3  C   UNL d   1      26.560 -15.127  -2.455  0.00  0.00     0.046 A 
ATOM      4  C   UNL d   1      25.551 -14.681  -3.314  0.00  0.00     0.030 A 
ATOM      5  C   UNL d   1      25.781 -14.551  -4.699  0.00  0.00     0.002 A 
ATOM      6  C   UNL d   1      27.033 -14.830  -5.242  0.00  0.00     0.001 A 
ATOM      7  C   UNL d   1      28.034 -15.294  -4.409  0.00  0.00     0.019 A 
ATOM      8  C   UNL d   1      27.778 -15.467  -3.041  0.00  0.00     0.060 A 
ATOM      9  C   UNL d   1      28.845 -15.999  -2.194  0.00  0.00     0.277 C 
ATOM     10  O   UNL d   1      29.837 -16.448  -2.771  0.00  0.00    -0.266 OA
ATOM     11  N   UNL d   1      28.630 -15.949  -0.818  0.00  0.00    -0.221 N 
ATOM     12  H   UNL d   1      25.497 -14.958  -0.687  0.00  0.00     0.162 HD
ENDROOT
BRANCH  11  13
ATOM     13  N   UNL d   1      29.721 -16.150   0.116  0.00  0.00    -0.262 N 
ATOM     14  C   UNL d   1      30.910 -15.443  -0.055  0.00  0.00     0.236 C 
ATOM     15  O   UNL d   1      31.197 -14.672  -0.963  0.00  0.00    -0.272 OA
ATOM     16  H   UNL d   1      29.446 -16.396   1.060  0.00  0.00     0.190 HD
BRANCH  14  17
ATOM     17  C   UNL d   1      31.926 -15.617   1.039  0.00  0.00     0.109 C 
BRANCH  17  18
ATOM     18  C   UNL d   1      31.371 -14.883   2.274  0.00  0.00     0.046 C 
BRANCH  18  19
ATOM     19  C   UNL d   1      30.689 -13.606   1.964  0.00  0.00    -0.050 A 
ATOM     20  C   UNL d   1      29.372 -13.406   2.006  0.00  0.00    -0.006 A 
ATOM     21  C   UNL d   1      28.261 -14.217   2.374  0.00  0.00     0.014 A 
ATOM     22  C   UNL d   1      29.196 -12.031   1.513  0.00  0.00     0.038 A 
ATOM     23  C   UNL d   1      27.030 -13.702   2.239  0.00  0.00     0.001 A 
ATOM     24  C   UNL d   1      26.821 -12.355   1.726  0.00  0.00     0.002 A 
ATOM     25  C   UNL d   1      27.822 -11.527   1.369  0.00  0.00     0.030 A 
ATOM     26  N   UNL d   1      30.312 -11.465   1.247  0.00  0.00    -0.385 N 
ATOM     27  C   UNL d   1      31.426 -12.383   1.527  0.00  0.00     0.155 A 
ATOM     28  H   UNL d   1      30.393 -10.525   0.869  0.00  0.00     0.160 HD
ENDBRANCH  18  19
ENDBRANCH  17  18
ENDBRANCH  14  17
ENDBRANCH  11  13
BRANCH   1  29
ATOM     29  S   UNL d   1      26.587 -17.778  -0.408  0.00  0.00    -0.112 SA
BRANCH  29  30
ATOM     30  C   UNL d   1      24.937 -17.666   0.400  0.00  0.00     0.180 C 
BRANCH  30  31
ATOM     31  C   UNL d   1      23.851 -17.260  -0.622  0.00  0.00     0.227 C 
ATOM     32  O   UNL d   1      23.873 -16.220  -1.280  0.00  0.00    -0.273 OA
ATOM     33  N   UNL d   1      22.790 -18.102  -0.825  0.00  0.00    -0.354 N 
ATOM     34  H   UNL d   1      22.121 -17.750  -1.505  0.00  0.00     0.162 HD
BRANCH  33  35
ATOM     35  C   UNL d   1      22.512 -19.363  -0.177  0.00  0.00     0.187 C 
BRANCH  35  36
ATOM     36  C   UNL d   1      21.046 -19.590  -0.130  0.00  0.00     0.070 A 
ATOM     37  C   UNL d   1      20.243 -20.211   0.803  0.00  0.00     0.036 A 
ATOM     38  C   UNL d   1      18.923 -20.160   0.302  0.00  0.00     0.027 A 
ATOM     39  C   UNL d   1      18.995 -19.487  -0.896  0.00  0.00     0.142 A 
ATOM     40  O   UNL d   1      20.281 -19.127  -1.164  0.00  0.00    -0.325 OA
ENDBRANCH  35  36
ENDBRANCH  33  35
ENDBRANCH  30  31
ENDBRANCH  29  30
ENDBRANCH   1  29
TORSDOF 9
ENDMDL
MODEL 7
REMARK VINA RESULT:    -7.470      3.895      9.357
REMARK INTER + INTRA:         -14.147
REMARK INTER:                 -10.155
REMARK INTRA:                  -3.992
REMARK CONF_INDEPENDENT:        2.685
REMARK UNBOUND:                -3.992
REMARK  9 active torsions:
REMARK  status: ('A' for Active; 'I' for Inactive)
REMARK    1  A    between atoms: C_2  and  C_3 
REMARK       I    between atoms: C_2  and  N_30 
REMARK    2  A    between atoms: C_3  and  S_4 
REMARK    3  A    between atoms: C_5  and  S_4 
REMARK    4  A    between atoms: N_15  and  N_16 
REMARK       I    between atoms: N_16  and  C_17 
REMARK    5  A    between atoms: C_17  and  C_19 
REMARK    6  A    between atoms: C_19  and  C_20 
REMARK    7  A    between atoms: C_20  and  C_21 
REMARK    8  A    between atoms: N_30  and  C_31 
REMARK    9  A    between atoms: C_31  and  C_32 
ROOT
ATOM      1  C   UNL d   1      26.873 -15.712  -2.501  0.00  0.00     0.274 C 
ATOM      2  N   UNL d   1      25.543 -16.292  -2.661  0.00  0.00    -0.358 N 
ATOM      3  C   UNL d   1      24.952 -16.907  -1.557  0.00  0.00     0.046 A 
ATOM      4  C   UNL d   1      23.570 -17.084  -1.435  0.00  0.00     0.030 A 
ATOM      5  C   UNL d   1      23.023 -17.803  -0.353  0.00  0.00     0.002 A 
ATOM      6  C   UNL d   1      23.848 -18.386   0.605  0.00  0.00     0.001 A 
ATOM      7  C   UNL d   1      25.215 -18.200   0.512  0.00  0.00     0.019 A 
ATOM      8  C   UNL d   1      25.745 -17.441  -0.542  0.00  0.00     0.060 A 
ATOM      9  C   UNL d   1      27.191 -17.229  -0.591  0.00  0.00     0.277 C 
ATOM     10  O   UNL d   1      27.832 -17.563   0.407  0.00  0.00    -0.266 OA
ATOM     11  N   UNL d   1      27.698 -16.664  -1.760  0.00  0.00    -0.221 N 
ATOM     12  H   UNL d   1      24.931 -15.883  -3.355  0.00  0.00     0.162 HD
ENDROOT
BRANCH  11  13
ATOM     13  N   UNL d   1      29.119 -16.695  -2.048  0.00  0.00    -0.262 N 
ATOM     14  C   UNL d   1      29.556 -16.538  -3.362  0.00  0.00     0.236 C 
ATOM     15  O   UNL d   1      28.869 -16.423  -4.369  0.00  0.00    -0.272 OA
ATOM     16  H   UNL d   1      29.721 -16.362  -1.303  0.00  0.00     0.190 HD
BRANCH  14  17
ATOM     17  C   UNL d   1      31.047 -16.447  -3.539  0.00  0.00     0.109 C 
BRANCH  17  18
ATOM     18  C   UNL d   1      31.612 -17.845  -3.227  0.00  0.00     0.046 C 
BRANCH  18  19
ATOM     19  C   UNL d   1      31.266 -18.876  -4.232  0.00  0.00    -0.050 A 
ATOM     20  C   UNL d   1      31.316 -18.710  -5.554  0.00  0.00    -0.006 A 
ATOM     21  C   UNL d   1      31.723 -17.641  -6.401  0.00  0.00     0.014 A 
ATOM     22  C   UNL d   1      30.779 -19.967  -6.099  0.00  0.00     0.038 A 
ATOM     23  C   UNL d   1      31.585 -17.795  -7.726  0.00  0.00     0.001 A 
ATOM     24  C   UNL d   1      31.029 -19.015  -8.295  0.00  0.00     0.002 A 
ATOM     25  C   UNL d   1      30.633 -20.072  -7.559  0.00  0.00     0.030 A 
ATOM     26  N   UNL d   1      30.482 -20.805  -5.180  0.00  0.00    -0.385 N 
ATOM     27  C   UNL d   1      30.780 -20.236  -3.858  0.00  0.00     0.155 A 
ATOM     28  H   UNL d   1      30.071 -21.718  -5.359  0.00  0.00     0.160 HD
ENDBRANCH  18  19
ENDBRANCH  17  18
ENDBRANCH  14  17
ENDBRANCH  11  13
BRANCH   1  29
ATOM     29  S   UNL d   1      26.724 -14.069  -1.708  0.00  0.00    -0.112 SA
BRANCH  29  30
ATOM     30  C   UNL d   1      25.588 -13.125  -2.806  0.00  0.00     0.180 C 
BRANCH  30  31
ATOM     31  C   UNL d   1      25.456 -13.813  -4.184  0.00  0.00     0.227 C 
ATOM     32  O   UNL d   1      24.457 -14.425  -4.560  0.00  0.00    -0.273 OA
ATOM     33  N   UNL d   1      26.508 -13.744  -5.058  0.00  0.00    -0.354 N 
ATOM     34  H   UNL d   1      26.338 -14.232  -5.933  0.00  0.00     0.162 HD
BRANCH  33  35
ATOM     35  C   UNL d   1      27.793 -13.111  -4.864  0.00  0.00     0.187 C 
BRANCH  35  36
ATOM     36  C   UNL d   1      28.807 -13.759  -5.732  0.00  0.00     0.070 A 
ATOM     37  C   UNL d   1      30.148 -13.502  -5.926  0.00  0.00     0.036 A 
ATOM     38  C   UNL d   1      30.600 -14.419  -6.901  0.00  0.00     0.027 A 
ATOM     39  C   UNL d   1      29.515 -15.200  -7.224  0.00  0.00     0.142 A 
ATOM     40  O   UNL d   1      28.420 -14.814  -6.511  0.00  0.00    -0.325 OA
ENDBRANCH  35  36
ENDBRANCH  33  35
ENDBRANCH  30  31
ENDBRANCH  29  30
ENDBRANCH   1  29
TORSDOF 9
ENDMDL
MODEL 8
REMARK VINA RESULT:    -7.150      3.635      5.223
REMARK INTER + INTRA:         -14.826
REMARK INTER:                  -9.835
REMARK INTRA:                  -4.990
REMARK CONF_INDEPENDENT:        2.685
REMARK UNBOUND:                -4.990
REMARK  9 active torsions:
REMARK  status: ('A' for Active; 'I' for Inactive)
REMARK    1  A    between atoms: C_2  and  C_3 
REMARK       I    between atoms: C_2  and  N_30 
REMARK    2  A    between atoms: C_3  and  S_4 
REMARK    3  A    between atoms: C_5  and  S_4 
REMARK    4  A    between atoms: N_15  and  N_16 
REMARK       I    between atoms: N_16  and  C_17 
REMARK    5  A    between atoms: C_17  and  C_19 
REMARK    6  A    between atoms: C_19  and  C_20 
REMARK    7  A    between atoms: C_20  and  C_21 
REMARK    8  A    between atoms: N_30  and  C_31 
REMARK    9  A    between atoms: C_31  and  C_32 
ROOT
ATOM      1  C   UNL d   1      29.297 -16.095  -3.508  0.00  0.00     0.274 C 
ATOM      2  N   UNL d   1      29.662 -17.489  -3.746  0.00  0.00    -0.358 N 
ATOM      3  C   UNL d   1      30.354 -17.801  -4.916  0.00  0.00     0.046 A 
ATOM      4  C   UNL d   1      31.137 -18.952  -5.051  0.00  0.00     0.030 A 
ATOM      5  C   UNL d   1      31.736 -19.282  -6.284  0.00  0.00     0.002 A 
ATOM      6  C   UNL d   1      31.533 -18.488  -7.410  0.00  0.00     0.001 A 
ATOM      7  C   UNL d   1      30.780 -17.335  -7.287  0.00  0.00     0.019 A 
ATOM      8  C   UNL d   1      30.231 -16.990  -6.043  0.00  0.00     0.060 A 
ATOM      9  C   UNL d   1      29.474 -15.743  -5.936  0.00  0.00     0.277 C 
ATOM     10  O   UNL d   1      29.536 -14.975  -6.899  0.00  0.00    -0.266 OA
ATOM     11  N   UNL d   1      28.764 -15.546  -4.754  0.00  0.00    -0.221 N 
ATOM     12  H   UNL d   1      29.810 -18.081  -2.939  0.00  0.00     0.162 HD
ENDROOT
BRANCH  11  13
ATOM     13  N   UNL d   1      27.745 -14.519  -4.658  0.00  0.00    -0.262 N 
ATOM     14  C   UNL d   1      26.414 -14.848  -4.903  0.00  0.00     0.236 C 
ATOM     15  O   UNL d   1      25.965 -15.931  -5.258  0.00  0.00    -0.272 OA
ATOM     16  H   UNL d   1      27.937 -13.776  -3.995  0.00  0.00     0.190 HD
BRANCH  14  17
ATOM     17  C   UNL d   1      25.419 -13.750  -4.645  0.00  0.00     0.109 C 
BRANCH  17  18
ATOM     18  C   UNL d   1      24.745 -14.077  -3.300  0.00  0.00     0.046 C 
BRANCH  18  19
ATOM     19  C   UNL d   1      25.659 -14.651  -2.287  0.00  0.00    -0.050 A 
ATOM     20  C   UNL d   1      25.477 -15.812  -1.656  0.00  0.00    -0.006 A 
ATOM     21  C   UNL d   1      24.497 -16.840  -1.742  0.00  0.00     0.014 A 
ATOM     22  C   UNL d   1      26.583 -15.875  -0.687  0.00  0.00     0.038 A 
ATOM     23  C   UNL d   1      24.590 -17.876  -0.894  0.00  0.00     0.001 A 
ATOM     24  C   UNL d   1      25.655 -17.953   0.096  0.00  0.00     0.002 A 
ATOM     25  C   UNL d   1      26.623 -17.025   0.230  0.00  0.00     0.030 A 
ATOM     26  N   UNL d   1      27.362 -14.865  -0.773  0.00  0.00    -0.385 N 
ATOM     27  C   UNL d   1      26.897 -13.954  -1.830  0.00  0.00     0.155 A 
ATOM     28  H   UNL d   1      28.165 -14.717  -0.168  0.00  0.00     0.160 HD
ENDBRANCH  18  19
ENDBRANCH  17  18
ENDBRANCH  14  17
ENDBRANCH  11  13
BRANCH   1  29
ATOM     29  S   UNL d   1      30.748 -15.195  -2.849  0.00  0.00    -0.112 SA
BRANCH  29  30
ATOM     30  C   UNL d   1      31.373 -16.259  -1.484  0.00  0.00     0.180 C 
BRANCH  30  31
ATOM     31  C   UNL d   1      30.204 -16.802  -0.630  0.00  0.00     0.227 C 
ATOM     32  O   UNL d   1      29.582 -17.833  -0.885  0.00  0.00    -0.273 OA
ATOM     33  N   UNL d   1      29.826 -16.107   0.488  0.00  0.00    -0.354 N 
ATOM     34  H   UNL d   1      29.044 -16.532   0.980  0.00  0.00     0.162 HD
BRANCH  33  35
ATOM     35  C   UNL d   1      30.369 -14.869   0.998  0.00  0.00     0.187 C 
BRANCH  35  36
ATOM     36  C   UNL d   1      29.366 -14.200   1.862  0.00  0.00     0.070 A 
ATOM     37  C   UNL d   1      29.430 -13.053   2.625  0.00  0.00     0.036 A 
ATOM     38  C   UNL d   1      28.179 -12.921   3.267  0.00  0.00     0.027 A 
ATOM     39  C   UNL d   1      27.414 -13.981   2.837  0.00  0.00     0.142 A 
ATOM     40  O   UNL d   1      28.124 -14.761   1.974  0.00  0.00    -0.325 OA
ENDBRANCH  35  36
ENDBRANCH  33  35
ENDBRANCH  30  31
ENDBRANCH  29  30
ENDBRANCH   1  29
TORSDOF 9
ENDMDL
MODEL 9
REMARK VINA RESULT:    -6.859      4.199      6.541
REMARK INTER + INTRA:         -14.179
REMARK INTER:                  -9.544
REMARK INTRA:                  -4.635
REMARK CONF_INDEPENDENT:        2.685
REMARK UNBOUND:                -4.635
REMARK  9 active torsions:
REMARK  status: ('A' for Active; 'I' for Inactive)
REMARK    1  A    between atoms: C_2  and  C_3 
REMARK       I    between atoms: C_2  and  N_30 
REMARK    2  A    between atoms: C_3  and  S_4 
REMARK    3  A    between atoms: C_5  and  S_4 
REMARK    4  A    between atoms: N_15  and  N_16 
REMARK       I    between atoms: N_16  and  C_17 
REMARK    5  A    between atoms: C_17  and  C_19 
REMARK    6  A    between atoms: C_19  and  C_20 
REMARK    7  A    between atoms: C_20  and  C_21 
REMARK    8  A    between atoms: N_30  and  C_31 
REMARK    9  A    between atoms: C_31  and  C_32 
ROOT
ATOM      1  C   UNL d   1      29.616 -16.397  -3.372  0.00  0.00     0.274 C 
ATOM      2  N   UNL d   1      29.891 -17.800  -3.668  0.00  0.00    -0.358 N 
ATOM      3  C   UNL d   1      30.487 -18.114  -4.890  0.00  0.00     0.046 A 
ATOM      4  C   UNL d   1      31.198 -19.298  -5.106  0.00  0.00     0.030 A 
ATOM      5  C   UNL d   1      31.696 -19.623  -6.383  0.00  0.00     0.002 A 
ATOM      6  C   UNL d   1      31.462 -18.788  -7.473  0.00  0.00     0.001 A 
ATOM      7  C   UNL d   1      30.781 -17.602  -7.271  0.00  0.00     0.019 A 
ATOM      8  C   UNL d   1      30.333 -17.266  -5.985  0.00  0.00     0.060 A 
ATOM      9  C   UNL d   1      29.652 -15.985  -5.797  0.00  0.00     0.277 C 
ATOM     10  O   UNL d   1      29.690 -15.195  -6.741  0.00  0.00    -0.266 OA
ATOM     11  N   UNL d   1      29.032 -15.786  -4.564  0.00  0.00    -0.221 N 
ATOM     12  H   UNL d   1      30.060 -18.421  -2.888  0.00  0.00     0.162 HD
ENDROOT
BRANCH  11  13
ATOM     13  N   UNL d   1      28.077 -14.712  -4.375  0.00  0.00    -0.262 N 
ATOM     14  C   UNL d   1      26.764 -14.876  -4.810  0.00  0.00     0.236 C 
ATOM     15  O   UNL d   1      26.289 -15.834  -5.409  0.00  0.00    -0.272 OA
ATOM     16  H   UNL d   1      28.240 -14.122  -3.566  0.00  0.00     0.190 HD
BRANCH  14  17
ATOM     17  C   UNL d   1      25.819 -13.764  -4.445  0.00  0.00     0.109 C 
BRANCH  17  18
ATOM     18  C   UNL d   1      24.940 -14.294  -3.298  0.00  0.00     0.046 C 
BRANCH  18  19
ATOM     19  C   UNL d   1      25.701 -14.892  -2.178  0.00  0.00    -0.050 A 
ATOM     20  C   UNL d   1      25.413 -16.050  -1.582  0.00  0.00    -0.006 A 
ATOM     21  C   UNL d   1      24.428 -17.054  -1.800  0.00  0.00     0.014 A 
ATOM     22  C   UNL d   1      26.381 -16.142  -0.478  0.00  0.00     0.038 A 
ATOM     23  C   UNL d   1      24.386 -18.094  -0.953  0.00  0.00     0.001 A 
ATOM     24  C   UNL d   1      25.311 -18.199   0.167  0.00  0.00     0.002 A 
ATOM     25  C   UNL d   1      26.274 -17.294   0.430  0.00  0.00     0.030 A 
ATOM     26  N   UNL d   1      27.187 -15.150  -0.457  0.00  0.00    -0.385 N 
ATOM     27  C   UNL d   1      26.885 -14.226  -1.560  0.00  0.00     0.155 A 
ATOM     28  H   UNL d   1      27.909 -15.023   0.248  0.00  0.00     0.160 HD
ENDBRANCH  18  19
ENDBRANCH  17  18
ENDBRANCH  14  17
ENDBRANCH  11  13
BRANCH   1  29
ATOM     29  S   UNL d   1      31.153 -15.591  -2.789  0.00  0.00    -0.112 SA
BRANCH  29  30
ATOM     30  C   UNL d   1      30.946 -15.460  -0.965  0.00  0.00     0.180 C 
BRANCH  30  31
ATOM     31  C   UNL d   1      30.269 -16.727  -0.396  0.00  0.00     0.227 C 
ATOM     32  O   UNL d   1      29.193 -16.730   0.200  0.00  0.00    -0.273 OA
ATOM     33  N   UNL d   1      30.893 -17.936  -0.559  0.00  0.00    -0.354 N 
ATOM     34  H   UNL d   1      30.382 -18.712  -0.144  0.00  0.00     0.162 HD
BRANCH  33  35
ATOM     35  C   UNL d   1      32.161 -18.211  -1.195  0.00  0.00     0.187 C 
BRANCH  35  36
ATOM     36  C   UNL d   1      32.125 -19.553  -1.826  0.00  0.00     0.070 A 
ATOM     37  C   UNL d   1      33.121 -20.343  -2.360  0.00  0.00     0.036 A 
ATOM     38  C   UNL d   1      32.494 -21.509  -2.854  0.00  0.00     0.027 A 
ATOM     39  C   UNL d   1      31.155 -21.374  -2.567  0.00  0.00     0.142 A 
ATOM     40  O   UNL d   1      30.921 -20.191  -1.933  0.00  0.00    -0.325 OA
ENDBRANCH  35  36
ENDBRANCH  33  35
ENDBRANCH  30  31
ENDBRANCH  29  30
ENDBRANCH   1  29
TORSDOF 9
ENDMDL
