MODEL 1
REMARK VINA RESULT:   -10.648      0.000      0.000
REMARK INTER + INTRA:         -14.004
REMARK INTER:                 -12.139
REMARK INTRA:                  -1.864
REMARK CONF_INDEPENDENT:        1.492
REMARK UNBOUND:                -1.864
REMARK  5 active torsions:
REMARK  status: ('A' for Active; 'I' for Inactive)
REMARK    1  A    between atoms: C_5  and  N_6 
REMARK       I    between atoms: N_6  and  C_7 
REMARK       I    between atoms: C_7  and  N_9 
REMARK    2  A    between atoms: N_9  and  C_10 
REMARK    3  A    between atoms: C_12  and  N_13 
REMARK       I    between atoms: N_13  and  C_14 
REMARK    4  A    between atoms: C_14  and  C_16 
REMARK    5  A    between atoms: C_25  and  N_26 
ROOT
ATOM      1  C   UNL d   1      24.909 -15.751  -1.577  0.00  0.00     0.065 A 
ATOM      2  C   UNL d   1      23.638 -16.332  -1.271  0.00  0.00     0.061 A 
ATOM      3  C   UNL d   1      23.541 -17.487  -0.460  0.00  0.00     0.037 A 
ATOM      4  C   UNL d   1      24.730 -18.105  -0.086  0.00  0.00     0.032 A 
ATOM      5  C   UNL d   1      25.971 -17.551  -0.380  0.00  0.00     0.034 A 
ATOM      6  C   UNL d   1      26.104 -16.361  -1.096  0.00  0.00     0.057 A 
ENDROOT
BRANCH   1   7
ATOM      7  N   UNL d   1      24.971 -14.536  -2.358  0.00  0.00    -0.306 N 
ATOM      8  C   UNL d   1      25.627 -14.548  -3.582  0.00  0.00     0.325 C 
ATOM      9  N   UNL d   1      25.885 -13.302  -4.155  0.00  0.00    -0.307 N 
ATOM     10  O   UNL d   1      25.976 -15.609  -4.103  0.00  0.00    -0.247 OA
ATOM     11  H   UNL d   1      25.429 -12.474  -3.792  0.00  0.00     0.170 HD
ATOM     12  H   UNL d   1      24.273 -13.828  -2.188  0.00  0.00     0.170 HD
BRANCH   9  13
ATOM     13  C   UNL d   1      26.763 -13.107  -5.292  0.00  0.00     0.058 A 
ATOM     14  C   UNL d   1      27.622 -14.126  -5.745  0.00  0.00     0.032 A 
ATOM     15  C   UNL d   1      28.525 -13.957  -6.794  0.00  0.00     0.009 A 
ATOM     16  C   UNL d   1      28.592 -12.748  -7.466  0.00  0.00    -0.060 A 
ATOM     17  C   UNL d   1      29.564 -12.575  -8.594  0.00  0.00     0.048 C 
ATOM     18  C   UNL d   1      27.743 -11.711  -7.054  0.00  0.00     0.033 A 
ATOM     19  C   UNL d   1      26.854 -11.879  -5.967  0.00  0.00     0.061 A 
ATOM     20 CL   UNL d   1      25.887 -10.524  -5.501  0.00  0.00    -0.082 Cl
ENDBRANCH   9  13
ENDBRANCH   1   7
BRANCH   6  21
ATOM     21  N   UNL d   1      27.385 -15.848  -1.182  0.00  0.00    -0.379 N 
ATOM     22  C   UNL d   1      27.790 -14.575  -0.626  0.00  0.00     0.123 C 
ATOM     23  C   UNL d   1      28.665 -13.969  -1.706  0.00  0.00     0.021 C 
ATOM     24  C   UNL d   1      29.319 -15.166  -2.377  0.00  0.00     0.021 C 
ATOM     25  C   UNL d   1      28.326 -16.325  -2.198  0.00  0.00     0.123 C 
ENDBRANCH   6  21
BRANCH   3  26
ATOM     26  N   UNL d   1      22.281 -17.980   0.022  0.00  0.00    -0.323 N 
ATOM     27  C   UNL d   1      21.476 -18.883  -0.681  0.00  0.00     0.256 C 
ATOM     28  O   UNL d   1      21.679 -19.325  -1.818  0.00  0.00    -0.267 OA
ATOM     29  H   UNL d   1      22.049 -17.789   0.989  0.00  0.00     0.169 HD
BRANCH  27  30
ATOM     30  C   UNL d   1      20.241 -19.414  -0.058  0.00  0.00     0.032 A 
ATOM     31  C   UNL d   1      20.279 -19.704   1.324  0.00  0.00     0.020 A 
ATOM     32  C   UNL d   1      19.265 -20.449   1.922  0.00  0.00     0.043 A 
ATOM     33  C   UNL d   1      18.179 -20.842   1.154  0.00  0.00     0.116 A 
ATOM     34  F   UNL d   1      17.177 -21.518   1.730  0.00  0.00    -0.206 F 
ATOM     35  C   UNL d   1      18.116 -20.546  -0.208  0.00  0.00     0.043 A 
ATOM     36  C   UNL d   1      19.155 -19.838  -0.824  0.00  0.00     0.020 A 
ENDBRANCH  27  30
ENDBRANCH   3  26
TORSDOF 5
ENDMDL
MODEL 2
REMARK VINA RESULT:    -9.815      3.122      5.280
REMARK INTER + INTRA:         -13.090
REMARK INTER:                 -11.306
REMARK INTRA:                  -1.784
REMARK CONF_INDEPENDENT:        1.492
REMARK UNBOUND:                -1.784
REMARK  5 active torsions:
REMARK  status: ('A' for Active; 'I' for Inactive)
REMARK    1  A    between atoms: C_5  and  N_6 
REMARK       I    between atoms: N_6  and  C_7 
REMARK       I    between atoms: C_7  and  N_9 
REMARK    2  A    between atoms: N_9  and  C_10 
REMARK    3  A    between atoms: C_12  and  N_13 
REMARK       I    between atoms: N_13  and  C_14 
REMARK    4  A    between atoms: C_14  and  C_16 
REMARK    5  A    between atoms: C_25  and  N_26 
ROOT
ATOM      1  C   UNL d   1      26.186 -17.012  -0.251  0.00  0.00     0.065 A 
ATOM      2  C   UNL d   1      25.055 -17.641   0.360  0.00  0.00     0.061 A 
ATOM      3  C   UNL d   1      23.910 -17.978  -0.399  0.00  0.00     0.037 A 
ATOM      4  C   UNL d   1      23.876 -17.555  -1.724  0.00  0.00     0.032 A 
ATOM      5  C   UNL d   1      24.967 -16.941  -2.328  0.00  0.00     0.034 A 
ATOM      6  C   UNL d   1      26.151 -16.679  -1.637  0.00  0.00     0.057 A 
ENDROOT
BRANCH   1   7
ATOM      7  N   UNL d   1      27.364 -16.736   0.539  0.00  0.00    -0.306 N 
ATOM      8  C   UNL d   1      27.581 -15.447   1.007  0.00  0.00     0.325 C 
ATOM      9  N   UNL d   1      28.850 -15.184   1.524  0.00  0.00    -0.307 N 
ATOM     10  O   UNL d   1      26.697 -14.590   0.938  0.00  0.00    -0.247 OA
ATOM     11  H   UNL d   1      29.481 -15.949   1.730  0.00  0.00     0.170 HD
ATOM     12  H   UNL d   1      27.805 -17.506   1.015  0.00  0.00     0.170 HD
BRANCH   9  13
ATOM     13  C   UNL d   1      29.333 -13.851   1.830  0.00  0.00     0.058 A 
ATOM     14  C   UNL d   1      30.146 -13.137   0.930  0.00  0.00     0.032 A 
ATOM     15  C   UNL d   1      30.682 -11.881   1.213  0.00  0.00     0.009 A 
ATOM     16  C   UNL d   1      30.403 -11.262   2.420  0.00  0.00    -0.060 A 
ATOM     17  C   UNL d   1      30.982  -9.911   2.715  0.00  0.00     0.048 C 
ATOM     18  C   UNL d   1      29.586 -11.935   3.339  0.00  0.00     0.033 A 
ATOM     19  C   UNL d   1      29.074 -13.224   3.059  0.00  0.00     0.061 A 
ATOM     20 CL   UNL d   1      28.122 -13.995   4.278  0.00  0.00    -0.082 Cl
ENDBRANCH   9  13
ENDBRANCH   1   7
BRANCH   6  21
ATOM     21  N   UNL d   1      27.203 -16.207  -2.399  0.00  0.00    -0.379 N 
ATOM     22  C   UNL d   1      28.579 -16.625  -2.234  0.00  0.00     0.123 C 
ATOM     23  C   UNL d   1      29.366 -15.335  -2.346  0.00  0.00     0.021 C 
ATOM     24  C   UNL d   1      28.555 -14.479  -3.305  0.00  0.00     0.021 C 
ATOM     25  C   UNL d   1      27.101 -14.943  -3.133  0.00  0.00     0.123 C 
ENDBRANCH   6  21
BRANCH   3  26
ATOM     26  N   UNL d   1      22.843 -18.777   0.138  0.00  0.00    -0.323 N 
ATOM     27  C   UNL d   1      21.494 -18.594  -0.183  0.00  0.00     0.256 C 
ATOM     28  O   UNL d   1      21.017 -17.703  -0.895  0.00  0.00    -0.267 OA
ATOM     29  H   UNL d   1      23.104 -19.614   0.644  0.00  0.00     0.169 HD
BRANCH  27  30
ATOM     30  C   UNL d   1      20.475 -19.533   0.342  0.00  0.00     0.032 A 
ATOM     31  C   UNL d   1      19.544 -20.066  -0.577  0.00  0.00     0.020 A 
ATOM     32  C   UNL d   1      18.404 -20.732  -0.128  0.00  0.00     0.043 A 
ATOM     33  C   UNL d   1      18.234 -20.927   1.235  0.00  0.00     0.116 A 
ATOM     34  F   UNL d   1      17.167 -21.606   1.673  0.00  0.00    -0.206 F 
ATOM     35  C   UNL d   1      19.155 -20.424   2.154  0.00  0.00     0.043 A 
ATOM     36  C   UNL d   1      20.278 -19.714   1.711  0.00  0.00     0.020 A 
ENDBRANCH  27  30
ENDBRANCH   3  26
TORSDOF 5
ENDMDL
MODEL 3
REMARK VINA RESULT:    -9.746      1.232      1.613
REMARK INTER + INTRA:         -12.689
REMARK INTER:                 -11.237
REMARK INTRA:                  -1.452
REMARK CONF_INDEPENDENT:        1.492
REMARK UNBOUND:                -1.452
REMARK  5 active torsions:
REMARK  status: ('A' for Active; 'I' for Inactive)
REMARK    1  A    between atoms: C_5  and  N_6 
REMARK       I    between atoms: N_6  and  C_7 
REMARK       I    between atoms: C_7  and  N_9 
REMARK    2  A    between atoms: N_9  and  C_10 
REMARK    3  A    between atoms: C_12  and  N_13 
REMARK       I    between atoms: N_13  and  C_14 
REMARK    4  A    between atoms: C_14  and  C_16 
REMARK    5  A    between atoms: C_25  and  N_26 
ROOT
ATOM      1  C   UNL d   1      25.207 -16.047  -1.360  0.00  0.00     0.065 A 
ATOM      2  C   UNL d   1      23.984 -16.735  -1.079  0.00  0.00     0.061 A 
ATOM      3  C   UNL d   1      23.986 -17.989  -0.425  0.00  0.00     0.037 A 
ATOM      4  C   UNL d   1      25.222 -18.582  -0.188  0.00  0.00     0.032 A 
ATOM      5  C   UNL d   1      26.417 -17.925  -0.458  0.00  0.00     0.034 A 
ATOM      6  C   UNL d   1      26.454 -16.645  -1.015  0.00  0.00     0.057 A 
ENDROOT
BRANCH   1   7
ATOM      7  N   UNL d   1      25.167 -14.740  -1.975  0.00  0.00    -0.306 N 
ATOM      8  C   UNL d   1      25.740 -14.561  -3.227  0.00  0.00     0.325 C 
ATOM      9  N   UNL d   1      25.910 -13.241  -3.644  0.00  0.00    -0.307 N 
ATOM     10  O   UNL d   1      26.097 -15.527  -3.905  0.00  0.00    -0.247 OA
ATOM     11  H   UNL d   1      25.446 -12.490  -3.148  0.00  0.00     0.170 HD
ATOM     12  H   UNL d   1      24.455 -14.095  -1.670  0.00  0.00     0.170 HD
BRANCH   9  13
ATOM     13  C   UNL d   1      26.702 -12.857  -4.797  0.00  0.00     0.058 A 
ATOM     14  C   UNL d   1      26.202 -11.977  -5.775  0.00  0.00     0.032 A 
ATOM     15  C   UNL d   1      26.907 -11.633  -6.929  0.00  0.00     0.009 A 
ATOM     16  C   UNL d   1      28.176 -12.142  -7.145  0.00  0.00    -0.060 A 
ATOM     17  C   UNL d   1      28.928 -11.765  -8.387  0.00  0.00     0.048 C 
ATOM     18  C   UNL d   1      28.716 -13.012  -6.187  0.00  0.00     0.033 A 
ATOM     19  C   UNL d   1      27.981 -13.383  -5.037  0.00  0.00     0.061 A 
ATOM     20 CL   UNL d   1      28.711 -14.504  -3.942  0.00  0.00    -0.082 Cl
ENDBRANCH   9  13
ENDBRANCH   1   7
BRANCH   6  21
ATOM     21  N   UNL d   1      27.701 -16.054  -1.087  0.00  0.00    -0.379 N 
ATOM     22  C   UNL d   1      28.877 -16.699  -1.629  0.00  0.00     0.123 C 
ATOM     23  C   UNL d   1      29.977 -16.325  -0.655  0.00  0.00     0.021 C 
ATOM     24  C   UNL d   1      29.580 -14.950  -0.146  0.00  0.00     0.021 C 
ATOM     25  C   UNL d   1      28.047 -14.909  -0.241  0.00  0.00     0.123 C 
ENDBRANCH   6  21
BRANCH   3  26
ATOM     26  N   UNL d   1      22.778 -18.612   0.040  0.00  0.00    -0.323 N 
ATOM     27  C   UNL d   1      21.503 -18.301  -0.443  0.00  0.00     0.256 C 
ATOM     28  O   UNL d   1      21.217 -17.421  -1.264  0.00  0.00    -0.267 OA
ATOM     29  H   UNL d   1      22.878 -19.431   0.628  0.00  0.00     0.169 HD
BRANCH  27  30
ATOM     30  C   UNL d   1      20.326 -19.069   0.025  0.00  0.00     0.032 A 
ATOM     31  C   UNL d   1      20.334 -19.528   1.361  0.00  0.00     0.020 A 
ATOM     32  C   UNL d   1      19.406 -20.473   1.793  0.00  0.00     0.043 A 
ATOM     33  C   UNL d   1      18.427 -20.906   0.911  0.00  0.00     0.116 A 
ATOM     34  F   UNL d   1      17.503 -21.778   1.330  0.00  0.00    -0.206 F 
ATOM     35  C   UNL d   1      18.393 -20.447  -0.406  0.00  0.00     0.043 A 
ATOM     36  C   UNL d   1      19.351 -19.531  -0.860  0.00  0.00     0.020 A 
ENDBRANCH  27  30
ENDBRANCH   3  26
TORSDOF 5
ENDMDL
MODEL 4
REMARK VINA RESULT:    -9.737      2.794      4.888
REMARK INTER + INTRA:         -12.758
REMARK INTER:                 -11.228
REMARK INTRA:                  -1.529
REMARK CONF_INDEPENDENT:        1.492
REMARK UNBOUND:                -1.529
REMARK  5 active torsions:
REMARK  status: ('A' for Active; 'I' for Inactive)
REMARK    1  A    between atoms: C_5  and  N_6 
REMARK       I    between atoms: N_6  and  C_7 
REMARK       I    between atoms: C_7  and  N_9 
REMARK    2  A    between atoms: N_9  and  C_10 
REMARK    3  A    between atoms: C_12  and  N_13 
REMARK       I    between atoms: N_13  and  C_14 
REMARK    4  A    between atoms: C_14  and  C_16 
REMARK    5  A    between atoms: C_25  and  N_26 
ROOT
ATOM      1  C   UNL d   1      26.176 -17.268  -0.449  0.00  0.00     0.065 A 
ATOM      2  C   UNL d   1      25.118 -17.969   0.213  0.00  0.00     0.061 A 
ATOM      3  C   UNL d   1      23.765 -17.740  -0.130  0.00  0.00     0.037 A 
ATOM      4  C   UNL d   1      23.502 -16.717  -1.037  0.00  0.00     0.032 A 
ATOM      5  C   UNL d   1      24.521 -16.029  -1.685  0.00  0.00     0.034 A 
ATOM      6  C   UNL d   1      25.870 -16.294  -1.443  0.00  0.00     0.057 A 
ENDROOT
BRANCH   1   7
ATOM      7  N   UNL d   1      27.551 -17.570  -0.118  0.00  0.00    -0.306 N 
ATOM      8  C   UNL d   1      28.419 -16.530   0.185  0.00  0.00     0.325 C 
ATOM      9  N   UNL d   1      29.775 -16.853   0.229  0.00  0.00    -0.307 N 
ATOM     10  O   UNL d   1      27.997 -15.387   0.375  0.00  0.00    -0.247 OA
ATOM     11  H   UNL d   1      30.064 -17.823   0.248  0.00  0.00     0.170 HD
ATOM     12  H   UNL d   1      27.764 -18.495   0.219  0.00  0.00     0.170 HD
BRANCH   9  13
ATOM     13  C   UNL d   1      30.836 -15.865   0.287  0.00  0.00     0.058 A 
ATOM     14  C   UNL d   1      31.076 -15.108   1.449  0.00  0.00     0.032 A 
ATOM     15  C   UNL d   1      32.044 -14.106   1.525  0.00  0.00     0.009 A 
ATOM     16  C   UNL d   1      32.846 -13.831   0.431  0.00  0.00    -0.060 A 
ATOM     17  C   UNL d   1      33.885 -12.754   0.522  0.00  0.00     0.048 C 
ATOM     18  C   UNL d   1      32.648 -14.573  -0.742  0.00  0.00     0.033 A 
ATOM     19  C   UNL d   1      31.641 -15.564  -0.822  0.00  0.00     0.061 A 
ATOM     20 CL   UNL d   1      31.439 -16.386  -2.329  0.00  0.00    -0.082 Cl
ENDBRANCH   9  13
ENDBRANCH   1   7
BRANCH   6  21
ATOM     21  N   UNL d   1      26.769 -15.644  -2.267  0.00  0.00    -0.379 N 
ATOM     22  C   UNL d   1      26.457 -14.461  -3.040  0.00  0.00     0.123 C 
ATOM     23  C   UNL d   1      27.109 -14.723  -4.383  0.00  0.00     0.021 C 
ATOM     24  C   UNL d   1      28.332 -15.563  -4.052  0.00  0.00     0.021 C 
ATOM     25  C   UNL d   1      27.966 -16.324  -2.768  0.00  0.00     0.123 C 
ENDBRANCH   6  21
BRANCH   3  26
ATOM     26  N   UNL d   1      22.698 -18.558   0.376  0.00  0.00    -0.323 N 
ATOM     27  C   UNL d   1      21.410 -18.584  -0.169  0.00  0.00     0.256 C 
ATOM     28  O   UNL d   1      20.982 -17.879  -1.090  0.00  0.00    -0.267 OA
ATOM     29  H   UNL d   1      22.943 -19.268   1.055  0.00  0.00     0.169 HD
BRANCH  27  30
ATOM     30  C   UNL d   1      20.403 -19.536   0.357  0.00  0.00     0.032 A 
ATOM     31  C   UNL d   1      19.435 -20.027  -0.546  0.00  0.00     0.020 A 
ATOM     32  C   UNL d   1      18.307 -20.702  -0.082  0.00  0.00     0.043 A 
ATOM     33  C   UNL d   1      18.186 -20.949   1.278  0.00  0.00     0.116 A 
ATOM     34  F   UNL d   1      17.130 -21.637   1.730  0.00  0.00    -0.206 F 
ATOM     35  C   UNL d   1      19.145 -20.488   2.181  0.00  0.00     0.043 A 
ATOM     36  C   UNL d   1      20.256 -19.769   1.725  0.00  0.00     0.020 A 
ENDBRANCH  27  30
ENDBRANCH   3  26
TORSDOF 5
ENDMDL
MODEL 5
REMARK VINA RESULT:    -9.135      3.811      6.146
REMARK INTER + INTRA:         -12.032
REMARK INTER:                 -10.626
REMARK INTRA:                  -1.405
REMARK CONF_INDEPENDENT:        1.492
REMARK UNBOUND:                -1.405
REMARK  5 active torsions:
REMARK  status: ('A' for Active; 'I' for Inactive)
REMARK    1  A    between atoms: C_5  and  N_6 
REMARK       I    between atoms: N_6  and  C_7 
REMARK       I    between atoms: C_7  and  N_9 
REMARK    2  A    between atoms: N_9  and  C_10 
REMARK    3  A    between atoms: C_12  and  N_13 
REMARK       I    between atoms: N_13  and  C_14 
REMARK    4  A    between atoms: C_14  and  C_16 
REMARK    5  A    between atoms: C_25  and  N_26 
ROOT
ATOM      1  C   UNL d   1      27.004 -16.162  -0.218  0.00  0.00     0.065 A 
ATOM      2  C   UNL d   1      25.658 -16.426   0.188  0.00  0.00     0.061 A 
ATOM      3  C   UNL d   1      24.640 -16.657  -0.767  0.00  0.00     0.037 A 
ATOM      4  C   UNL d   1      24.973 -16.486  -2.107  0.00  0.00     0.032 A 
ATOM      5  C   UNL d   1      26.277 -16.228  -2.514  0.00  0.00     0.034 A 
ATOM      6  C   UNL d   1      27.327 -16.089  -1.604  0.00  0.00     0.057 A 
ENDROOT
BRANCH   1   7
ATOM      7  N   UNL d   1      28.033 -15.991   0.783  0.00  0.00    -0.306 N 
ATOM      8  C   UNL d   1      27.972 -14.900   1.640  0.00  0.00     0.325 C 
ATOM      9  N   UNL d   1      29.118 -14.643   2.392  0.00  0.00    -0.307 N 
ATOM     10  O   UNL d   1      26.961 -14.196   1.698  0.00  0.00    -0.247 OA
ATOM     11  H   UNL d   1      29.851 -15.339   2.452  0.00  0.00     0.170 HD
ATOM     12  H   UNL d   1      28.554 -16.805   1.069  0.00  0.00     0.170 HD
BRANCH   9  13
ATOM     13  C   UNL d   1      29.326 -13.422   3.148  0.00  0.00     0.058 A 
ATOM     14  C   UNL d   1      30.304 -12.481   2.774  0.00  0.00     0.032 A 
ATOM     15  C   UNL d   1      30.578 -11.328   3.509  0.00  0.00     0.009 A 
ATOM     16  C   UNL d   1      29.855 -11.047   4.656  0.00  0.00    -0.060 A 
ATOM     17  C   UNL d   1      30.155  -9.804   5.439  0.00  0.00     0.048 C 
ATOM     18  C   UNL d   1      28.863 -11.953   5.055  0.00  0.00     0.033 A 
ATOM     19  C   UNL d   1      28.614 -13.138   4.324  0.00  0.00     0.061 A 
ATOM     20 CL   UNL d   1      27.407 -14.219   4.927  0.00  0.00    -0.082 Cl
ENDBRANCH   9  13
ENDBRANCH   1   7
BRANCH   6  21
ATOM     21  N   UNL d   1      28.591 -15.988  -2.153  0.00  0.00    -0.379 N 
ATOM     22  C   UNL d   1      28.861 -15.513  -3.494  0.00  0.00     0.123 C 
ATOM     23  C   UNL d   1      29.917 -16.470  -4.012  0.00  0.00     0.021 C 
ATOM     24  C   UNL d   1      30.708 -16.864  -2.776  0.00  0.00     0.021 C 
ATOM     25  C   UNL d   1      29.719 -16.746  -1.606  0.00  0.00     0.123 C 
ENDBRANCH   6  21
BRANCH   3  26
ATOM     26  N   UNL d   1      23.329 -17.110  -0.394  0.00  0.00    -0.323 N 
ATOM     27  C   UNL d   1      22.710 -18.239  -0.940  0.00  0.00     0.256 C 
ATOM     28  O   UNL d   1      23.145 -18.957  -1.847  0.00  0.00    -0.267 OA
ATOM     29  H   UNL d   1      22.907 -16.682   0.421  0.00  0.00     0.169 HD
BRANCH  27  30
ATOM     30  C   UNL d   1      21.397 -18.688  -0.418  0.00  0.00     0.032 A 
ATOM     31  C   UNL d   1      21.300 -18.953   0.966  0.00  0.00     0.020 A 
ATOM     32  C   UNL d   1      20.196 -19.628   1.484  0.00  0.00     0.043 A 
ATOM     33  C   UNL d   1      19.158 -19.973   0.631  0.00  0.00     0.116 A 
ATOM     34  F   UNL d   1      18.073 -20.579   1.127  0.00  0.00    -0.206 F 
ATOM     35  C   UNL d   1      19.230 -19.699  -0.736  0.00  0.00     0.043 A 
ATOM     36  C   UNL d   1      20.357 -19.063  -1.270  0.00  0.00     0.020 A 
ENDBRANCH  27  30
ENDBRANCH   3  26
TORSDOF 5
ENDMDL
MODEL 6
REMARK VINA RESULT:    -8.990      2.248      2.844
REMARK INTER + INTRA:         -11.999
REMARK INTER:                 -10.481
REMARK INTRA:                  -1.518
REMARK CONF_INDEPENDENT:        1.492
REMARK UNBOUND:                -1.518
REMARK  5 active torsions:
REMARK  status: ('A' for Active; 'I' for Inactive)
REMARK    1  A    between atoms: C_5  and  N_6 
REMARK       I    between atoms: N_6  and  C_7 
REMARK       I    between atoms: C_7  and  N_9 
REMARK    2  A    between atoms: N_9  and  C_10 
REMARK    3  A    between atoms: C_12  and  N_13 
REMARK       I    between atoms: N_13  and  C_14 
REMARK    4  A    between atoms: C_14  and  C_16 
REMARK    5  A    between atoms: C_25  and  N_26 
ROOT
ATOM      1  C   UNL d   1      25.516 -16.100  -1.788  0.00  0.00     0.065 A 
ATOM      2  C   UNL d   1      24.224 -16.639  -1.493  0.00  0.00     0.061 A 
ATOM      3  C   UNL d   1      24.036 -17.535  -0.414  0.00  0.00     0.037 A 
ATOM      4  C   UNL d   1      25.174 -17.969   0.259  0.00  0.00     0.032 A 
ATOM      5  C   UNL d   1      26.435 -17.455  -0.020  0.00  0.00     0.034 A 
ATOM      6  C   UNL d   1      26.645 -16.497  -1.014  0.00  0.00     0.057 A 
ENDROOT
BRANCH   1   7
ATOM      7  N   UNL d   1      25.663 -15.141  -2.859  0.00  0.00    -0.306 N 
ATOM      8  C   UNL d   1      26.243 -13.908  -2.591  0.00  0.00     0.325 C 
ATOM      9  N   UNL d   1      26.112 -12.937  -3.584  0.00  0.00    -0.307 N 
ATOM     10  O   UNL d   1      26.812 -13.695  -1.518  0.00  0.00    -0.247 OA
ATOM     11  H   UNL d   1      25.802 -13.200  -4.511  0.00  0.00     0.170 HD
ATOM     12  H   UNL d   1      25.673 -15.487  -3.806  0.00  0.00     0.170 HD
BRANCH   9  13
ATOM     13  C   UNL d   1      26.433 -11.536  -3.387  0.00  0.00     0.058 A 
ATOM     14  C   UNL d   1      25.458 -10.530  -3.519  0.00  0.00     0.032 A 
ATOM     15  C   UNL d   1      25.739  -9.169  -3.400  0.00  0.00     0.009 A 
ATOM     16  C   UNL d   1      27.026  -8.749  -3.111  0.00  0.00    -0.060 A 
ATOM     17  C   UNL d   1      27.320  -7.284  -2.982  0.00  0.00     0.048 C 
ATOM     18  C   UNL d   1      28.025  -9.721  -2.958  0.00  0.00     0.033 A 
ATOM     19  C   UNL d   1      27.739 -11.098  -3.115  0.00  0.00     0.061 A 
ATOM     20 CL   UNL d   1      29.048 -12.215  -2.960  0.00  0.00    -0.082 Cl
ENDBRANCH   9  13
ENDBRANCH   1   7
BRANCH   6  21
ATOM     21  N   UNL d   1      27.919 -15.964  -1.079  0.00  0.00    -0.379 N 
ATOM     22  C   UNL d   1      28.807 -16.115  -2.212  0.00  0.00     0.123 C 
ATOM     23  C   UNL d   1      30.155 -16.402  -1.580  0.00  0.00     0.021 C 
ATOM     24  C   UNL d   1      30.125 -15.642  -0.265  0.00  0.00     0.021 C 
ATOM     25  C   UNL d   1      28.643 -15.579   0.135  0.00  0.00     0.123 C 
ENDBRANCH   6  21
BRANCH   3  26
ATOM     26  N   UNL d   1      22.730 -17.941   0.026  0.00  0.00    -0.323 N 
ATOM     27  C   UNL d   1      21.911 -18.827  -0.681  0.00  0.00     0.256 C 
ATOM     28  O   UNL d   1      22.140 -19.325  -1.789  0.00  0.00    -0.267 OA
ATOM     29  H   UNL d   1      22.466 -17.699   0.973  0.00  0.00     0.169 HD
BRANCH  27  30
ATOM     30  C   UNL d   1      20.621 -19.268  -0.097  0.00  0.00     0.032 A 
ATOM     31  C   UNL d   1      20.609 -19.614   1.272  0.00  0.00     0.020 A 
ATOM     32  C   UNL d   1      19.520 -20.286   1.825  0.00  0.00     0.043 A 
ATOM     33  C   UNL d   1      18.416 -20.547   1.026  0.00  0.00     0.116 A 
ATOM     34  F   UNL d   1      17.346 -21.150   1.560  0.00  0.00    -0.206 F 
ATOM     35  C   UNL d   1      18.405 -20.192  -0.323  0.00  0.00     0.043 A 
ATOM     36  C   UNL d   1      19.515 -19.558  -0.895  0.00  0.00     0.020 A 
ENDBRANCH  27  30
ENDBRANCH   3  26
TORSDOF 5
ENDMDL
MODEL 7
REMARK VINA RESULT:    -8.975      4.850      9.995
REMARK INTER + INTRA:         -11.876
REMARK INTER:                 -10.467
REMARK INTRA:                  -1.409
REMARK CONF_INDEPENDENT:        1.492
REMARK UNBOUND:                -1.409
REMARK  5 active torsions:
REMARK  status: ('A' for Active; 'I' for Inactive)
REMARK    1  A    between atoms: C_5  and  N_6 
REMARK       I    between atoms: N_6  and  C_7 
REMARK       I    between atoms: C_7  and  N_9 
REMARK    2  A    between atoms: N_9  and  C_10 
REMARK    3  A    between atoms: C_12  and  N_13 
REMARK       I    between atoms: N_13  and  C_14 
REMARK    4  A    between atoms: C_14  and  C_16 
REMARK    5  A    between atoms: C_25  and  N_26 
ROOT
ATOM      1  C   UNL d   1      27.072 -13.411  -4.002  0.00  0.00     0.065 A 
ATOM      2  C   UNL d   1      26.308 -12.204  -4.097  0.00  0.00     0.061 A 
ATOM      3  C   UNL d   1      26.277 -11.453  -5.295  0.00  0.00     0.037 A 
ATOM      4  C   UNL d   1      27.120 -11.861  -6.325  0.00  0.00     0.032 A 
ATOM      5  C   UNL d   1      27.867 -13.030  -6.244  0.00  0.00     0.034 A 
ATOM      6  C   UNL d   1      27.849 -13.849  -5.113  0.00  0.00     0.057 A 
ENDROOT
BRANCH   1   7
ATOM      7  N   UNL d   1      27.034 -14.187  -2.783  0.00  0.00    -0.306 N 
ATOM      8  C   UNL d   1      26.079 -15.186  -2.645  0.00  0.00     0.325 C 
ATOM      9  N   UNL d   1      25.917 -15.710  -1.362  0.00  0.00    -0.307 N 
ATOM     10  O   UNL d   1      25.404 -15.556  -3.608  0.00  0.00    -0.247 OA
ATOM     11  H   UNL d   1      26.605 -15.514  -0.645  0.00  0.00     0.170 HD
ATOM     12  H   UNL d   1      27.873 -14.237  -2.228  0.00  0.00     0.170 HD
BRANCH   9  13
ATOM     13  C   UNL d   1      24.817 -16.573  -0.978  0.00  0.00     0.058 A 
ATOM     14  C   UNL d   1      23.482 -16.243  -1.277  0.00  0.00     0.032 A 
ATOM     15  C   UNL d   1      22.392 -17.014  -0.871  0.00  0.00     0.009 A 
ATOM     16  C   UNL d   1      22.595 -18.183  -0.159  0.00  0.00    -0.060 A 
ATOM     17  C   UNL d   1      21.419 -19.007   0.272  0.00  0.00     0.048 C 
ATOM     18  C   UNL d   1      23.912 -18.555   0.148  0.00  0.00     0.033 A 
ATOM     19  C   UNL d   1      25.010 -17.750  -0.238  0.00  0.00     0.061 A 
ATOM     20 CL   UNL d   1      26.591 -18.265   0.234  0.00  0.00    -0.082 Cl
ENDBRANCH   9  13
ENDBRANCH   1   7
BRANCH   6  21
ATOM     21  N   UNL d   1      28.518 -15.053  -5.229  0.00  0.00    -0.379 N 
ATOM     22  C   UNL d   1      28.942 -15.860  -4.105  0.00  0.00     0.123 C 
ATOM     23  C   UNL d   1      30.336 -16.313  -4.489  0.00  0.00     0.021 C 
ATOM     24  C   UNL d   1      30.293 -16.425  -6.004  0.00  0.00     0.021 C 
ATOM     25  C   UNL d   1      29.234 -15.407  -6.457  0.00  0.00     0.123 C 
ENDBRANCH   6  21
BRANCH   3  26
ATOM     26  N   UNL d   1      25.377 -10.350  -5.484  0.00  0.00    -0.323 N 
ATOM     27  C   UNL d   1      25.788  -9.018  -5.602  0.00  0.00     0.256 C 
ATOM     28  O   UNL d   1      26.942  -8.588  -5.493  0.00  0.00    -0.267 OA
ATOM     29  H   UNL d   1      24.414 -10.573  -5.706  0.00  0.00     0.169 HD
BRANCH  27  30
ATOM     30  C   UNL d   1      24.794  -7.960  -5.898  0.00  0.00     0.032 A 
ATOM     31  C   UNL d   1      23.671  -7.862  -5.046  0.00  0.00     0.020 A 
ATOM     32  C   UNL d   1      22.571  -7.086  -5.407  0.00  0.00     0.043 A 
ATOM     33  C   UNL d   1      22.625  -6.351  -6.583  0.00  0.00     0.116 A 
ATOM     34  F   UNL d   1      21.592  -5.566  -6.915  0.00  0.00    -0.206 F 
ATOM     35  C   UNL d   1      23.735  -6.422  -7.425  0.00  0.00     0.043 A 
ATOM     36  C   UNL d   1      24.824  -7.236  -7.090  0.00  0.00     0.020 A 
ENDBRANCH  27  30
ENDBRANCH   3  26
TORSDOF 5
ENDMDL
MODEL 8
REMARK VINA RESULT:    -8.752      4.836     10.209
REMARK INTER + INTRA:         -11.726
REMARK INTER:                 -10.243
REMARK INTRA:                  -1.483
REMARK CONF_INDEPENDENT:        1.492
REMARK UNBOUND:                -1.483
REMARK  5 active torsions:
REMARK  status: ('A' for Active; 'I' for Inactive)
REMARK    1  A    between atoms: C_5  and  N_6 
REMARK       I    between atoms: N_6  and  C_7 
REMARK       I    between atoms: C_7  and  N_9 
REMARK    2  A    between atoms: N_9  and  C_10 
REMARK    3  A    between atoms: C_12  and  N_13 
REMARK       I    between atoms: N_13  and  C_14 
REMARK    4  A    between atoms: C_14  and  C_16 
REMARK    5  A    between atoms: C_25  and  N_26 
ROOT
ATOM      1  C   UNL d   1      27.069 -15.587  -1.573  0.00  0.00     0.065 A 
ATOM      2  C   UNL d   1      27.764 -14.865  -2.595  0.00  0.00     0.061 A 
ATOM      3  C   UNL d   1      27.132 -14.543  -3.818  0.00  0.00     0.037 A 
ATOM      4  C   UNL d   1      25.862 -15.068  -4.037  0.00  0.00     0.032 A 
ATOM      5  C   UNL d   1      25.177 -15.771  -3.053  0.00  0.00     0.034 A 
ATOM      6  C   UNL d   1      25.732 -16.026  -1.798  0.00  0.00     0.057 A 
ENDROOT
BRANCH   1   7
ATOM      7  N   UNL d   1      27.723 -15.847  -0.310  0.00  0.00    -0.306 N 
ATOM      8  C   UNL d   1      27.375 -15.093   0.803  0.00  0.00     0.325 C 
ATOM      9  N   UNL d   1      28.218 -15.202   1.909  0.00  0.00    -0.307 N 
ATOM     10  O   UNL d   1      26.388 -14.354   0.784  0.00  0.00    -0.247 OA
ATOM     11  H   UNL d   1      28.904 -15.946   1.950  0.00  0.00     0.170 HD
ATOM     12  H   UNL d   1      28.138 -16.755  -0.172  0.00  0.00     0.170 HD
BRANCH   9  13
ATOM     13  C   UNL d   1      28.156 -14.319   3.057  0.00  0.00     0.058 A 
ATOM     14  C   UNL d   1      27.979 -14.817   4.362  0.00  0.00     0.032 A 
ATOM     15  C   UNL d   1      27.852 -13.998   5.484  0.00  0.00     0.009 A 
ATOM     16  C   UNL d   1      27.924 -12.622   5.352  0.00  0.00    -0.060 A 
ATOM     17  C   UNL d   1      27.788 -11.749   6.563  0.00  0.00     0.048 C 
ATOM     18  C   UNL d   1      28.113 -12.086   4.070  0.00  0.00     0.033 A 
ATOM     19  C   UNL d   1      28.206 -12.922   2.932  0.00  0.00     0.061 A 
ATOM     20 CL   UNL d   1      28.383 -12.164   1.389  0.00  0.00    -0.082 Cl
ENDBRANCH   9  13
ENDBRANCH   1   7
BRANCH   6  21
ATOM     21  N   UNL d   1      24.884 -16.600  -0.869  0.00  0.00    -0.379 N 
ATOM     22  C   UNL d   1      25.209 -17.773  -0.087  0.00  0.00     0.123 C 
ATOM     23  C   UNL d   1      23.935 -18.594  -0.117  0.00  0.00     0.021 C 
ATOM     24  C   UNL d   1      22.823 -17.561  -0.191  0.00  0.00     0.021 C 
ATOM     25  C   UNL d   1      23.442 -16.347  -0.901  0.00  0.00     0.123 C 
ENDBRANCH   6  21
BRANCH   3  26
ATOM     26  N   UNL d   1      27.732 -13.661  -4.781  0.00  0.00    -0.323 N 
ATOM     27  C   UNL d   1      28.149 -14.064  -6.054  0.00  0.00     0.256 C 
ATOM     28  O   UNL d   1      28.134 -15.213  -6.509  0.00  0.00    -0.267 OA
ATOM     29  H   UNL d   1      27.698 -12.669  -4.582  0.00  0.00     0.169 HD
BRANCH  27  30
ATOM     30  C   UNL d   1      28.663 -13.060  -7.016  0.00  0.00     0.032 A 
ATOM     31  C   UNL d   1      27.777 -12.043  -7.435  0.00  0.00     0.020 A 
ATOM     32  C   UNL d   1      28.089 -11.234  -8.526  0.00  0.00     0.043 A 
ATOM     33  C   UNL d   1      29.318 -11.394  -9.150  0.00  0.00     0.116 A 
ATOM     34  F   UNL d   1      29.647 -10.590 -10.169  0.00  0.00    -0.206 F 
ATOM     35  C   UNL d   1      30.212 -12.380  -8.735  0.00  0.00     0.043 A 
ATOM     36  C   UNL d   1      29.884 -13.227  -7.669  0.00  0.00     0.020 A 
ENDBRANCH  27  30
ENDBRANCH   3  26
TORSDOF 5
ENDMDL
MODEL 9
REMARK VINA RESULT:    -8.473      1.818      2.257
REMARK INTER + INTRA:         -11.702
REMARK INTER:                  -9.964
REMARK INTRA:                  -1.738
REMARK CONF_INDEPENDENT:        1.492
REMARK UNBOUND:                -1.738
REMARK  5 active torsions:
REMARK  status: ('A' for Active; 'I' for Inactive)
REMARK    1  A    between atoms: C_5  and  N_6 
REMARK       I    between atoms: N_6  and  C_7 
REMARK       I    between atoms: C_7  and  N_9 
REMARK    2  A    between atoms: N_9  and  C_10 
REMARK    3  A    between atoms: C_12  and  N_13 
REMARK       I    between atoms: N_13  and  C_14 
REMARK    4  A    between atoms: C_14  and  C_16 
REMARK    5  A    between atoms: C_25  and  N_26 
ROOT
ATOM      1  C   UNL d   1      25.917 -16.477  -1.520  0.00  0.00     0.065 A 
ATOM      2  C   UNL d   1      24.788 -17.346  -1.382  0.00  0.00     0.061 A 
ATOM      3  C   UNL d   1      24.639 -18.173  -0.245  0.00  0.00     0.037 A 
ATOM      4  C   UNL d   1      25.693 -18.204   0.663  0.00  0.00     0.032 A 
ATOM      5  C   UNL d   1      26.795 -17.366   0.540  0.00  0.00     0.034 A 
ATOM      6  C   UNL d   1      26.932 -16.467  -0.520  0.00  0.00     0.057 A 
ENDROOT
BRANCH   1   7
ATOM      7  N   UNL d   1      26.009 -15.600  -2.666  0.00  0.00    -0.306 N 
ATOM      8  C   UNL d   1      27.194 -15.550  -3.389  0.00  0.00     0.325 C 
ATOM      9  N   UNL d   1      27.314 -14.503  -4.302  0.00  0.00    -0.307 N 
ATOM     10  O   UNL d   1      28.087 -16.378  -3.199  0.00  0.00    -0.247 OA
ATOM     11  H   UNL d   1      26.499 -13.958  -4.558  0.00  0.00     0.170 HD
ATOM     12  H   UNL d   1      25.153 -15.319  -3.116  0.00  0.00     0.170 HD
BRANCH   9  13
ATOM     13  C   UNL d   1      28.556 -14.149  -4.962  0.00  0.00     0.058 A 
ATOM     14  C   UNL d   1      29.013 -14.844  -6.097  0.00  0.00     0.032 A 
ATOM     15  C   UNL d   1      30.231 -14.576  -6.722  0.00  0.00     0.009 A 
ATOM     16  C   UNL d   1      31.049 -13.566  -6.245  0.00  0.00    -0.060 A 
ATOM     17  C   UNL d   1      32.356 -13.283  -6.923  0.00  0.00     0.048 C 
ATOM     18  C   UNL d   1      30.624 -12.841  -5.122  0.00  0.00     0.033 A 
ATOM     19  C   UNL d   1      29.403 -13.141  -4.474  0.00  0.00     0.061 A 
ATOM     20 CL   UNL d   1      28.993 -12.227  -3.066  0.00  0.00    -0.082 Cl
ENDBRANCH   9  13
ENDBRANCH   1   7
BRANCH   6  21
ATOM     21  N   UNL d   1      27.998 -15.592  -0.434  0.00  0.00    -0.379 N 
ATOM     22  C   UNL d   1      29.357 -15.926  -0.803  0.00  0.00     0.123 C 
ATOM     23  C   UNL d   1      30.194 -15.314   0.303  0.00  0.00     0.021 C 
ATOM     24  C   UNL d   1      29.413 -14.082   0.729  0.00  0.00     0.021 C 
ATOM     25  C   UNL d   1      27.942 -14.410   0.429  0.00  0.00     0.123 C 
ENDBRANCH   6  21
BRANCH   3  26
ATOM     26  N   UNL d   1      23.433 -18.909   0.014  0.00  0.00    -0.323 N 
ATOM     27  C   UNL d   1      22.149 -18.423  -0.255  0.00  0.00     0.256 C 
ATOM     28  O   UNL d   1      21.857 -17.297  -0.674  0.00  0.00    -0.267 OA
ATOM     29  H   UNL d   1      23.532 -19.889   0.250  0.00  0.00     0.169 HD
BRANCH  27  30
ATOM     30  C   UNL d   1      20.969 -19.295  -0.049  0.00  0.00     0.032 A 
ATOM     31  C   UNL d   1      20.031 -19.384  -1.102  0.00  0.00     0.020 A 
ATOM     32  C   UNL d   1      18.779 -19.957  -0.891  0.00  0.00     0.043 A 
ATOM     33  C   UNL d   1      18.492 -20.505   0.351  0.00  0.00     0.116 A 
ATOM     34  F   UNL d   1      17.309 -21.100   0.550  0.00  0.00    -0.206 F 
ATOM     35  C   UNL d   1      19.415 -20.443   1.395  0.00  0.00     0.043 A 
ATOM     36  C   UNL d   1      20.658 -19.828   1.202  0.00  0.00     0.020 A 
ENDBRANCH  27  30
ENDBRANCH   3  26
TORSDOF 5
ENDMDL
