MODEL 1
REMARK VINA RESULT:    -8.224      0.000      0.000
REMARK INTER + INTRA:         -10.628
REMARK INTER:                  -9.715
REMARK INTRA:                  -0.912
REMARK CONF_INDEPENDENT:        1.492
REMARK UNBOUND:                -0.912
REMARK  5 active torsions:
REMARK  status: ('A' for Active; 'I' for Inactive)
REMARK    1  A    between atoms: S_2  and  C_3 
REMARK    2  A    between atoms: C_8  and  N_9 
REMARK       I    between atoms: N_9  and  C_10 
REMARK    3  A    between atoms: C_12  and  C_10 
REMARK    4  A    between atoms: C_12  and  N_14 
REMARK       I    between atoms: N_14  and  C_15 
REMARK    5  A    between atoms: C_15  and  C_17 
ROOT
ATOM      1  N   UNL d   1      26.070 -16.078  -1.312  0.00  0.00    -0.324 N 
ATOM      2  C   UNL d   1      24.973 -16.897  -1.106  0.00  0.00     0.244 C 
ATOM      3  O   UNL d   1      24.081 -16.992  -1.949  0.00  0.00    -0.271 OA
ATOM      4  H   UNL d   1      26.435 -15.582  -0.509  0.00  0.00     0.169 HD
ENDROOT
BRANCH   2   5
ATOM      5  C   UNL d   1      24.857 -17.695   0.226  0.00  0.00     0.173 C 
ATOM      6  C   UNL d   1      26.076 -18.575   0.520  0.00  0.00     0.042 C 
BRANCH   5   7
ATOM      7  N   UNL d   1      23.615 -18.515   0.248  0.00  0.00    -0.344 N 
ATOM      8  C   UNL d   1      22.356 -17.996  -0.034  0.00  0.00     0.252 C 
ATOM      9  O   UNL d   1      22.107 -16.830  -0.303  0.00  0.00    -0.268 OA
ATOM     10  H   UNL d   1      23.666 -19.461   0.601  0.00  0.00     0.163 HD
BRANCH   8  11
ATOM     11  C   UNL d   1      21.200 -18.920   0.071  0.00  0.00     0.032 A 
ATOM     12  C   UNL d   1      20.404 -19.201  -1.053  0.00  0.00     0.017 A 
ATOM     13  C   UNL d   1      19.180 -19.862  -0.894  0.00  0.00     0.001 A 
ATOM     14  C   UNL d   1      18.772 -20.273   0.375  0.00  0.00     0.000 A 
ATOM     15  C   UNL d   1      19.572 -20.006   1.488  0.00  0.00     0.001 A 
ATOM     16  C   UNL d   1      20.781 -19.325   1.338  0.00  0.00     0.017 A 
ENDBRANCH   8  11
ENDBRANCH   5   7
ENDBRANCH   2   5
BRANCH   1  17
ATOM     17  C   UNL d   1      26.437 -15.562  -2.596  0.00  0.00     0.051 C 
ATOM     18  C   UNL d   1      25.402 -14.979  -3.357  0.00  0.00     0.031 C 
ATOM     19  C   UNL d   1      25.645 -14.481  -4.644  0.00  0.00     0.002 C 
ATOM     20  C   UNL d   1      26.901 -14.620  -5.218  0.00  0.00     0.002 C 
ATOM     21  C   UNL d   1      27.922 -15.219  -4.493  0.00  0.00     0.021 C 
ATOM     22  C   UNL d   1      27.744 -15.574  -3.147  0.00  0.00     0.026 C 
BRANCH  22  23
ATOM     23  S   UNL d   1      29.341 -15.815  -2.338  0.00  0.00    -0.132 SA
ATOM     24  C   UNL d   1      28.952 -17.060  -1.086  0.00  0.00     0.095 C 
ENDBRANCH  22  23
ENDBRANCH   1  17
TORSDOF 5
ENDMDL
MODEL 2
REMARK VINA RESULT:    -7.299      3.679      8.373
REMARK INTER + INTRA:          -9.817
REMARK INTER:                  -8.790
REMARK INTRA:                  -1.026
REMARK CONF_INDEPENDENT:        1.492
REMARK UNBOUND:                -1.026
REMARK  5 active torsions:
REMARK  status: ('A' for Active; 'I' for Inactive)
REMARK    1  A    between atoms: S_2  and  C_3 
REMARK    2  A    between atoms: C_8  and  N_9 
REMARK       I    between atoms: N_9  and  C_10 
REMARK    3  A    between atoms: C_12  and  C_10 
REMARK    4  A    between atoms: C_12  and  N_14 
REMARK       I    between atoms: N_14  and  C_15 
REMARK    5  A    between atoms: C_15  and  C_17 
ROOT
ATOM      1  N   UNL d   1      25.173 -16.327  -2.681  0.00  0.00    -0.324 N 
ATOM      2  C   UNL d   1      25.567 -15.047  -3.031  0.00  0.00     0.244 C 
ATOM      3  O   UNL d   1      25.928 -14.236  -2.178  0.00  0.00    -0.271 OA
ATOM      4  H   UNL d   1      24.405 -16.734  -3.201  0.00  0.00     0.169 HD
ENDROOT
BRANCH   2   5
ATOM      5  C   UNL d   1      25.532 -14.621  -4.528  0.00  0.00     0.173 C 
ATOM      6  C   UNL d   1      26.773 -15.051  -5.316  0.00  0.00     0.042 C 
BRANCH   5   7
ATOM      7  N   UNL d   1      25.325 -13.153  -4.658  0.00  0.00    -0.344 N 
ATOM      8  C   UNL d   1      26.371 -12.237  -4.695  0.00  0.00     0.252 C 
ATOM      9  O   UNL d   1      27.560 -12.506  -4.602  0.00  0.00    -0.268 OA
ATOM     10  H   UNL d   1      24.383 -12.789  -4.596  0.00  0.00     0.163 HD
BRANCH   8  11
ATOM     11  C   UNL d   1      26.015 -10.800  -4.782  0.00  0.00     0.032 A 
ATOM     12  C   UNL d   1      25.730 -10.061  -3.621  0.00  0.00     0.017 A 
ATOM     13  C   UNL d   1      25.155  -8.789  -3.726  0.00  0.00     0.001 A 
ATOM     14  C   UNL d   1      24.899  -8.244  -4.985  0.00  0.00     0.000 A 
ATOM     15  C   UNL d   1      25.197  -8.974  -6.137  0.00  0.00     0.001 A 
ATOM     16  C   UNL d   1      25.748 -10.253  -6.037  0.00  0.00     0.017 A 
ENDBRANCH   8  11
ENDBRANCH   5   7
ENDBRANCH   2   5
BRANCH   1  17
ATOM     17  C   UNL d   1      25.462 -16.921  -1.412  0.00  0.00     0.051 C 
ATOM     18  C   UNL d   1      26.818 -16.937  -1.021  0.00  0.00     0.031 C 
ATOM     19  C   UNL d   1      27.216 -17.532   0.184  0.00  0.00     0.002 C 
ATOM     20  C   UNL d   1      26.282 -18.180   0.980  0.00  0.00     0.002 C 
ATOM     21  C   UNL d   1      24.949 -18.200   0.594  0.00  0.00     0.021 C 
ATOM     22  C   UNL d   1      24.506 -17.472  -0.520  0.00  0.00     0.026 C 
BRANCH  22  23
ATOM     23  S   UNL d   1      22.714 -17.249  -0.462  0.00  0.00    -0.132 SA
ATOM     24  C   UNL d   1      22.111 -18.948  -0.611  0.00  0.00     0.095 C 
ENDBRANCH  22  23
ENDBRANCH   1  17
TORSDOF 5
ENDMDL
MODEL 3
REMARK VINA RESULT:    -7.034      2.885      8.358
REMARK INTER + INTRA:         -10.465
REMARK INTER:                  -8.526
REMARK INTRA:                  -1.939
REMARK CONF_INDEPENDENT:        1.492
REMARK UNBOUND:                -1.939
REMARK  5 active torsions:
REMARK  status: ('A' for Active; 'I' for Inactive)
REMARK    1  A    between atoms: S_2  and  C_3 
REMARK    2  A    between atoms: C_8  and  N_9 
REMARK       I    between atoms: N_9  and  C_10 
REMARK    3  A    between atoms: C_12  and  C_10 
REMARK    4  A    between atoms: C_12  and  N_14 
REMARK       I    between atoms: N_14  and  C_15 
REMARK    5  A    between atoms: C_15  and  C_17 
ROOT
ATOM      1  N   UNL d   1      26.000 -15.524  -2.559  0.00  0.00    -0.324 N 
ATOM      2  C   UNL d   1      26.109 -14.159  -2.354  0.00  0.00     0.244 C 
ATOM      3  O   UNL d   1      25.987 -13.672  -1.230  0.00  0.00    -0.271 OA
ATOM      4  H   UNL d   1      25.546 -15.829  -3.411  0.00  0.00     0.169 HD
ENDROOT
BRANCH   2   5
ATOM      5  C   UNL d   1      26.372 -13.224  -3.571  0.00  0.00     0.173 C 
ATOM      6  C   UNL d   1      25.155 -13.054  -4.486  0.00  0.00     0.042 C 
BRANCH   5   7
ATOM      7  N   UNL d   1      27.544 -13.693  -4.359  0.00  0.00    -0.344 N 
ATOM      8  C   UNL d   1      27.515 -14.824  -5.167  0.00  0.00     0.252 C 
ATOM      9  O   UNL d   1      26.560 -15.575  -5.313  0.00  0.00    -0.268 OA
ATOM     10  H   UNL d   1      28.438 -13.245  -4.210  0.00  0.00     0.163 HD
BRANCH   8  11
ATOM     11  C   UNL d   1      28.772 -15.200  -5.859  0.00  0.00     0.032 A 
ATOM     12  C   UNL d   1      29.508 -16.323  -5.447  0.00  0.00     0.017 A 
ATOM     13  C   UNL d   1      30.807 -16.523  -5.931  0.00  0.00     0.001 A 
ATOM     14  C   UNL d   1      31.352 -15.625  -6.850  0.00  0.00     0.000 A 
ATOM     15  C   UNL d   1      30.611 -14.518  -7.270  0.00  0.00     0.001 A 
ATOM     16  C   UNL d   1      29.326 -14.301  -6.771  0.00  0.00     0.017 A 
ENDBRANCH   8  11
ENDBRANCH   5   7
ENDBRANCH   2   5
BRANCH   1  17
ATOM     17  C   UNL d   1      26.081 -16.488  -1.505  0.00  0.00     0.051 C 
ATOM     18  C   UNL d   1      27.375 -16.801  -1.039  0.00  0.00     0.031 C 
ATOM     19  C   UNL d   1      27.570 -17.763  -0.039  0.00  0.00     0.002 C 
ATOM     20  C   UNL d   1      26.488 -18.475   0.460  0.00  0.00     0.002 C 
ATOM     21  C   UNL d   1      25.212 -18.200  -0.010  0.00  0.00     0.021 C 
ATOM     22  C   UNL d   1      24.977 -17.131  -0.888  0.00  0.00     0.026 C 
BRANCH  22  23
ATOM     23  S   UNL d   1      23.226 -16.688  -0.895  0.00  0.00    -0.132 SA
ATOM     24  C   UNL d   1      22.431 -18.261  -0.487  0.00  0.00     0.095 C 
ENDBRANCH  22  23
ENDBRANCH   1  17
TORSDOF 5
ENDMDL
MODEL 4
REMARK VINA RESULT:    -7.029      2.823      7.861
REMARK INTER + INTRA:         -10.437
REMARK INTER:                  -8.521
REMARK INTRA:                  -1.916
REMARK CONF_INDEPENDENT:        1.492
REMARK UNBOUND:                -1.916
REMARK  5 active torsions:
REMARK  status: ('A' for Active; 'I' for Inactive)
REMARK    1  A    between atoms: S_2  and  C_3 
REMARK    2  A    between atoms: C_8  and  N_9 
REMARK       I    between atoms: N_9  and  C_10 
REMARK    3  A    between atoms: C_12  and  C_10 
REMARK    4  A    between atoms: C_12  and  N_14 
REMARK       I    between atoms: N_14  and  C_15 
REMARK    5  A    between atoms: C_15  and  C_17 
ROOT
ATOM      1  N   UNL d   1      26.002 -15.836  -2.581  0.00  0.00    -0.324 N 
ATOM      2  C   UNL d   1      25.392 -14.643  -2.929  0.00  0.00     0.244 C 
ATOM      3  O   UNL d   1      24.186 -14.469  -2.753  0.00  0.00    -0.271 OA
ATOM      4  H   UNL d   1      26.736 -16.176  -3.190  0.00  0.00     0.169 HD
ENDROOT
BRANCH   2   5
ATOM      5  C   UNL d   1      26.245 -13.510  -3.573  0.00  0.00     0.173 C 
ATOM      6  C   UNL d   1      25.509 -12.742  -4.674  0.00  0.00     0.042 C 
BRANCH   5   7
ATOM      7  N   UNL d   1      27.532 -14.045  -4.093  0.00  0.00    -0.344 N 
ATOM      8  C   UNL d   1      27.611 -15.126  -4.964  0.00  0.00     0.252 C 
ATOM      9  O   UNL d   1      26.664 -15.777  -5.385  0.00  0.00    -0.268 OA
ATOM     10  H   UNL d   1      28.396 -13.689  -3.706  0.00  0.00     0.163 HD
BRANCH   8  11
ATOM     11  C   UNL d   1      28.965 -15.581  -5.366  0.00  0.00     0.032 A 
ATOM     12  C   UNL d   1      29.515 -15.189  -6.598  0.00  0.00     0.017 A 
ATOM     13  C   UNL d   1      30.671 -15.818  -7.078  0.00  0.00     0.001 A 
ATOM     14  C   UNL d   1      31.292 -16.807  -6.315  0.00  0.00     0.000 A 
ATOM     15  C   UNL d   1      30.751 -17.183  -5.084  0.00  0.00     0.001 A 
ATOM     16  C   UNL d   1      29.586 -16.577  -4.612  0.00  0.00     0.017 A 
ENDBRANCH   8  11
ENDBRANCH   5   7
ENDBRANCH   2   5
BRANCH   1  17
ATOM     17  C   UNL d   1      25.405 -16.801  -1.709  0.00  0.00     0.051 C 
ATOM     18  C   UNL d   1      24.087 -17.195  -2.020  0.00  0.00     0.031 C 
ATOM     19  C   UNL d   1      23.394 -18.103  -1.207  0.00  0.00     0.002 C 
ATOM     20  C   UNL d   1      23.977 -18.575  -0.039  0.00  0.00     0.002 C 
ATOM     21  C   UNL d   1      25.262 -18.172   0.296  0.00  0.00     0.021 C 
ATOM     22  C   UNL d   1      26.032 -17.397  -0.584  0.00  0.00     0.026 C 
BRANCH  22  23
ATOM     23  S   UNL d   1      27.781 -17.484  -0.144  0.00  0.00    -0.132 SA
ATOM     24  C   UNL d   1      28.291 -15.752  -0.253  0.00  0.00     0.095 C 
ENDBRANCH  22  23
ENDBRANCH   1  17
TORSDOF 5
ENDMDL
MODEL 5
REMARK VINA RESULT:    -6.905      4.426      7.308
REMARK INTER + INTRA:         -10.257
REMARK INTER:                  -8.397
REMARK INTRA:                  -1.860
REMARK CONF_INDEPENDENT:        1.492
REMARK UNBOUND:                -1.860
REMARK  5 active torsions:
REMARK  status: ('A' for Active; 'I' for Inactive)
REMARK    1  A    between atoms: S_2  and  C_3 
REMARK    2  A    between atoms: C_8  and  N_9 
REMARK       I    between atoms: N_9  and  C_10 
REMARK    3  A    between atoms: C_12  and  C_10 
REMARK    4  A    between atoms: C_12  and  N_14 
REMARK       I    between atoms: N_14  and  C_15 
REMARK    5  A    between atoms: C_15  and  C_17 
ROOT
ATOM      1  N   UNL d   1      26.701 -16.201   0.330  0.00  0.00    -0.324 N 
ATOM      2  C   UNL d   1      27.990 -16.349  -0.154  0.00  0.00     0.244 C 
ATOM      3  O   UNL d   1      28.287 -17.280  -0.902  0.00  0.00    -0.271 OA
ATOM      4  H   UNL d   1      26.599 -15.869   1.281  0.00  0.00     0.169 HD
ENDROOT
BRANCH   2   5
ATOM      5  C   UNL d   1      29.087 -15.329   0.274  0.00  0.00     0.173 C 
ATOM      6  C   UNL d   1      30.512 -15.799  -0.032  0.00  0.00     0.042 C 
BRANCH   5   7
ATOM      7  N   UNL d   1      28.959 -14.986   1.717  0.00  0.00    -0.344 N 
ATOM      8  C   UNL d   1      27.907 -14.236   2.230  0.00  0.00     0.252 C 
ATOM      9  O   UNL d   1      26.989 -13.752   1.581  0.00  0.00    -0.268 OA
ATOM     10  H   UNL d   1      29.729 -15.200   2.336  0.00  0.00     0.163 HD
BRANCH   8  11
ATOM     11  C   UNL d   1      27.931 -13.931   3.682  0.00  0.00     0.032 A 
ATOM     12  C   UNL d   1      27.828 -12.606   4.137  0.00  0.00     0.017 A 
ATOM     13  C   UNL d   1      28.105 -12.304   5.476  0.00  0.00     0.001 A 
ATOM     14  C   UNL d   1      28.447 -13.326   6.363  0.00  0.00     0.000 A 
ATOM     15  C   UNL d   1      28.533 -14.645   5.911  0.00  0.00     0.001 A 
ATOM     16  C   UNL d   1      28.283 -14.947   4.571  0.00  0.00     0.017 A 
ENDBRANCH   8  11
ENDBRANCH   5   7
ENDBRANCH   2   5
BRANCH   1  17
ATOM     17  C   UNL d   1      25.567 -16.866  -0.234  0.00  0.00     0.051 C 
ATOM     18  C   UNL d   1      24.947 -17.842   0.574  0.00  0.00     0.031 C 
ATOM     19  C   UNL d   1      23.854 -18.583   0.102  0.00  0.00     0.002 C 
ATOM     20  C   UNL d   1      23.410 -18.412  -1.202  0.00  0.00     0.002 C 
ATOM     21  C   UNL d   1      24.030 -17.477  -2.020  0.00  0.00     0.021 C 
ATOM     22  C   UNL d   1      25.014 -16.613  -1.516  0.00  0.00     0.026 C 
BRANCH  22  23
ATOM     23  S   UNL d   1      25.238 -15.196  -2.615  0.00  0.00    -0.132 SA
ATOM     24  C   UNL d   1      26.958 -15.387  -3.140  0.00  0.00     0.095 C 
ENDBRANCH  22  23
ENDBRANCH   1  17
TORSDOF 5
ENDMDL
MODEL 6
REMARK VINA RESULT:    -6.842      4.223      8.985
REMARK INTER + INTRA:         -10.130
REMARK INTER:                  -8.333
REMARK INTRA:                  -1.797
REMARK CONF_INDEPENDENT:        1.492
REMARK UNBOUND:                -1.797
REMARK  5 active torsions:
REMARK  status: ('A' for Active; 'I' for Inactive)
REMARK    1  A    between atoms: S_2  and  C_3 
REMARK    2  A    between atoms: C_8  and  N_9 
REMARK       I    between atoms: N_9  and  C_10 
REMARK    3  A    between atoms: C_12  and  C_10 
REMARK    4  A    between atoms: C_12  and  N_14 
REMARK       I    between atoms: N_14  and  C_15 
REMARK    5  A    between atoms: C_15  and  C_17 
ROOT
ATOM      1  N   UNL d   1      27.787 -15.473  -3.700  0.00  0.00    -0.324 N 
ATOM      2  C   UNL d   1      27.588 -15.200  -5.042  0.00  0.00     0.244 C 
ATOM      3  O   UNL d   1      26.506 -15.422  -5.585  0.00  0.00    -0.271 OA
ATOM      4  H   UNL d   1      28.695 -15.830  -3.429  0.00  0.00     0.169 HD
ENDROOT
BRANCH   2   5
ATOM      5  C   UNL d   1      28.763 -14.620  -5.884  0.00  0.00     0.173 C 
ATOM      6  C   UNL d   1      28.326 -13.549  -6.888  0.00  0.00     0.042 C 
BRANCH   5   7
ATOM      7  N   UNL d   1      29.503 -15.706  -6.582  0.00  0.00    -0.344 N 
ATOM      8  C   UNL d   1      30.030 -16.813  -5.925  0.00  0.00     0.252 C 
ATOM      9  O   UNL d   1      29.979 -17.021  -4.721  0.00  0.00    -0.268 OA
ATOM     10  H   UNL d   1      29.742 -15.581  -7.557  0.00  0.00     0.163 HD
BRANCH   8  11
ATOM     11  C   UNL d   1      30.783 -17.795  -6.741  0.00  0.00     0.032 A 
ATOM     12  C   UNL d   1      31.623 -17.367  -7.784  0.00  0.00     0.017 A 
ATOM     13  C   UNL d   1      32.126 -18.296  -8.702  0.00  0.00     0.001 A 
ATOM     14  C   UNL d   1      31.821 -19.650  -8.559  0.00  0.00     0.000 A 
ATOM     15  C   UNL d   1      30.999 -20.075  -7.513  0.00  0.00     0.001 A 
ATOM     16  C   UNL d   1      30.475 -19.150  -6.609  0.00  0.00     0.017 A 
ENDBRANCH   8  11
ENDBRANCH   5   7
ENDBRANCH   2   5
BRANCH   1  17
ATOM     17  C   UNL d   1      26.718 -15.697  -2.775  0.00  0.00     0.051 C 
ATOM     18  C   UNL d   1      27.017 -16.496  -1.652  0.00  0.00     0.031 C 
ATOM     19  C   UNL d   1      26.031 -16.811  -0.707  0.00  0.00     0.002 C 
ATOM     20  C   UNL d   1      24.722 -16.396  -0.903  0.00  0.00     0.002 C 
ATOM     21  C   UNL d   1      24.405 -15.635  -2.020  0.00  0.00     0.021 C 
ATOM     22  C   UNL d   1      25.405 -15.171  -2.888  0.00  0.00     0.026 C 
BRANCH  22  23
ATOM     23  S   UNL d   1      24.786 -13.806  -3.897  0.00  0.00    -0.132 SA
ATOM     24  C   UNL d   1      25.912 -12.461  -3.455  0.00  0.00     0.095 C 
ENDBRANCH  22  23
ENDBRANCH   1  17
TORSDOF 5
ENDMDL
MODEL 7
REMARK VINA RESULT:    -6.423      2.948      4.951
REMARK INTER + INTRA:          -9.919
REMARK INTER:                  -7.915
REMARK INTRA:                  -2.004
REMARK CONF_INDEPENDENT:        1.492
REMARK UNBOUND:                -2.004
REMARK  5 active torsions:
REMARK  status: ('A' for Active; 'I' for Inactive)
REMARK    1  A    between atoms: S_2  and  C_3 
REMARK    2  A    between atoms: C_8  and  N_9 
REMARK       I    between atoms: N_9  and  C_10 
REMARK    3  A    between atoms: C_12  and  C_10 
REMARK    4  A    between atoms: C_12  and  N_14 
REMARK       I    between atoms: N_14  and  C_15 
REMARK    5  A    between atoms: C_15  and  C_17 
ROOT
ATOM      1  N   UNL d   1      28.225 -15.273  -4.104  0.00  0.00    -0.324 N 
ATOM      2  C   UNL d   1      27.171 -14.950  -4.940  0.00  0.00     0.244 C 
ATOM      3  O   UNL d   1      27.213 -15.200  -6.145  0.00  0.00    -0.271 OA
ATOM      4  H   UNL d   1      28.442 -14.622  -3.359  0.00  0.00     0.169 HD
ENDROOT
BRANCH   2   5
ATOM      5  C   UNL d   1      25.918 -14.240  -4.348  0.00  0.00     0.173 C 
ATOM      6  C   UNL d   1      26.211 -12.841  -3.797  0.00  0.00     0.042 C 
BRANCH   5   7
ATOM      7  N   UNL d   1      25.276 -15.080  -3.301  0.00  0.00    -0.344 N 
ATOM      8  C   UNL d   1      25.892 -15.395  -2.094  0.00  0.00     0.252 C 
ATOM      9  O   UNL d   1      27.017 -15.055  -1.755  0.00  0.00    -0.268 OA
ATOM     10  H   UNL d   1      24.405 -15.545  -3.519  0.00  0.00     0.163 HD
BRANCH   8  11
ATOM     11  C   UNL d   1      25.152 -16.280  -1.162  0.00  0.00     0.032 A 
ATOM     12  C   UNL d   1      25.838 -17.204  -0.356  0.00  0.00     0.017 A 
ATOM     13  C   UNL d   1      25.127 -18.200   0.325  0.00  0.00     0.001 A 
ATOM     14  C   UNL d   1      23.736 -18.249   0.230  0.00  0.00     0.000 A 
ATOM     15  C   UNL d   1      23.056 -17.319  -0.559  0.00  0.00     0.001 A 
ATOM     16  C   UNL d   1      23.762 -16.340  -1.260  0.00  0.00     0.017 A 
ENDBRANCH   8  11
ENDBRANCH   5   7
ENDBRANCH   2   5
BRANCH   1  17
ATOM     17  C   UNL d   1      29.262 -16.192  -4.462  0.00  0.00     0.051 C 
ATOM     18  C   UNL d   1      29.747 -16.106  -5.784  0.00  0.00     0.031 C 
ATOM     19  C   UNL d   1      30.732 -16.987  -6.251  0.00  0.00     0.002 C 
ATOM     20  C   UNL d   1      31.195 -18.009  -5.433  0.00  0.00     0.002 C 
ATOM     21  C   UNL d   1      30.705 -18.125  -4.140  0.00  0.00     0.021 C 
ATOM     22  C   UNL d   1      29.844 -17.157  -3.600  0.00  0.00     0.026 C 
BRANCH  22  23
ATOM     23  S   UNL d   1      29.810 -17.271  -1.798  0.00  0.00    -0.132 SA
ATOM     24  C   UNL d   1      29.976 -15.540  -1.301  0.00  0.00     0.095 C 
ENDBRANCH  22  23
ENDBRANCH   1  17
TORSDOF 5
ENDMDL
MODEL 8
REMARK VINA RESULT:    -6.315      2.553      3.846
REMARK INTER + INTRA:          -9.830
REMARK INTER:                  -7.807
REMARK INTRA:                  -2.023
REMARK CONF_INDEPENDENT:        1.492
REMARK UNBOUND:                -2.023
REMARK  5 active torsions:
REMARK  status: ('A' for Active; 'I' for Inactive)
REMARK    1  A    between atoms: S_2  and  C_3 
REMARK    2  A    between atoms: C_8  and  N_9 
REMARK       I    between atoms: N_9  and  C_10 
REMARK    3  A    between atoms: C_12  and  C_10 
REMARK    4  A    between atoms: C_12  and  N_14 
REMARK       I    between atoms: N_14  and  C_15 
REMARK    5  A    between atoms: C_15  and  C_17 
ROOT
ATOM      1  N   UNL d   1      27.427 -15.510  -2.242  0.00  0.00    -0.324 N 
ATOM      2  C   UNL d   1      27.984 -14.782  -1.204  0.00  0.00     0.244 C 
ATOM      3  O   UNL d   1      29.051 -14.186  -1.345  0.00  0.00    -0.271 OA
ATOM      4  H   UNL d   1      26.957 -16.374  -2.002  0.00  0.00     0.169 HD
ENDROOT
BRANCH   2   5
ATOM      5  C   UNL d   1      27.254 -14.735   0.171  0.00  0.00     0.173 C 
ATOM      6  C   UNL d   1      28.094 -15.285   1.327  0.00  0.00     0.042 C 
BRANCH   5   7
ATOM      7  N   UNL d   1      25.947 -15.443   0.103  0.00  0.00    -0.344 N 
ATOM      8  C   UNL d   1      25.833 -16.811  -0.119  0.00  0.00     0.252 C 
ATOM      9  O   UNL d   1      26.761 -17.585  -0.307  0.00  0.00    -0.268 OA
ATOM     10  H   UNL d   1      25.098 -14.893   0.096  0.00  0.00     0.163 HD
BRANCH   8  11
ATOM     11  C   UNL d   1      24.464 -17.375  -0.207  0.00  0.00     0.032 A 
ATOM     12  C   UNL d   1      24.259 -18.766  -0.177  0.00  0.00     0.017 A 
ATOM     13  C   UNL d   1      23.007 -19.294  -0.512  0.00  0.00     0.001 A 
ATOM     14  C   UNL d   1      21.956 -18.437  -0.840  0.00  0.00     0.000 A 
ATOM     15  C   UNL d   1      22.158 -17.055  -0.854  0.00  0.00     0.001 A 
ATOM     16  C   UNL d   1      23.411 -16.525  -0.544  0.00  0.00     0.017 A 
ENDBRANCH   8  11
ENDBRANCH   5   7
ENDBRANCH   2   5
BRANCH   1  17
ATOM     17  C   UNL d   1      27.827 -15.366  -3.608  0.00  0.00     0.051 C 
ATOM     18  C   UNL d   1      29.039 -15.988  -3.976  0.00  0.00     0.031 C 
ATOM     19  C   UNL d   1      29.543 -15.873  -5.279  0.00  0.00     0.002 C 
ATOM     20  C   UNL d   1      28.886 -15.082  -6.211  0.00  0.00     0.002 C 
ATOM     21  C   UNL d   1      27.709 -14.439  -5.855  0.00  0.00     0.021 C 
ATOM     22  C   UNL d   1      27.102 -14.672  -4.612  0.00  0.00     0.026 C 
BRANCH  22  23
ATOM     23  S   UNL d   1      25.373 -14.151  -4.641  0.00  0.00    -0.132 SA
ATOM     24  C   UNL d   1      24.851 -14.459  -2.937  0.00  0.00     0.095 C 
ENDBRANCH  22  23
ENDBRANCH   1  17
TORSDOF 5
ENDMDL
MODEL 9
REMARK VINA RESULT:    -6.273      4.371      5.573
REMARK INTER + INTRA:          -9.650
REMARK INTER:                  -7.765
REMARK INTRA:                  -1.885
REMARK CONF_INDEPENDENT:        1.492
REMARK UNBOUND:                -1.885
REMARK  5 active torsions:
REMARK  status: ('A' for Active; 'I' for Inactive)
REMARK    1  A    between atoms: S_2  and  C_3 
REMARK    2  A    between atoms: C_8  and  N_9 
REMARK       I    between atoms: N_9  and  C_10 
REMARK    3  A    between atoms: C_12  and  C_10 
REMARK    4  A    between atoms: C_12  and  N_14 
REMARK       I    between atoms: N_14  and  C_15 
REMARK    5  A    between atoms: C_15  and  C_17 
ROOT
ATOM      1  N   UNL d   1      27.294 -14.599   1.057  0.00  0.00    -0.324 N 
ATOM      2  C   UNL d   1      28.453 -15.264   0.696  0.00  0.00     0.244 C 
ATOM      3  O   UNL d   1      29.559 -14.747   0.849  0.00  0.00    -0.271 OA
ATOM      4  H   UNL d   1      26.484 -14.722   0.462  0.00  0.00     0.169 HD
ENDROOT
BRANCH   2   5
ATOM      5  C   UNL d   1      28.352 -16.685   0.065  0.00  0.00     0.173 C 
ATOM      6  C   UNL d   1      28.910 -16.763  -1.359  0.00  0.00     0.042 C 
BRANCH   5   7
ATOM      7  N   UNL d   1      26.948 -17.179   0.093  0.00  0.00    -0.344 N 
ATOM      8  C   UNL d   1      25.929 -16.623  -0.672  0.00  0.00     0.252 C 
ATOM      9  O   UNL d   1      26.042 -15.667  -1.428  0.00  0.00    -0.268 OA
ATOM     10  H   UNL d   1      26.692 -17.869   0.787  0.00  0.00     0.163 HD
BRANCH   8  11
ATOM     11  C   UNL d   1      24.568 -17.189  -0.509  0.00  0.00     0.032 A 
ATOM     12  C   UNL d   1      24.380 -18.574  -0.366  0.00  0.00     0.017 A 
ATOM     13  C   UNL d   1      23.094 -19.119  -0.467  0.00  0.00     0.001 A 
ATOM     14  C   UNL d   1      21.999 -18.280  -0.675  0.00  0.00     0.000 A 
ATOM     15  C   UNL d   1      22.186 -16.902  -0.801  0.00  0.00     0.001 A 
ATOM     16  C   UNL d   1      23.469 -16.357  -0.726  0.00  0.00     0.017 A 
ENDBRANCH   8  11
ENDBRANCH   5   7
ENDBRANCH   2   5
BRANCH   1  17
ATOM     17  C   UNL d   1      27.278 -13.457   1.920  0.00  0.00     0.051 C 
ATOM     18  C   UNL d   1      26.827 -12.248   1.351  0.00  0.00     0.031 C 
ATOM     19  C   UNL d   1      26.811 -11.061   2.096  0.00  0.00     0.002 C 
ATOM     20  C   UNL d   1      27.309 -11.047   3.392  0.00  0.00     0.002 C 
ATOM     21  C   UNL d   1      27.784 -12.223   3.955  0.00  0.00     0.021 C 
ATOM     22  C   UNL d   1      27.656 -13.450   3.287  0.00  0.00     0.026 C 
BRANCH  22  23
ATOM     23  S   UNL d   1      27.853 -14.825   4.442  0.00  0.00    -0.132 SA
ATOM     24  C   UNL d   1      28.846 -14.081   5.758  0.00  0.00     0.095 C 
ENDBRANCH  22  23
ENDBRANCH   1  17
TORSDOF 5
ENDMDL
