MODEL 1
REMARK VINA RESULT:    -6.920      0.000      0.000
REMARK INTER + INTRA:         -10.943
REMARK INTER:                  -9.605
REMARK INTRA:                  -1.338
REMARK CONF_INDEPENDENT:        2.685
REMARK UNBOUND:                -1.338
REMARK  9 active torsions:
REMARK  status: ('A' for Active; 'I' for Inactive)
REMARK       I    between atoms: C_2  and  N_3 
REMARK       I    between atoms: C_2  and  N_15 
REMARK    1  A    between atoms: N_3  and  C_4 
REMARK    2  A    between atoms: C_4  and  C_5 
REMARK    3  A    between atoms: C_5  and  O_6 
REMARK    4  A    between atoms: C_5  and  C_7 
REMARK    5  A    between atoms: C_7  and  O_8 
REMARK    6  A    between atoms: O_8  and  C_9 
REMARK    7  A    between atoms: N_15  and  O_16 
REMARK    8  A    between atoms: O_16  and  C_17 
REMARK    9  A    between atoms: C_17  and  C_18 
ROOT
ATOM      1  O   UNL d   1      24.643 -18.575   0.501  0.00  0.00    -0.245 OA
ATOM      2  C   UNL d   1      23.679 -18.014  -0.027  0.00  0.00     0.340 C 
ATOM      3  N   UNL d   1      23.749 -16.744  -0.521  0.00  0.00    -0.339 N 
ATOM      4  N   UNL d   1      22.498 -18.668  -0.141  0.00  0.00    -0.216 N 
ATOM      5  H   UNL d   1      22.893 -16.322  -0.864  0.00  0.00     0.164 HD
ATOM      6  H   UNL d   1      22.445 -19.617   0.205  0.00  0.00     0.199 HD
ENDROOT
BRANCH   3   7
ATOM      7  C   UNL d   1      24.972 -15.952  -0.411  0.00  0.00     0.158 C 
BRANCH   7   8
ATOM      8  C   UNL d   1      25.948 -16.139  -1.587  0.00  0.00     0.160 C 
BRANCH   8   9
ATOM      9  O   UNL d   1      26.750 -17.304  -1.341  0.00  0.00    -0.392 OA
ATOM     10  H   UNL d   1      26.299 -17.838  -0.664  0.00  0.00     0.210 HD
ENDBRANCH   8   9
BRANCH   8  11
ATOM     11  C   UNL d   1      25.190 -16.268  -2.932  0.00  0.00     0.209 C 
BRANCH  11  12
ATOM     12  O   UNL d   1      26.086 -15.947  -4.004  0.00  0.00    -0.349 OA
BRANCH  12  13
ATOM     13  C   UNL d   1      26.114 -14.648  -4.434  0.00  0.00     0.068 A 
ATOM     14  C   UNL d   1      27.127 -14.340  -5.348  0.00  0.00     0.037 A 
ATOM     15  C   UNL d   1      27.372 -13.016  -5.721  0.00  0.00     0.003 A 
ATOM     16  C   UNL d   1      26.562 -11.996  -5.231  0.00  0.00     0.000 A 
ATOM     17  C   UNL d   1      25.531 -12.299  -4.343  0.00  0.00     0.003 A 
ATOM     18  C   UNL d   1      25.312 -13.622  -3.938  0.00  0.00     0.037 A 
ENDBRANCH  12  13
ENDBRANCH  11  12
ENDBRANCH   8  11
ENDBRANCH   7   8
ENDBRANCH   3   7
BRANCH   4  19
ATOM     19  O   UNL d   1      21.367 -18.088  -0.739  0.00  0.00    -0.272 OA
BRANCH  19  20
ATOM     20  C   UNL d   1      20.453 -19.111  -1.194  0.00  0.00     0.240 C 
BRANCH  20  21
ATOM     21  C   UNL d   1      19.806 -19.776   0.002  0.00  0.00    -0.032 A 
ATOM     22  C   UNL d   1      18.701 -20.630  -0.145  0.00  0.00     0.009 A 
ATOM     23  C   UNL d   1      18.030 -21.113   0.984  0.00  0.00     0.001 A 
ATOM     24  C   UNL d   1      18.509 -20.824   2.261  0.00  0.00     0.000 A 
ATOM     25  C   UNL d   1      19.645 -20.037   2.415  0.00  0.00     0.001 A 
ATOM     26  C   UNL d   1      20.288 -19.523   1.294  0.00  0.00     0.009 A 
ENDBRANCH  20  21
ENDBRANCH  19  20
ENDBRANCH   4  19
TORSDOF 9
ENDMDL
MODEL 2
REMARK VINA RESULT:    -6.403     11.802     13.977
REMARK INTER + INTRA:         -11.212
REMARK INTER:                  -9.088
REMARK INTRA:                  -2.124
REMARK CONF_INDEPENDENT:        2.685
REMARK UNBOUND:                -2.124
REMARK  9 active torsions:
REMARK  status: ('A' for Active; 'I' for Inactive)
REMARK       I    between atoms: C_2  and  N_3 
REMARK       I    between atoms: C_2  and  N_15 
REMARK    1  A    between atoms: N_3  and  C_4 
REMARK    2  A    between atoms: C_4  and  C_5 
REMARK    3  A    between atoms: C_5  and  O_6 
REMARK    4  A    between atoms: C_5  and  C_7 
REMARK    5  A    between atoms: C_7  and  O_8 
REMARK    6  A    between atoms: O_8  and  C_9 
REMARK    7  A    between atoms: N_15  and  O_16 
REMARK    8  A    between atoms: O_16  and  C_17 
REMARK    9  A    between atoms: C_17  and  C_18 
ROOT
ATOM      1  O   UNL d   1      30.830 -21.153   6.510  0.00  0.00    -0.245 OA
ATOM      2  C   UNL d   1      31.882 -21.594   6.037  0.00  0.00     0.340 C 
ATOM      3  N   UNL d   1      32.158 -21.558   4.701  0.00  0.00    -0.339 N 
ATOM      4  N   UNL d   1      32.817 -22.132   6.857  0.00  0.00    -0.216 N 
ATOM      5  H   UNL d   1      33.004 -22.016   4.381  0.00  0.00     0.164 HD
ATOM      6  H   UNL d   1      32.627 -22.144   7.851  0.00  0.00     0.199 HD
ENDROOT
BRANCH   3   7
ATOM      7  C   UNL d   1      31.193 -21.027   3.741  0.00  0.00     0.158 C 
BRANCH   7   8
ATOM      8  C   UNL d   1      31.577 -21.264   2.269  0.00  0.00     0.160 C 
BRANCH   8   9
ATOM      9  O   UNL d   1      32.764 -22.071   2.227  0.00  0.00    -0.392 OA
ATOM     10  H   UNL d   1      32.505 -22.991   2.408  0.00  0.00     0.210 HD
ENDBRANCH   8   9
BRANCH   8  11
ATOM     11  C   UNL d   1      30.424 -21.942   1.488  0.00  0.00     0.209 C 
BRANCH  11  12
ATOM     12  O   UNL d   1      30.762 -23.316   1.258  0.00  0.00    -0.349 OA
BRANCH  12  13
ATOM     13  C   UNL d   1      30.261 -23.908   0.130  0.00  0.00     0.068 A 
ATOM     14  C   UNL d   1      30.042 -25.286   0.223  0.00  0.00     0.037 A 
ATOM     15  C   UNL d   1      29.706 -26.032  -0.910  0.00  0.00     0.003 A 
ATOM     16  C   UNL d   1      29.525 -25.393  -2.133  0.00  0.00     0.000 A 
ATOM     17  C   UNL d   1      29.713 -24.014  -2.227  0.00  0.00     0.003 A 
ATOM     18  C   UNL d   1      30.088 -23.273  -1.099  0.00  0.00     0.037 A 
ENDBRANCH  12  13
ENDBRANCH  11  12
ENDBRANCH   8  11
ENDBRANCH   7   8
ENDBRANCH   3   7
BRANCH   4  19
ATOM     19  O   UNL d   1      34.036 -22.643   6.382  0.00  0.00    -0.272 OA
BRANCH  19  20
ATOM     20  C   UNL d   1      34.603 -23.569   7.336  0.00  0.00     0.240 C 
BRANCH  20  21
ATOM     21  C   UNL d   1      35.224 -22.797   8.480  0.00  0.00    -0.032 A 
ATOM     22  C   UNL d   1      35.731 -23.451   9.614  0.00  0.00     0.009 A 
ATOM     23  C   UNL d   1      36.163 -22.710  10.720  0.00  0.00     0.001 A 
ATOM     24  C   UNL d   1      36.179 -21.317  10.666  0.00  0.00     0.000 A 
ATOM     25  C   UNL d   1      35.745 -20.660   9.519  0.00  0.00     0.001 A 
ATOM     26  C   UNL d   1      35.277 -21.396   8.435  0.00  0.00     0.009 A 
ENDBRANCH  20  21
ENDBRANCH  19  20
ENDBRANCH   4  19
TORSDOF 9
ENDMDL
MODEL 3
REMARK VINA RESULT:    -6.139      7.133      9.930
REMARK INTER + INTRA:         -10.864
REMARK INTER:                  -8.824
REMARK INTRA:                  -2.040
REMARK CONF_INDEPENDENT:        2.685
REMARK UNBOUND:                -2.040
REMARK  9 active torsions:
REMARK  status: ('A' for Active; 'I' for Inactive)
REMARK       I    between atoms: C_2  and  N_3 
REMARK       I    between atoms: C_2  and  N_15 
REMARK    1  A    between atoms: N_3  and  C_4 
REMARK    2  A    between atoms: C_4  and  C_5 
REMARK    3  A    between atoms: C_5  and  O_6 
REMARK    4  A    between atoms: C_5  and  C_7 
REMARK    5  A    between atoms: C_7  and  O_8 
REMARK    6  A    between atoms: O_8  and  C_9 
REMARK    7  A    between atoms: N_15  and  O_16 
REMARK    8  A    between atoms: O_16  and  C_17 
REMARK    9  A    between atoms: C_17  and  C_18 
ROOT
ATOM      1  O   UNL d   1      27.084 -13.083   1.359  0.00  0.00    -0.245 OA
ATOM      2  C   UNL d   1      27.417 -14.233   1.657  0.00  0.00     0.340 C 
ATOM      3  N   UNL d   1      27.803 -14.583   2.918  0.00  0.00    -0.339 N 
ATOM      4  N   UNL d   1      27.397 -15.206   0.714  0.00  0.00    -0.216 N 
ATOM      5  H   UNL d   1      28.141 -15.528   3.064  0.00  0.00     0.164 HD
ATOM      6  H   UNL d   1      27.094 -14.958  -0.219  0.00  0.00     0.199 HD
ENDROOT
BRANCH   3   7
ATOM      7  C   UNL d   1      27.886 -13.593   3.989  0.00  0.00     0.158 C 
BRANCH   7   8
ATOM      8  C   UNL d   1      27.785 -14.189   5.404  0.00  0.00     0.160 C 
BRANCH   8   9
ATOM      9  O   UNL d   1      28.157 -15.575   5.349  0.00  0.00    -0.392 OA
ATOM     10  H   UNL d   1      28.530 -15.817   6.214  0.00  0.00     0.210 HD
ENDBRANCH   8   9
BRANCH   8  11
ATOM     11  C   UNL d   1      28.683 -13.419   6.405  0.00  0.00     0.209 C 
BRANCH  11  12
ATOM     12  O   UNL d   1      29.105 -14.318   7.438  0.00  0.00    -0.349 OA
BRANCH  12  13
ATOM     13  C   UNL d   1      28.905 -13.929   8.735  0.00  0.00     0.068 A 
ATOM     14  C   UNL d   1      29.346 -14.831   9.708  0.00  0.00     0.037 A 
ATOM     15  C   UNL d   1      29.038 -14.632  11.056  0.00  0.00     0.003 A 
ATOM     16  C   UNL d   1      28.339 -13.494  11.448  0.00  0.00     0.000 A 
ATOM     17  C   UNL d   1      27.921 -12.575  10.486  0.00  0.00     0.003 A 
ATOM     18  C   UNL d   1      28.196 -12.795   9.130  0.00  0.00     0.037 A 
ENDBRANCH  12  13
ENDBRANCH  11  12
ENDBRANCH   8  11
ENDBRANCH   7   8
ENDBRANCH   3   7
BRANCH   4  19
ATOM     19  O   UNL d   1      27.756 -16.536   0.991  0.00  0.00    -0.272 OA
BRANCH  19  20
ATOM     20  C   UNL d   1      27.314 -17.412  -0.071  0.00  0.00     0.240 C 
BRANCH  20  21
ATOM     21  C   UNL d   1      25.809 -17.323  -0.204  0.00  0.00    -0.032 A 
ATOM     22  C   UNL d   1      24.961 -18.204   0.485  0.00  0.00     0.009 A 
ATOM     23  C   UNL d   1      23.584 -18.198   0.230  0.00  0.00     0.001 A 
ATOM     24  C   UNL d   1      23.036 -17.256  -0.639  0.00  0.00     0.000 A 
ATOM     25  C   UNL d   1      23.861 -16.333  -1.272  0.00  0.00     0.001 A 
ATOM     26  C   UNL d   1      25.234 -16.364  -1.051  0.00  0.00     0.009 A 
ENDBRANCH  20  21
ENDBRANCH  19  20
ENDBRANCH   4  19
TORSDOF 9
ENDMDL
MODEL 4
REMARK VINA RESULT:    -5.981      1.551      2.328
REMARK INTER + INTRA:         -11.120
REMARK INTER:                  -8.666
REMARK INTRA:                  -2.455
REMARK CONF_INDEPENDENT:        2.685
REMARK UNBOUND:                -2.455
REMARK  9 active torsions:
REMARK  status: ('A' for Active; 'I' for Inactive)
REMARK       I    between atoms: C_2  and  N_3 
REMARK       I    between atoms: C_2  and  N_15 
REMARK    1  A    between atoms: N_3  and  C_4 
REMARK    2  A    between atoms: C_4  and  C_5 
REMARK    3  A    between atoms: C_5  and  O_6 
REMARK    4  A    between atoms: C_5  and  C_7 
REMARK    5  A    between atoms: C_7  and  O_8 
REMARK    6  A    between atoms: O_8  and  C_9 
REMARK    7  A    between atoms: N_15  and  O_16 
REMARK    8  A    between atoms: O_16  and  C_17 
REMARK    9  A    between atoms: C_17  and  C_18 
ROOT
ATOM      1  O   UNL d   1      24.672 -17.362  -2.604  0.00  0.00    -0.245 OA
ATOM      2  C   UNL d   1      24.127 -17.859  -1.614  0.00  0.00     0.340 C 
ATOM      3  N   UNL d   1      24.356 -17.408  -0.346  0.00  0.00    -0.339 N 
ATOM      4  N   UNL d   1      23.257 -18.886  -1.767  0.00  0.00    -0.216 N 
ATOM      5  H   UNL d   1      23.936 -17.921   0.421  0.00  0.00     0.164 HD
ATOM      6  H   UNL d   1      23.068 -19.213  -2.706  0.00  0.00     0.199 HD
ENDROOT
BRANCH   3   7
ATOM      7  C   UNL d   1      25.304 -16.327  -0.085  0.00  0.00     0.158 C 
BRANCH   7   8
ATOM      8  C   UNL d   1      26.779 -16.766  -0.110  0.00  0.00     0.160 C 
BRANCH   8   9
ATOM      9  O   UNL d   1      26.949 -17.751  -1.141  0.00  0.00    -0.392 OA
ATOM     10  H   UNL d   1      26.773 -17.321  -1.995  0.00  0.00     0.210 HD
ENDBRANCH   8   9
BRANCH   8  11
ATOM     11  C   UNL d   1      27.722 -15.558  -0.343  0.00  0.00     0.209 C 
BRANCH  11  12
ATOM     12  O   UNL d   1      28.102 -15.525  -1.725  0.00  0.00    -0.349 OA
BRANCH  12  13
ATOM     13  C   UNL d   1      27.197 -15.013  -2.616  0.00  0.00     0.068 A 
ATOM     14  C   UNL d   1      26.450 -13.924  -2.155  0.00  0.00     0.037 A 
ATOM     15  C   UNL d   1      25.376 -13.430  -2.899  0.00  0.00     0.003 A 
ATOM     16  C   UNL d   1      25.081 -13.983  -4.142  0.00  0.00     0.000 A 
ATOM     17  C   UNL d   1      25.840 -15.050  -4.622  0.00  0.00     0.003 A 
ATOM     18  C   UNL d   1      26.892 -15.570  -3.857  0.00  0.00     0.037 A 
ENDBRANCH  12  13
ENDBRANCH  11  12
ENDBRANCH   8  11
ENDBRANCH   7   8
ENDBRANCH   3   7
BRANCH   4  19
ATOM     19  O   UNL d   1      22.599 -19.488  -0.682  0.00  0.00    -0.272 OA
BRANCH  19  20
ATOM     20  C   UNL d   1      21.660 -18.566  -0.084  0.00  0.00     0.240 C 
BRANCH  20  21
ATOM     21  C   UNL d   1      20.443 -19.327   0.396  0.00  0.00    -0.032 A 
ATOM     22  C   UNL d   1      20.264 -19.637   1.754  0.00  0.00     0.009 A 
ATOM     23  C   UNL d   1      19.210 -20.468   2.152  0.00  0.00     0.001 A 
ATOM     24  C   UNL d   1      18.278 -20.915   1.217  0.00  0.00     0.000 A 
ATOM     25  C   UNL d   1      18.407 -20.555  -0.120  0.00  0.00     0.001 A 
ATOM     26  C   UNL d   1      19.478 -19.763  -0.523  0.00  0.00     0.009 A 
ENDBRANCH  20  21
ENDBRANCH  19  20
ENDBRANCH   4  19
TORSDOF 9
ENDMDL
MODEL 5
REMARK VINA RESULT:    -5.897      4.199      9.088
REMARK INTER + INTRA:         -10.992
REMARK INTER:                  -8.582
REMARK INTRA:                  -2.410
REMARK CONF_INDEPENDENT:        2.685
REMARK UNBOUND:                -2.410
REMARK  9 active torsions:
REMARK  status: ('A' for Active; 'I' for Inactive)
REMARK       I    between atoms: C_2  and  N_3 
REMARK       I    between atoms: C_2  and  N_15 
REMARK    1  A    between atoms: N_3  and  C_4 
REMARK    2  A    between atoms: C_4  and  C_5 
REMARK    3  A    between atoms: C_5  and  O_6 
REMARK    4  A    between atoms: C_5  and  C_7 
REMARK    5  A    between atoms: C_7  and  O_8 
REMARK    6  A    between atoms: O_8  and  C_9 
REMARK    7  A    between atoms: N_15  and  O_16 
REMARK    8  A    between atoms: O_16  and  C_17 
REMARK    9  A    between atoms: C_17  and  C_18 
ROOT
ATOM      1  O   UNL d   1      26.547 -15.447  -5.654  0.00  0.00    -0.245 OA
ATOM      2  C   UNL d   1      27.544 -15.096  -5.017  0.00  0.00     0.340 C 
ATOM      3  N   UNL d   1      27.622 -13.892  -4.378  0.00  0.00    -0.339 N 
ATOM      4  N   UNL d   1      28.612 -15.925  -4.926  0.00  0.00    -0.216 N 
ATOM      5  H   UNL d   1      28.504 -13.642  -3.946  0.00  0.00     0.164 HD
ATOM      6  H   UNL d   1      28.554 -16.827  -5.381  0.00  0.00     0.199 HD
ENDROOT
BRANCH   3   7
ATOM      7  C   UNL d   1      26.531 -12.923  -4.451  0.00  0.00     0.158 C 
BRANCH   7   8
ATOM      8  C   UNL d   1      25.245 -13.371  -3.734  0.00  0.00     0.160 C 
BRANCH   8   9
ATOM      9  O   UNL d   1      24.450 -14.141  -4.649  0.00  0.00    -0.392 OA
ATOM     10  H   UNL d   1      24.783 -15.055  -4.634  0.00  0.00     0.210 HD
ENDBRANCH   8   9
BRANCH   8  11
ATOM     11  C   UNL d   1      25.567 -14.192  -2.460  0.00  0.00     0.209 C 
BRANCH  11  12
ATOM     12  O   UNL d   1      24.846 -15.429  -2.510  0.00  0.00    -0.349 OA
BRANCH  12  13
ATOM     13  C   UNL d   1      25.029 -16.308  -1.477  0.00  0.00     0.068 A 
ATOM     14  C   UNL d   1      26.281 -16.253  -0.856  0.00  0.00     0.037 A 
ATOM     15  C   UNL d   1      26.653 -17.215   0.086  0.00  0.00     0.003 A 
ATOM     16  C   UNL d   1      25.748 -18.204   0.462  0.00  0.00     0.000 A 
ATOM     17  C   UNL d   1      24.487 -18.248  -0.131  0.00  0.00     0.003 A 
ATOM     18  C   UNL d   1      24.130 -17.306  -1.105  0.00  0.00     0.037 A 
ENDBRANCH  12  13
ENDBRANCH  11  12
ENDBRANCH   8  11
ENDBRANCH   7   8
ENDBRANCH   3   7
BRANCH   4  19
ATOM     19  O   UNL d   1      29.772 -15.588  -4.209  0.00  0.00    -0.272 OA
BRANCH  19  20
ATOM     20  C   UNL d   1      30.952 -15.839  -5.006  0.00  0.00     0.240 C 
BRANCH  20  21
ATOM     21  C   UNL d   1      30.884 -17.238  -5.578  0.00  0.00    -0.032 A 
ATOM     22  C   UNL d   1      31.098 -17.481  -6.945  0.00  0.00     0.009 A 
ATOM     23  C   UNL d   1      30.883 -18.759  -7.474  0.00  0.00     0.001 A 
ATOM     24  C   UNL d   1      30.547 -19.819  -6.633  0.00  0.00     0.000 A 
ATOM     25  C   UNL d   1      30.403 -19.603  -5.267  0.00  0.00     0.001 A 
ATOM     26  C   UNL d   1      30.576 -18.324  -4.746  0.00  0.00     0.009 A 
ENDBRANCH  20  21
ENDBRANCH  19  20
ENDBRANCH   4  19
TORSDOF 9
ENDMDL
MODEL 6
REMARK VINA RESULT:    -5.579      3.726      5.345
REMARK INTER + INTRA:         -11.236
REMARK INTER:                  -8.264
REMARK INTRA:                  -2.972
REMARK CONF_INDEPENDENT:        2.685
REMARK UNBOUND:                -2.972
REMARK  9 active torsions:
REMARK  status: ('A' for Active; 'I' for Inactive)
REMARK       I    between atoms: C_2  and  N_3 
REMARK       I    between atoms: C_2  and  N_15 
REMARK    1  A    between atoms: N_3  and  C_4 
REMARK    2  A    between atoms: C_4  and  C_5 
REMARK    3  A    between atoms: C_5  and  O_6 
REMARK    4  A    between atoms: C_5  and  C_7 
REMARK    5  A    between atoms: C_7  and  O_8 
REMARK    6  A    between atoms: O_8  and  C_9 
REMARK    7  A    between atoms: N_15  and  O_16 
REMARK    8  A    between atoms: O_16  and  C_17 
REMARK    9  A    between atoms: C_17  and  C_18 
ROOT
ATOM      1  O   UNL d   1      31.207 -17.457  -1.090  0.00  0.00    -0.245 OA
ATOM      2  C   UNL d   1      30.055 -17.253  -1.484  0.00  0.00     0.340 C 
ATOM      3  N   UNL d   1      29.782 -16.742  -2.720  0.00  0.00    -0.339 N 
ATOM      4  N   UNL d   1      29.005 -17.548  -0.681  0.00  0.00    -0.216 N 
ATOM      5  H   UNL d   1      28.816 -16.525  -2.939  0.00  0.00     0.164 HD
ATOM      6  H   UNL d   1      29.200 -17.945   0.230  0.00  0.00     0.199 HD
ENDROOT
BRANCH   3   7
ATOM      7  C   UNL d   1      30.853 -16.365  -3.639  0.00  0.00     0.158 C 
BRANCH   7   8
ATOM      8  C   UNL d   1      30.404 -16.235  -5.106  0.00  0.00     0.160 C 
BRANCH   8   9
ATOM      9  O   UNL d   1      30.062 -17.539  -5.601  0.00  0.00    -0.392 OA
ATOM     10  H   UNL d   1      29.117 -17.685  -5.423  0.00  0.00     0.210 HD
ENDBRANCH   8   9
BRANCH   8  11
ATOM     11  C   UNL d   1      29.206 -15.263  -5.245  0.00  0.00     0.209 C 
BRANCH  11  12
ATOM     12  O   UNL d   1      28.004 -15.950  -4.875  0.00  0.00    -0.349 OA
BRANCH  12  13
ATOM     13  C   UNL d   1      27.075 -15.252  -4.151  0.00  0.00     0.068 A 
ATOM     14  C   UNL d   1      25.906 -14.916  -4.840  0.00  0.00     0.037 A 
ATOM     15  C   UNL d   1      24.965 -14.054  -4.269  0.00  0.00     0.003 A 
ATOM     16  C   UNL d   1      25.159 -13.573  -2.977  0.00  0.00     0.000 A 
ATOM     17  C   UNL d   1      26.309 -13.928  -2.273  0.00  0.00     0.003 A 
ATOM     18  C   UNL d   1      27.270 -14.760  -2.861  0.00  0.00     0.037 A 
ENDBRANCH  12  13
ENDBRANCH  11  12
ENDBRANCH   8  11
ENDBRANCH   7   8
ENDBRANCH   3   7
BRANCH   4  19
ATOM     19  O   UNL d   1      27.671 -17.347  -1.074  0.00  0.00    -0.272 OA
BRANCH  19  20
ATOM     20  C   UNL d   1      26.872 -16.914   0.050  0.00  0.00     0.240 C 
BRANCH  20  21
ATOM     21  C   UNL d   1      25.419 -17.252  -0.205  0.00  0.00    -0.032 A 
ATOM     22  C   UNL d   1      24.952 -18.575  -0.133  0.00  0.00     0.009 A 
ATOM     23  C   UNL d   1      23.641 -18.880  -0.519  0.00  0.00     0.001 A 
ATOM     24  C   UNL d   1      22.764 -17.861  -0.888  0.00  0.00     0.000 A 
ATOM     25  C   UNL d   1      23.197 -16.540  -0.894  0.00  0.00     0.001 A 
ATOM     26  C   UNL d   1      24.512 -16.240  -0.550  0.00  0.00     0.009 A 
ENDBRANCH  20  21
ENDBRANCH  19  20
ENDBRANCH   4  19
TORSDOF 9
ENDMDL
MODEL 7
REMARK VINA RESULT:    -5.403      3.388      5.007
REMARK INTER + INTRA:         -11.200
REMARK INTER:                  -8.088
REMARK INTRA:                  -3.112
REMARK CONF_INDEPENDENT:        2.685
REMARK UNBOUND:                -3.112
REMARK  9 active torsions:
REMARK  status: ('A' for Active; 'I' for Inactive)
REMARK       I    between atoms: C_2  and  N_3 
REMARK       I    between atoms: C_2  and  N_15 
REMARK    1  A    between atoms: N_3  and  C_4 
REMARK    2  A    between atoms: C_4  and  C_5 
REMARK    3  A    between atoms: C_5  and  O_6 
REMARK    4  A    between atoms: C_5  and  C_7 
REMARK    5  A    between atoms: C_7  and  O_8 
REMARK    6  A    between atoms: O_8  and  C_9 
REMARK    7  A    between atoms: N_15  and  O_16 
REMARK    8  A    between atoms: O_16  and  C_17 
REMARK    9  A    between atoms: C_17  and  C_18 
ROOT
ATOM      1  O   UNL d   1      28.948 -13.729  -1.317  0.00  0.00    -0.245 OA
ATOM      2  C   UNL d   1      28.552 -14.854  -1.634  0.00  0.00     0.340 C 
ATOM      3  N   UNL d   1      28.917 -15.458  -2.802  0.00  0.00    -0.339 N 
ATOM      4  N   UNL d   1      27.730 -15.539  -0.803  0.00  0.00    -0.216 N 
ATOM      5  H   UNL d   1      28.485 -16.347  -3.030  0.00  0.00     0.164 HD
ATOM      6  H   UNL d   1      27.471 -15.105   0.073  0.00  0.00     0.199 HD
ENDROOT
BRANCH   3   7
ATOM      7  C   UNL d   1      29.773 -14.780  -3.773  0.00  0.00     0.158 C 
BRANCH   7   8
ATOM      8  C   UNL d   1      29.830 -15.468  -5.148  0.00  0.00     0.160 C 
BRANCH   8   9
ATOM      9  O   UNL d   1      29.589 -16.873  -4.972  0.00  0.00    -0.392 OA
ATOM     10  H   UNL d   1      28.667 -17.049  -5.223  0.00  0.00     0.210 HD
ENDBRANCH   8   9
BRANCH   8  11
ATOM     11  C   UNL d   1      28.801 -14.853  -6.129  0.00  0.00     0.209 C 
BRANCH  11  12
ATOM     12  O   UNL d   1      27.523 -15.463  -5.905  0.00  0.00    -0.349 OA
BRANCH  12  13
ATOM     13  C   UNL d   1      26.669 -14.838  -5.037  0.00  0.00     0.068 A 
ATOM     14  C   UNL d   1      26.701 -13.440  -5.065  0.00  0.00     0.037 A 
ATOM     15  C   UNL d   1      26.012 -12.692  -4.106  0.00  0.00     0.003 A 
ATOM     16  C   UNL d   1      25.234 -13.338  -3.150  0.00  0.00     0.000 A 
ATOM     17  C   UNL d   1      25.174 -14.731  -3.135  0.00  0.00     0.003 A 
ATOM     18  C   UNL d   1      25.896 -15.481  -4.072  0.00  0.00     0.037 A 
ENDBRANCH  12  13
ENDBRANCH  11  12
ENDBRANCH   8  11
ENDBRANCH   7   8
ENDBRANCH   3   7
BRANCH   4  19
ATOM     19  O   UNL d   1      27.252 -16.826  -1.104  0.00  0.00    -0.272 OA
BRANCH  19  20
ATOM     20  C   UNL d   1      26.609 -17.410   0.052  0.00  0.00     0.240 C 
BRANCH  20  21
ATOM     21  C   UNL d   1      25.121 -17.519  -0.200  0.00  0.00    -0.032 A 
ATOM     22  C   UNL d   1      24.459 -18.757  -0.146  0.00  0.00     0.009 A 
ATOM     23  C   UNL d   1      23.116 -18.853  -0.528  0.00  0.00     0.001 A 
ATOM     24  C   UNL d   1      22.402 -17.708  -0.876  0.00  0.00     0.000 A 
ATOM     25  C   UNL d   1      23.031 -16.467  -0.865  0.00  0.00     0.001 A 
ATOM     26  C   UNL d   1      24.377 -16.376  -0.524  0.00  0.00     0.009 A 
ENDBRANCH  20  21
ENDBRANCH  19  20
ENDBRANCH   4  19
TORSDOF 9
ENDMDL
MODEL 8
REMARK VINA RESULT:    -5.187      3.618      7.868
REMARK INTER + INTRA:         -11.030
REMARK INTER:                  -7.871
REMARK INTRA:                  -3.158
REMARK CONF_INDEPENDENT:        2.685
REMARK UNBOUND:                -3.158
REMARK  9 active torsions:
REMARK  status: ('A' for Active; 'I' for Inactive)
REMARK       I    between atoms: C_2  and  N_3 
REMARK       I    between atoms: C_2  and  N_15 
REMARK    1  A    between atoms: N_3  and  C_4 
REMARK    2  A    between atoms: C_4  and  C_5 
REMARK    3  A    between atoms: C_5  and  O_6 
REMARK    4  A    between atoms: C_5  and  C_7 
REMARK    5  A    between atoms: C_7  and  O_8 
REMARK    6  A    between atoms: O_8  and  C_9 
REMARK    7  A    between atoms: N_15  and  O_16 
REMARK    8  A    between atoms: O_16  and  C_17 
REMARK    9  A    between atoms: C_17  and  C_18 
ROOT
ATOM      1  O   UNL d   1      26.684 -15.545  -5.499  0.00  0.00    -0.245 OA
ATOM      2  C   UNL d   1      27.637 -15.186  -4.801  0.00  0.00     0.340 C 
ATOM      3  N   UNL d   1      27.616 -14.040  -4.061  0.00  0.00    -0.339 N 
ATOM      4  N   UNL d   1      28.757 -15.948  -4.746  0.00  0.00    -0.216 N 
ATOM      5  H   UNL d   1      28.467 -13.771  -3.581  0.00  0.00     0.164 HD
ATOM      6  H   UNL d   1      28.772 -16.809  -5.277  0.00  0.00     0.199 HD
ENDROOT
BRANCH   3   7
ATOM      7  C   UNL d   1      26.463 -13.142  -4.087  0.00  0.00     0.158 C 
BRANCH   7   8
ATOM      8  C   UNL d   1      25.226 -13.687  -3.353  0.00  0.00     0.160 C 
BRANCH   8   9
ATOM      9  O   UNL d   1      24.439 -14.451  -4.280  0.00  0.00    -0.392 OA
ATOM     10  H   UNL d   1      24.935 -15.259  -4.495  0.00  0.00     0.210 HD
ENDBRANCH   8   9
BRANCH   8  11
ATOM     11  C   UNL d   1      25.630 -14.552  -2.133  0.00  0.00     0.209 C 
BRANCH  11  12
ATOM     12  O   UNL d   1      25.358 -15.928  -2.427  0.00  0.00    -0.349 OA
BRANCH  12  13
ATOM     13  C   UNL d   1      24.536 -16.606  -1.569  0.00  0.00     0.068 A 
ATOM     14  C   UNL d   1      25.035 -17.823  -1.094  0.00  0.00     0.037 A 
ATOM     15  C   UNL d   1      24.221 -18.689  -0.359  0.00  0.00     0.003 A 
ATOM     16  C   UNL d   1      22.920 -18.314  -0.039  0.00  0.00     0.000 A 
ATOM     17  C   UNL d   1      22.424 -17.089  -0.484  0.00  0.00     0.003 A 
ATOM     18  C   UNL d   1      23.228 -16.239  -1.255  0.00  0.00     0.037 A 
ENDBRANCH  12  13
ENDBRANCH  11  12
ENDBRANCH   8  11
ENDBRANCH   7   8
ENDBRANCH   3   7
BRANCH   4  19
ATOM     19  O   UNL d   1      29.871 -15.599  -3.966  0.00  0.00    -0.272 OA
BRANCH  19  20
ATOM     20  C   UNL d   1      30.091 -16.581  -2.928  0.00  0.00     0.240 C 
BRANCH  20  21
ATOM     21  C   UNL d   1      29.354 -16.163  -1.674  0.00  0.00    -0.032 A 
ATOM     22  C   UNL d   1      29.721 -15.010  -0.960  0.00  0.00     0.009 A 
ATOM     23  C   UNL d   1      29.124 -14.727   0.274  0.00  0.00     0.001 A 
ATOM     24  C   UNL d   1      28.096 -15.536   0.757  0.00  0.00     0.000 A 
ATOM     25  C   UNL d   1      27.677 -16.640   0.023  0.00  0.00     0.001 A 
ATOM     26  C   UNL d   1      28.298 -16.945  -1.184  0.00  0.00     0.009 A 
ENDBRANCH  20  21
ENDBRANCH  19  20
ENDBRANCH   4  19
TORSDOF 9
ENDMDL
MODEL 9
REMARK VINA RESULT:    -4.994      3.670      7.921
REMARK INTER + INTRA:         -11.097
REMARK INTER:                  -7.678
REMARK INTRA:                  -3.419
REMARK CONF_INDEPENDENT:        2.685
REMARK UNBOUND:                -3.419
REMARK  9 active torsions:
REMARK  status: ('A' for Active; 'I' for Inactive)
REMARK       I    between atoms: C_2  and  N_3 
REMARK       I    between atoms: C_2  and  N_15 
REMARK    1  A    between atoms: N_3  and  C_4 
REMARK    2  A    between atoms: C_4  and  C_5 
REMARK    3  A    between atoms: C_5  and  O_6 
REMARK    4  A    between atoms: C_5  and  C_7 
REMARK    5  A    between atoms: C_7  and  O_8 
REMARK    6  A    between atoms: O_8  and  C_9 
REMARK    7  A    between atoms: N_15  and  O_16 
REMARK    8  A    between atoms: O_16  and  C_17 
REMARK    9  A    between atoms: C_17  and  C_18 
ROOT
ATOM      1  O   UNL d   1      27.836 -15.575  -5.779  0.00  0.00    -0.245 OA
ATOM      2  C   UNL d   1      27.099 -15.403  -4.804  0.00  0.00     0.340 C 
ATOM      3  N   UNL d   1      27.534 -15.554  -3.519  0.00  0.00    -0.339 N 
ATOM      4  N   UNL d   1      25.806 -15.042  -4.991  0.00  0.00    -0.216 N 
ATOM      5  H   UNL d   1      26.848 -15.477  -2.775  0.00  0.00     0.164 HD
ATOM      6  H   UNL d   1      25.482 -14.911  -5.940  0.00  0.00     0.199 HD
ENDROOT
BRANCH   3   7
ATOM      7  C   UNL d   1      28.902 -15.973  -3.224  0.00  0.00     0.158 C 
BRANCH   7   8
ATOM      8  C   UNL d   1      29.185 -16.185  -1.726  0.00  0.00     0.160 C 
BRANCH   8   9
ATOM      9  O   UNL d   1      29.249 -14.903  -1.083  0.00  0.00    -0.392 OA
ATOM     10  H   UNL d   1      28.569 -14.885  -0.388  0.00  0.00     0.210 HD
ENDBRANCH   8   9
BRANCH   8  11
ATOM     11  C   UNL d   1      28.101 -17.076  -1.069  0.00  0.00     0.209 C 
BRANCH  11  12
ATOM     12  O   UNL d   1      26.961 -16.266  -0.754  0.00  0.00    -0.349 OA
BRANCH  12  13
ATOM     13  C   UNL d   1      25.739 -16.881  -0.726  0.00  0.00     0.068 A 
ATOM     14  C   UNL d   1      24.675 -16.128  -1.234  0.00  0.00     0.037 A 
ATOM     15  C   UNL d   1      23.358 -16.572  -1.096  0.00  0.00     0.003 A 
ATOM     16  C   UNL d   1      23.099 -17.805  -0.505  0.00  0.00     0.000 A 
ATOM     17  C   UNL d   1      24.157 -18.575  -0.023  0.00  0.00     0.003 A 
ATOM     18  C   UNL d   1      25.474 -18.111  -0.126  0.00  0.00     0.037 A 
ENDBRANCH  12  13
ENDBRANCH  11  12
ENDBRANCH   8  11
ENDBRANCH   7   8
ENDBRANCH   3   7
BRANCH   4  19
ATOM     19  O   UNL d   1      24.920 -14.824  -3.923  0.00  0.00    -0.272 OA
BRANCH  19  20
ATOM     20  C   UNL d   1      24.703 -13.408  -3.726  0.00  0.00     0.240 C 
BRANCH  20  21
ATOM     21  C   UNL d   1      25.882 -12.817  -2.985  0.00  0.00    -0.032 A 
ATOM     22  C   UNL d   1      26.272 -13.301  -1.725  0.00  0.00     0.009 A 
ATOM     23  C   UNL d   1      27.268 -12.642  -0.996  0.00  0.00     0.001 A 
ATOM     24  C   UNL d   1      27.943 -11.557  -1.553  0.00  0.00     0.000 A 
ATOM     25  C   UNL d   1      27.612 -11.114  -2.829  0.00  0.00     0.001 A 
ATOM     26  C   UNL d   1      26.594 -11.743  -3.539  0.00  0.00     0.009 A 
ENDBRANCH  20  21
ENDBRANCH  19  20
ENDBRANCH   4  19
TORSDOF 9
ENDMDL
