MODEL 1
REMARK VINA RESULT:    -9.039      0.000      0.000
REMARK INTER + INTRA:         -12.445
REMARK INTER:                 -10.530
REMARK INTRA:                  -1.915
REMARK CONF_INDEPENDENT:        1.492
REMARK UNBOUND:                -1.915
REMARK  5 active torsions:
REMARK  status: ('A' for Active; 'I' for Inactive)
REMARK       I    between atoms: C_2  and  N_3 
REMARK    1  A    between atoms: C_2  and  C_24 
REMARK    2  A    between atoms: N_3  and  N_4 
REMARK       I    between atoms: N_4  and  C_5 
REMARK    3  A    between atoms: C_5  and  C_7 
REMARK    4  A    between atoms: N_9  and  C_10 
REMARK       I    between atoms: C_24  and  N_26 
REMARK    5  A    between atoms: N_26  and  C_27 
ROOT
ATOM      1  C   UNL d   1      25.977 -16.633  -0.431  0.00  0.00     0.154 A 
ATOM      2  N   UNL d   1      26.834 -16.298   0.557  0.00  0.00    -0.161 NA
ATOM      3  N   UNL d   1      27.420 -15.132   0.173  0.00  0.00    -0.237 N 
ATOM      4  C   UNL d   1      27.039 -14.772  -1.109  0.00  0.00     0.045 A 
ATOM      5  C   UNL d   1      26.124 -15.734  -1.527  0.00  0.00     0.003 A 
ATOM      6  C   UNL d   1      25.411 -15.752  -2.842  0.00  0.00     0.043 C 
ATOM      7  C   UNL d   1      24.978 -14.346  -3.255  0.00  0.00     0.005 C 
ATOM      8  C   UNL d   1      26.103 -13.568  -3.947  0.00  0.00     0.001 C 
ATOM      9  C   UNL d   1      27.509 -13.849  -3.396  0.00  0.00     0.006 C 
ATOM     10  C   UNL d   1      27.586 -13.602  -1.881  0.00  0.00     0.060 C 
ENDROOT
BRANCH   1  11
ATOM     11  C   UNL d   1      25.012 -17.759  -0.299  0.00  0.00     0.291 C 
ATOM     12  N   UNL d   1      23.669 -17.485  -0.565  0.00  0.00    -0.262 N 
ATOM     13  H   UNL d   1      23.331 -16.592  -0.921  0.00  0.00     0.190 HD
ATOM     14  O   UNL d   1      25.346 -18.895   0.064  0.00  0.00    -0.264 OA
BRANCH  12  15
ATOM     15  N   UNL d   1      22.703 -18.535  -0.428  0.00  0.00    -0.259 N 
ATOM     16  C   UNL d   1      21.389 -18.306  -0.817  0.00  0.00     0.327 C 
ATOM     17  O   UNL d   1      21.035 -17.216  -1.273  0.00  0.00    -0.261 OA
ATOM     18  H   UNL d   1      23.064 -19.407  -0.053  0.00  0.00     0.190 HD
BRANCH  16  19
ATOM     19  C   UNL d   1      20.349 -19.462  -0.667  0.00  0.00     0.311 C 
ATOM     20  O   UNL d   1      19.569 -19.691  -1.591  0.00  0.00    -0.262 OA
ATOM     21  N   UNL d   1      20.339 -20.200   0.514  0.00  0.00    -0.348 N 
ATOM     22  H   UNL d   1      21.023 -20.041   1.238  0.00  0.00     0.163 HD
BRANCH  21  23
ATOM     23  C   UNL d   1      19.415 -21.289   0.711  0.00  0.00     0.085 A 
ATOM     24  C   UNL d   1      18.309 -21.191   1.730  0.00  0.00     0.027 A 
ATOM     25  C   UNL d   1      17.980 -21.169   0.267  0.00  0.00     0.027 A 
ENDBRANCH  21  23
ENDBRANCH  16  19
ENDBRANCH  12  15
ENDBRANCH   1  11
BRANCH   3  26
ATOM     26  C   UNL d   1      28.368 -14.481   1.017  0.00  0.00     0.058 A 
ATOM     27  C   UNL d   1      27.918 -13.505   1.917  0.00  0.00     0.033 A 
ATOM     28  C   UNL d   1      28.817 -12.903   2.809  0.00  0.00     0.026 A 
ATOM     29  C   UNL d   1      30.170 -13.237   2.766  0.00  0.00     0.034 A 
ATOM     30 CL   UNL d   1      31.273 -12.476   3.848  0.00  0.00    -0.084 Cl
ATOM     31  C   UNL d   1      30.631 -14.184   1.851  0.00  0.00     0.026 A 
ATOM     32  C   UNL d   1      29.729 -14.821   0.983  0.00  0.00     0.033 A 
ENDBRANCH   3  26
TORSDOF 5
ENDMDL
MODEL 2
REMARK VINA RESULT:    -8.864      2.871      4.495
REMARK INTER + INTRA:         -12.664
REMARK INTER:                 -10.355
REMARK INTRA:                  -2.309
REMARK CONF_INDEPENDENT:        1.492
REMARK UNBOUND:                -2.309
REMARK  5 active torsions:
REMARK  status: ('A' for Active; 'I' for Inactive)
REMARK       I    between atoms: C_2  and  N_3 
REMARK    1  A    between atoms: C_2  and  C_24 
REMARK    2  A    between atoms: N_3  and  N_4 
REMARK       I    between atoms: N_4  and  C_5 
REMARK    3  A    between atoms: C_5  and  C_7 
REMARK    4  A    between atoms: N_9  and  C_10 
REMARK       I    between atoms: C_24  and  N_26 
REMARK    5  A    between atoms: N_26  and  C_27 
ROOT
ATOM      1  C   UNL d   1      25.697 -16.803  -0.918  0.00  0.00     0.154 A 
ATOM      2  N   UNL d   1      25.262 -15.877  -1.799  0.00  0.00    -0.161 NA
ATOM      3  N   UNL d   1      26.374 -15.262  -2.285  0.00  0.00    -0.237 N 
ATOM      4  C   UNL d   1      27.517 -15.699  -1.639  0.00  0.00     0.045 A 
ATOM      5  C   UNL d   1      27.106 -16.679  -0.739  0.00  0.00     0.003 A 
ATOM      6  C   UNL d   1      27.997 -17.465   0.169  0.00  0.00     0.043 C 
ATOM      7  C   UNL d   1      29.295 -17.857  -0.536  0.00  0.00     0.005 C 
ATOM      8  C   UNL d   1      30.344 -16.740  -0.494  0.00  0.00     0.001 C 
ATOM      9  C   UNL d   1      29.769 -15.319  -0.595  0.00  0.00     0.006 C 
ATOM     10  C   UNL d   1      28.900 -15.145  -1.852  0.00  0.00     0.060 C 
ENDROOT
BRANCH   1  11
ATOM     11  C   UNL d   1      24.787 -17.808  -0.305  0.00  0.00     0.291 C 
ATOM     12  N   UNL d   1      23.469 -17.844  -0.767  0.00  0.00    -0.262 N 
ATOM     13  H   UNL d   1      23.126 -17.287  -1.549  0.00  0.00     0.190 HD
ATOM     14  O   UNL d   1      25.138 -18.571   0.604  0.00  0.00    -0.264 OA
BRANCH  12  15
ATOM     15  N   UNL d   1      22.553 -18.783  -0.188  0.00  0.00    -0.259 N 
ATOM     16  C   UNL d   1      21.198 -18.679  -0.481  0.00  0.00     0.327 C 
ATOM     17  O   UNL d   1      20.767 -17.794  -1.224  0.00  0.00    -0.261 OA
ATOM     18  H   UNL d   1      22.976 -19.487   0.407  0.00  0.00     0.190 HD
BRANCH  16  19
ATOM     19  C   UNL d   1      20.213 -19.712   0.153  0.00  0.00     0.311 C 
ATOM     20  O   UNL d   1      20.560 -20.332   1.158  0.00  0.00    -0.262 OA
ATOM     21  N   UNL d   1      18.967 -19.897  -0.441  0.00  0.00    -0.348 N 
ATOM     22  H   UNL d   1      18.673 -19.339  -1.228  0.00  0.00     0.163 HD
BRANCH  21  23
ATOM     23  C   UNL d   1      18.007 -20.824   0.103  0.00  0.00     0.085 A 
ATOM     24  C   UNL d   1      18.446 -21.972   0.975  0.00  0.00     0.027 A 
ATOM     25  C   UNL d   1      17.687 -20.826   1.575  0.00  0.00     0.027 A 
ENDBRANCH  21  23
ENDBRANCH  16  19
ENDBRANCH  12  15
ENDBRANCH   1  11
BRANCH   3  26
ATOM     26  C   UNL d   1      26.266 -14.239  -3.274  0.00  0.00     0.058 A 
ATOM     27  C   UNL d   1      25.595 -13.051  -2.951  0.00  0.00     0.033 A 
ATOM     28  C   UNL d   1      25.539 -12.001  -3.878  0.00  0.00     0.026 A 
ATOM     29  C   UNL d   1      26.106 -12.157  -5.143  0.00  0.00     0.034 A 
ATOM     30 CL   UNL d   1      26.013 -10.873  -6.286  0.00  0.00    -0.084 Cl
ATOM     31  C   UNL d   1      26.747 -13.349  -5.483  0.00  0.00     0.026 A 
ATOM     32  C   UNL d   1      26.843 -14.389  -4.544  0.00  0.00     0.033 A 
ENDBRANCH   3  26
TORSDOF 5
ENDMDL
MODEL 3
REMARK VINA RESULT:    -8.461      3.026      4.873
REMARK INTER + INTRA:         -11.348
REMARK INTER:                  -9.953
REMARK INTRA:                  -1.395
REMARK CONF_INDEPENDENT:        1.492
REMARK UNBOUND:                -1.395
REMARK  5 active torsions:
REMARK  status: ('A' for Active; 'I' for Inactive)
REMARK       I    between atoms: C_2  and  N_3 
REMARK    1  A    between atoms: C_2  and  C_24 
REMARK    2  A    between atoms: N_3  and  N_4 
REMARK       I    between atoms: N_4  and  C_5 
REMARK    3  A    between atoms: C_5  and  C_7 
REMARK    4  A    between atoms: N_9  and  C_10 
REMARK       I    between atoms: C_24  and  N_26 
REMARK    5  A    between atoms: N_26  and  C_27 
ROOT
ATOM      1  C   UNL d   1      25.040 -16.028  -1.976  0.00  0.00     0.154 A 
ATOM      2  N   UNL d   1      25.183 -15.293  -3.100  0.00  0.00    -0.161 NA
ATOM      3  N   UNL d   1      26.510 -15.011  -3.204  0.00  0.00    -0.237 N 
ATOM      4  C   UNL d   1      27.210 -15.456  -2.094  0.00  0.00     0.045 A 
ATOM      5  C   UNL d   1      26.282 -16.098  -1.280  0.00  0.00     0.003 A 
ATOM      6  C   UNL d   1      26.575 -16.770   0.024  0.00  0.00     0.043 C 
ATOM      7  C   UNL d   1      27.897 -17.534  -0.034  0.00  0.00     0.005 C 
ATOM      8  C   UNL d   1      29.108 -16.631   0.230  0.00  0.00     0.001 C 
ATOM      9  C   UNL d   1      28.976 -15.205  -0.327  0.00  0.00     0.006 C 
ATOM     10  C   UNL d   1      28.672 -15.209  -1.834  0.00  0.00     0.060 C 
ENDROOT
BRANCH   1  11
ATOM     11  C   UNL d   1      23.754 -16.684  -1.614  0.00  0.00     0.291 C 
ATOM     12  N   UNL d   1      23.592 -18.022  -1.979  0.00  0.00    -0.262 N 
ATOM     13  H   UNL d   1      24.328 -18.590  -2.397  0.00  0.00     0.190 HD
ATOM     14  O   UNL d   1      22.830 -16.088  -1.044  0.00  0.00    -0.264 OA
BRANCH  12  15
ATOM     15  N   UNL d   1      22.360 -18.685  -1.668  0.00  0.00    -0.259 N 
ATOM     16  C   UNL d   1      21.969 -18.808  -0.341  0.00  0.00     0.327 C 
ATOM     17  O   UNL d   1      22.664 -18.364   0.577  0.00  0.00    -0.261 OA
ATOM     18  H   UNL d   1      21.836 -19.019  -2.471  0.00  0.00     0.190 HD
BRANCH  16  19
ATOM     19  C   UNL d   1      20.621 -19.529  -0.019  0.00  0.00     0.311 C 
ATOM     20  O   UNL d   1      19.811 -19.717  -0.926  0.00  0.00    -0.262 OA
ATOM     21  N   UNL d   1      20.379 -19.937   1.291  0.00  0.00    -0.348 N 
ATOM     22  H   UNL d   1      21.076 -19.829   2.011  0.00  0.00     0.163 HD
BRANCH  21  23
ATOM     23  C   UNL d   1      19.161 -20.619   1.651  0.00  0.00     0.085 A 
ATOM     24  C   UNL d   1      17.995 -20.676   0.698  0.00  0.00     0.027 A 
ATOM     25  C   UNL d   1      18.783 -21.919   0.989  0.00  0.00     0.027 A 
ENDBRANCH  21  23
ENDBRANCH  16  19
ENDBRANCH  12  15
ENDBRANCH   1  11
BRANCH   3  26
ATOM     26  C   UNL d   1      27.012 -14.264  -4.311  0.00  0.00     0.058 A 
ATOM     27  C   UNL d   1      28.018 -14.826  -5.108  0.00  0.00     0.033 A 
ATOM     28  C   UNL d   1      28.476 -14.145  -6.245  0.00  0.00     0.026 A 
ATOM     29  C   UNL d   1      27.968 -12.884  -6.554  0.00  0.00     0.034 A 
ATOM     30 CL   UNL d   1      28.552 -12.042  -7.938  0.00  0.00    -0.084 Cl
ATOM     31  C   UNL d   1      26.990 -12.304  -5.746  0.00  0.00     0.026 A 
ATOM     32  C   UNL d   1      26.496 -12.998  -4.629  0.00  0.00     0.033 A 
ENDBRANCH   3  26
TORSDOF 5
ENDMDL
MODEL 4
REMARK VINA RESULT:    -8.317      4.562      8.845
REMARK INTER + INTRA:         -12.460
REMARK INTER:                  -9.808
REMARK INTRA:                  -2.652
REMARK CONF_INDEPENDENT:        1.492
REMARK UNBOUND:                -2.652
REMARK  5 active torsions:
REMARK  status: ('A' for Active; 'I' for Inactive)
REMARK       I    between atoms: C_2  and  N_3 
REMARK    1  A    between atoms: C_2  and  C_24 
REMARK    2  A    between atoms: N_3  and  N_4 
REMARK       I    between atoms: N_4  and  C_5 
REMARK    3  A    between atoms: C_5  and  C_7 
REMARK    4  A    between atoms: N_9  and  C_10 
REMARK       I    between atoms: C_24  and  N_26 
REMARK    5  A    between atoms: N_26  and  C_27 
ROOT
ATOM      1  C   UNL d   1      26.972 -14.901  -0.123  0.00  0.00     0.154 A 
ATOM      2  N   UNL d   1      25.901 -15.617   0.284  0.00  0.00    -0.161 NA
ATOM      3  N   UNL d   1      25.341 -16.137  -0.842  0.00  0.00    -0.237 N 
ATOM      4  C   UNL d   1      25.968 -15.666  -1.983  0.00  0.00     0.045 A 
ATOM      5  C   UNL d   1      27.011 -14.853  -1.546  0.00  0.00     0.003 A 
ATOM      6  C   UNL d   1      27.992 -14.140  -2.422  0.00  0.00     0.043 C 
ATOM      7  C   UNL d   1      28.416 -15.014  -3.602  0.00  0.00     0.005 C 
ATOM      8  C   UNL d   1      27.422 -14.946  -4.767  0.00  0.00     0.001 C 
ATOM      9  C   UNL d   1      25.950 -14.818  -4.346  0.00  0.00     0.006 C 
ATOM     10  C   UNL d   1      25.530 -15.950  -3.394  0.00  0.00     0.060 C 
ENDROOT
BRANCH   1  11
ATOM     11  C   UNL d   1      27.953 -14.324   0.836  0.00  0.00     0.291 C 
ATOM     12  N   UNL d   1      27.857 -14.725   2.170  0.00  0.00    -0.262 N 
ATOM     13  H   UNL d   1      27.217 -15.445   2.502  0.00  0.00     0.190 HD
ATOM     14  O   UNL d   1      28.810 -13.493   0.506  0.00  0.00    -0.264 OA
BRANCH  12  15
ATOM     15  N   UNL d   1      28.769 -14.176   3.131  0.00  0.00    -0.259 N 
ATOM     16  C   UNL d   1      28.653 -14.543   4.466  0.00  0.00     0.327 C 
ATOM     17  O   UNL d   1      27.778 -15.327   4.843  0.00  0.00    -0.261 OA
ATOM     18  H   UNL d   1      29.466 -13.544   2.750  0.00  0.00     0.190 HD
BRANCH  16  19
ATOM     19  C   UNL d   1      29.657 -13.940   5.500  0.00  0.00     0.311 C 
ATOM     20  O   UNL d   1      30.411 -13.035   5.145  0.00  0.00    -0.262 OA
ATOM     21  N   UNL d   1      29.665 -14.450   6.796  0.00  0.00    -0.348 N 
ATOM     22  H   UNL d   1      29.002 -15.150   7.088  0.00  0.00     0.163 HD
BRANCH  21  23
ATOM     23  C   UNL d   1      30.557 -13.928   7.801  0.00  0.00     0.085 A 
ATOM     24  C   UNL d   1      30.035 -13.092   8.941  0.00  0.00     0.027 A 
ATOM     25  C   UNL d   1      30.544 -14.479   9.203  0.00  0.00     0.027 A 
ENDBRANCH  21  23
ENDBRANCH  16  19
ENDBRANCH  12  15
ENDBRANCH   1  11
BRANCH   3  26
ATOM     26  C   UNL d   1      24.194 -16.980  -0.761  0.00  0.00     0.058 A 
ATOM     27  C   UNL d   1      22.921 -16.409  -0.896  0.00  0.00     0.033 A 
ATOM     28  C   UNL d   1      21.780 -17.224  -0.895  0.00  0.00     0.026 A 
ATOM     29  C   UNL d   1      21.908 -18.600  -0.706  0.00  0.00     0.034 A 
ATOM     30 CL   UNL d   1      20.501 -19.594  -0.681  0.00  0.00    -0.084 Cl
ATOM     31  C   UNL d   1      23.169 -19.172  -0.538  0.00  0.00     0.026 A 
ATOM     32  C   UNL d   1      24.319 -18.366  -0.580  0.00  0.00     0.033 A 
ENDBRANCH   3  26
TORSDOF 5
ENDMDL
MODEL 5
REMARK VINA RESULT:    -8.314      2.236      2.821
REMARK INTER + INTRA:         -12.270
REMARK INTER:                  -9.806
REMARK INTRA:                  -2.464
REMARK CONF_INDEPENDENT:        1.492
REMARK UNBOUND:                -2.464
REMARK  5 active torsions:
REMARK  status: ('A' for Active; 'I' for Inactive)
REMARK       I    between atoms: C_2  and  N_3 
REMARK    1  A    between atoms: C_2  and  C_24 
REMARK    2  A    between atoms: N_3  and  N_4 
REMARK       I    between atoms: N_4  and  C_5 
REMARK    3  A    between atoms: C_5  and  C_7 
REMARK    4  A    between atoms: N_9  and  C_10 
REMARK       I    between atoms: C_24  and  N_26 
REMARK    5  A    between atoms: N_26  and  C_27 
ROOT
ATOM      1  C   UNL d   1      26.275 -16.076  -2.253  0.00  0.00     0.154 A 
ATOM      2  N   UNL d   1      27.205 -16.418  -1.336  0.00  0.00    -0.161 NA
ATOM      3  N   UNL d   1      28.403 -16.021  -1.842  0.00  0.00    -0.237 N 
ATOM      4  C   UNL d   1      28.271 -15.533  -3.132  0.00  0.00     0.045 A 
ATOM      5  C   UNL d   1      26.911 -15.575  -3.426  0.00  0.00     0.003 A 
ATOM      6  C   UNL d   1      26.276 -15.120  -4.702  0.00  0.00     0.043 C 
ATOM      7  C   UNL d   1      26.923 -13.833  -5.212  0.00  0.00     0.005 C 
ATOM      8  C   UNL d   1      28.200 -14.099  -6.016  0.00  0.00     0.001 C 
ATOM      9  C   UNL d   1      29.044 -15.278  -5.507  0.00  0.00     0.006 C 
ATOM     10  C   UNL d   1      29.410 -15.116  -4.023  0.00  0.00     0.060 C 
ENDROOT
BRANCH   1  11
ATOM     11  C   UNL d   1      24.815 -16.183  -1.984  0.00  0.00     0.291 C 
ATOM     12  N   UNL d   1      24.345 -17.396  -1.475  0.00  0.00    -0.262 N 
ATOM     13  H   UNL d   1      24.950 -18.169  -1.201  0.00  0.00     0.190 HD
ATOM     14  O   UNL d   1      24.015 -15.269  -2.225  0.00  0.00    -0.264 OA
BRANCH  12  15
ATOM     15  N   UNL d   1      22.942 -17.549  -1.223  0.00  0.00    -0.259 N 
ATOM     16  C   UNL d   1      22.470 -18.756  -0.722  0.00  0.00     0.327 C 
ATOM     17  O   UNL d   1      23.230 -19.700  -0.496  0.00  0.00    -0.261 OA
ATOM     18  H   UNL d   1      22.376 -16.731  -1.424  0.00  0.00     0.190 HD
BRANCH  16  19
ATOM     19  C   UNL d   1      20.939 -18.906  -0.448  0.00  0.00     0.311 C 
ATOM     20  O   UNL d   1      20.150 -18.158  -1.025  0.00  0.00    -0.262 OA
ATOM     21  N   UNL d   1      20.515 -19.888   0.445  0.00  0.00    -0.348 N 
ATOM     22  H   UNL d   1      21.167 -20.533   0.864  0.00  0.00     0.163 HD
BRANCH  21  23
ATOM     23  C   UNL d   1      19.116 -20.088   0.731  0.00  0.00     0.085 A 
ATOM     24  C   UNL d   1      18.567 -21.468   0.983  0.00  0.00     0.027 A 
ATOM     25  C   UNL d   1      18.662 -20.484   2.112  0.00  0.00     0.027 A 
ENDBRANCH  21  23
ENDBRANCH  16  19
ENDBRANCH  12  15
ENDBRANCH   1  11
BRANCH   3  26
ATOM     26  C   UNL d   1      29.606 -16.210  -1.099  0.00  0.00     0.058 A 
ATOM     27  C   UNL d   1      29.966 -15.256  -0.136  0.00  0.00     0.033 A 
ATOM     28  C   UNL d   1      31.103 -15.454   0.659  0.00  0.00     0.026 A 
ATOM     29  C   UNL d   1      31.907 -16.575   0.457  0.00  0.00     0.034 A 
ATOM     30 CL   UNL d   1      33.317 -16.801   1.421  0.00  0.00    -0.084 Cl
ATOM     31  C   UNL d   1      31.574 -17.512  -0.522  0.00  0.00     0.026 A 
ATOM     32  C   UNL d   1      30.414 -17.341  -1.294  0.00  0.00     0.033 A 
ENDBRANCH   3  26
TORSDOF 5
ENDMDL
MODEL 6
REMARK VINA RESULT:    -8.311      4.724      8.140
REMARK INTER + INTRA:         -12.052
REMARK INTER:                  -9.802
REMARK INTRA:                  -2.249
REMARK CONF_INDEPENDENT:        1.492
REMARK UNBOUND:                -2.249
REMARK  5 active torsions:
REMARK  status: ('A' for Active; 'I' for Inactive)
REMARK       I    between atoms: C_2  and  N_3 
REMARK    1  A    between atoms: C_2  and  C_24 
REMARK    2  A    between atoms: N_3  and  N_4 
REMARK       I    between atoms: N_4  and  C_5 
REMARK    3  A    between atoms: C_5  and  C_7 
REMARK    4  A    between atoms: N_9  and  C_10 
REMARK       I    between atoms: C_24  and  N_26 
REMARK    5  A    between atoms: N_26  and  C_27 
ROOT
ATOM      1  C   UNL d   1      26.151 -15.016  -2.293  0.00  0.00     0.154 A 
ATOM      2  N   UNL d   1      27.459 -15.007  -1.957  0.00  0.00    -0.161 NA
ATOM      3  N   UNL d   1      27.660 -16.107  -1.183  0.00  0.00    -0.237 N 
ATOM      4  C   UNL d   1      26.470 -16.763  -0.914  0.00  0.00     0.045 A 
ATOM      5  C   UNL d   1      25.480 -16.068  -1.603  0.00  0.00     0.003 A 
ATOM      6  C   UNL d   1      24.026 -16.420  -1.641  0.00  0.00     0.043 C 
ATOM      7  C   UNL d   1      23.827 -17.931  -1.741  0.00  0.00     0.005 C 
ATOM      8  C   UNL d   1      23.895 -18.623  -0.375  0.00  0.00     0.001 C 
ATOM      9  C   UNL d   1      24.905 -18.006   0.605  0.00  0.00     0.006 C 
ATOM     10  C   UNL d   1      26.318 -17.946   0.002  0.00  0.00     0.060 C 
ENDROOT
BRANCH   1  11
ATOM     11  C   UNL d   1      25.578 -14.068  -3.287  0.00  0.00     0.291 C 
ATOM     12  N   UNL d   1      25.956 -12.727  -3.185  0.00  0.00    -0.262 N 
ATOM     13  H   UNL d   1      26.658 -12.383  -2.530  0.00  0.00     0.190 HD
ATOM     14  O   UNL d   1      24.769 -14.411  -4.159  0.00  0.00    -0.264 OA
BRANCH  12  15
ATOM     15  N   UNL d   1      25.410 -11.776  -4.108  0.00  0.00    -0.259 N 
ATOM     16  C   UNL d   1      25.754 -10.436  -3.987  0.00  0.00     0.327 C 
ATOM     17  O   UNL d   1      26.514 -10.046  -3.097  0.00  0.00    -0.261 OA
ATOM     18  H   UNL d   1      24.798 -12.168  -4.818  0.00  0.00     0.190 HD
BRANCH  16  19
ATOM     19  C   UNL d   1      25.155  -9.412  -5.004  0.00  0.00     0.311 C 
ATOM     20  O   UNL d   1      25.250  -9.640  -6.210  0.00  0.00    -0.262 OA
ATOM     21  N   UNL d   1      24.528  -8.271  -4.510  0.00  0.00    -0.348 N 
ATOM     22  H   UNL d   1      24.405  -8.127  -3.520  0.00  0.00     0.163 HD
BRANCH  21  23
ATOM     23  C   UNL d   1      23.943  -7.295  -5.395  0.00  0.00     0.085 A 
ATOM     24  C   UNL d   1      22.461  -7.020  -5.373  0.00  0.00     0.027 A 
ATOM     25  C   UNL d   1      23.420  -5.986  -4.860  0.00  0.00     0.027 A 
ENDBRANCH  21  23
ENDBRANCH  16  19
ENDBRANCH  12  15
ENDBRANCH   1  11
BRANCH   3  26
ATOM     26  C   UNL d   1      28.959 -16.415  -0.679  0.00  0.00     0.058 A 
ATOM     27  C   UNL d   1      29.566 -17.620  -1.060  0.00  0.00     0.033 A 
ATOM     28  C   UNL d   1      30.871 -17.913  -0.640  0.00  0.00     0.026 A 
ATOM     29  C   UNL d   1      31.547 -17.030   0.202  0.00  0.00     0.034 A 
ATOM     30 CL   UNL d   1      33.140 -17.407   0.735  0.00  0.00    -0.084 Cl
ATOM     31  C   UNL d   1      30.936 -15.844   0.612  0.00  0.00     0.026 A 
ATOM     32  C   UNL d   1      29.645 -15.525   0.161  0.00  0.00     0.033 A 
ENDBRANCH   3  26
TORSDOF 5
ENDMDL
MODEL 7
REMARK VINA RESULT:    -8.278      3.382      5.090
REMARK INTER + INTRA:         -12.132
REMARK INTER:                  -9.770
REMARK INTRA:                  -2.362
REMARK CONF_INDEPENDENT:        1.492
REMARK UNBOUND:                -2.362
REMARK  5 active torsions:
REMARK  status: ('A' for Active; 'I' for Inactive)
REMARK       I    between atoms: C_2  and  N_3 
REMARK    1  A    between atoms: C_2  and  C_24 
REMARK    2  A    between atoms: N_3  and  N_4 
REMARK       I    between atoms: N_4  and  C_5 
REMARK    3  A    between atoms: C_5  and  C_7 
REMARK    4  A    between atoms: N_9  and  C_10 
REMARK       I    between atoms: C_24  and  N_26 
REMARK    5  A    between atoms: N_26  and  C_27 
ROOT
ATOM      1  C   UNL d   1      26.283 -15.475  -2.363  0.00  0.00     0.154 A 
ATOM      2  N   UNL d   1      26.851 -15.643  -3.577  0.00  0.00    -0.161 NA
ATOM      3  N   UNL d   1      28.195 -15.565  -3.382  0.00  0.00    -0.237 N 
ATOM      4  C   UNL d   1      28.498 -15.229  -2.073  0.00  0.00     0.045 A 
ATOM      5  C   UNL d   1      27.281 -15.148  -1.401  0.00  0.00     0.003 A 
ATOM      6  C   UNL d   1      27.102 -14.839   0.052  0.00  0.00     0.043 C 
ATOM      7  C   UNL d   1      28.168 -15.531   0.899  0.00  0.00     0.005 C 
ATOM      8  C   UNL d   1      29.477 -14.736   0.957  0.00  0.00     0.001 C 
ATOM      9  C   UNL d   1      29.834 -13.996  -0.342  0.00  0.00     0.006 C 
ATOM     10  C   UNL d   1      29.880 -14.951  -1.546  0.00  0.00     0.060 C 
ENDROOT
BRANCH   1  11
ATOM     11  C   UNL d   1      24.826 -15.675  -2.133  0.00  0.00     0.291 C 
ATOM     12  N   UNL d   1      24.435 -16.848  -1.483  0.00  0.00    -0.262 N 
ATOM     13  H   UNL d   1      25.089 -17.524  -1.089  0.00  0.00     0.190 HD
ATOM     14  O   UNL d   1      23.965 -14.873  -2.519  0.00  0.00    -0.264 OA
BRANCH  12  15
ATOM     15  N   UNL d   1      23.040 -17.091  -1.261  0.00  0.00    -0.259 N 
ATOM     16  C   UNL d   1      22.631 -18.336  -0.800  0.00  0.00     0.327 C 
ATOM     17  O   UNL d   1      23.443 -19.239  -0.585  0.00  0.00    -0.261 OA
ATOM     18  H   UNL d   1      22.430 -16.303  -1.453  0.00  0.00     0.190 HD
BRANCH  16  19
ATOM     19  C   UNL d   1      21.108 -18.584  -0.558  0.00  0.00     0.311 C 
ATOM     20  O   UNL d   1      20.288 -17.825  -1.075  0.00  0.00    -0.262 OA
ATOM     21  N   UNL d   1      20.726 -19.660   0.238  0.00  0.00    -0.348 N 
ATOM     22  H   UNL d   1      21.405 -20.308   0.606  0.00  0.00     0.163 HD
BRANCH  21  23
ATOM     23  C   UNL d   1      19.336 -19.952   0.489  0.00  0.00     0.085 A 
ATOM     24  C   UNL d   1      18.890 -21.345   0.848  0.00  0.00     0.027 A 
ATOM     25  C   UNL d   1      18.854 -20.259   1.883  0.00  0.00     0.027 A 
ENDBRANCH  21  23
ENDBRANCH  16  19
ENDBRANCH  12  15
ENDBRANCH   1  11
BRANCH   3  26
ATOM     26  C   UNL d   1      29.099 -15.732  -4.472  0.00  0.00     0.058 A 
ATOM     27  C   UNL d   1      30.051 -16.759  -4.413  0.00  0.00     0.033 A 
ATOM     28  C   UNL d   1      30.903 -16.992  -5.502  0.00  0.00     0.026 A 
ATOM     29  C   UNL d   1      30.840 -16.168  -6.625  0.00  0.00     0.034 A 
ATOM     30 CL   UNL d   1      31.905 -16.443  -7.949  0.00  0.00    -0.084 Cl
ATOM     31  C   UNL d   1      29.917 -15.122  -6.677  0.00  0.00     0.026 A 
ATOM     32  C   UNL d   1      29.033 -14.909  -5.608  0.00  0.00     0.033 A 
ENDBRANCH   3  26
TORSDOF 5
ENDMDL
MODEL 8
REMARK VINA RESULT:    -7.561      5.443      9.395
REMARK INTER + INTRA:         -11.374
REMARK INTER:                  -9.053
REMARK INTRA:                  -2.321
REMARK CONF_INDEPENDENT:        1.492
REMARK UNBOUND:                -2.321
REMARK  5 active torsions:
REMARK  status: ('A' for Active; 'I' for Inactive)
REMARK       I    between atoms: C_2  and  N_3 
REMARK    1  A    between atoms: C_2  and  C_24 
REMARK    2  A    between atoms: N_3  and  N_4 
REMARK       I    between atoms: N_4  and  C_5 
REMARK    3  A    between atoms: C_5  and  C_7 
REMARK    4  A    between atoms: N_9  and  C_10 
REMARK       I    between atoms: C_24  and  N_26 
REMARK    5  A    between atoms: N_26  and  C_27 
ROOT
ATOM      1  C   UNL d   1      25.990 -14.756  -2.978  0.00  0.00     0.154 A 
ATOM      2  N   UNL d   1      24.857 -15.455  -2.755  0.00  0.00    -0.161 NA
ATOM      3  N   UNL d   1      25.111 -16.262  -1.690  0.00  0.00    -0.237 N 
ATOM      4  C   UNL d   1      26.436 -16.178  -1.296  0.00  0.00     0.045 A 
ATOM      5  C   UNL d   1      27.028 -15.228  -2.123  0.00  0.00     0.003 A 
ATOM      6  C   UNL d   1      28.452 -14.773  -2.057  0.00  0.00     0.043 C 
ATOM      7  C   UNL d   1      28.919 -14.629  -0.610  0.00  0.00     0.005 C 
ATOM      8  C   UNL d   1      29.382 -15.961  -0.008  0.00  0.00     0.001 C 
ATOM      9  C   UNL d   1      28.585 -17.187  -0.480  0.00  0.00     0.006 C 
ATOM     10  C   UNL d   1      27.078 -17.019  -0.226  0.00  0.00     0.060 C 
ENDROOT
BRANCH   1  11
ATOM     11  C   UNL d   1      26.053 -13.633  -3.953  0.00  0.00     0.291 C 
ATOM     12  N   UNL d   1      25.581 -12.389  -3.528  0.00  0.00    -0.262 N 
ATOM     13  H   UNL d   1      25.280 -12.191  -2.575  0.00  0.00     0.190 HD
ATOM     14  O   UNL d   1      26.467 -13.768  -5.113  0.00  0.00    -0.264 OA
BRANCH  12  15
ATOM     15  N   UNL d   1      25.603 -11.285  -4.443  0.00  0.00    -0.259 N 
ATOM     16  C   UNL d   1      25.379 -10.000  -3.964  0.00  0.00     0.327 C 
ATOM     17  O   UNL d   1      25.156  -9.790  -2.770  0.00  0.00    -0.261 OA
ATOM     18  H   UNL d   1      25.799 -11.530  -5.409  0.00  0.00     0.190 HD
BRANCH  16  19
ATOM     19  C   UNL d   1      25.411  -8.807  -4.973  0.00  0.00     0.311 C 
ATOM     20  O   UNL d   1      25.964  -8.958  -6.062  0.00  0.00    -0.262 OA
ATOM     21  N   UNL d   1      24.808  -7.608  -4.605  0.00  0.00    -0.348 N 
ATOM     22  H   UNL d   1      24.306  -7.517  -3.735  0.00  0.00     0.163 HD
BRANCH  21  23
ATOM     23  C   UNL d   1      24.790  -6.473  -5.495  0.00  0.00     0.085 A 
ATOM     24  C   UNL d   1      23.546  -5.638  -5.660  0.00  0.00     0.027 A 
ATOM     25  C   UNL d   1      24.740  -5.069  -4.951  0.00  0.00     0.027 A 
ENDBRANCH  21  23
ENDBRANCH  16  19
ENDBRANCH  12  15
ENDBRANCH   1  11
BRANCH   3  26
ATOM     26  C   UNL d   1      24.098 -17.121  -1.169  0.00  0.00     0.058 A 
ATOM     27  C   UNL d   1      22.812 -16.605  -0.960  0.00  0.00     0.033 A 
ATOM     28  C   UNL d   1      21.780 -17.446  -0.520  0.00  0.00     0.026 A 
ATOM     29  C   UNL d   1      22.045 -18.786  -0.240  0.00  0.00     0.034 A 
ATOM     30 CL   UNL d   1      20.779 -19.808   0.324  0.00  0.00    -0.084 Cl
ATOM     31  C   UNL d   1      23.331 -19.299  -0.414  0.00  0.00     0.026 A 
ATOM     32  C   UNL d   1      24.359 -18.472  -0.895  0.00  0.00     0.033 A 
ENDBRANCH   3  26
TORSDOF 5
ENDMDL
MODEL 9
REMARK VINA RESULT:    -7.461      5.162      9.299
REMARK INTER + INTRA:         -11.432
REMARK INTER:                  -8.953
REMARK INTRA:                  -2.480
REMARK CONF_INDEPENDENT:        1.492
REMARK UNBOUND:                -2.480
REMARK  5 active torsions:
REMARK  status: ('A' for Active; 'I' for Inactive)
REMARK       I    between atoms: C_2  and  N_3 
REMARK    1  A    between atoms: C_2  and  C_24 
REMARK    2  A    between atoms: N_3  and  N_4 
REMARK       I    between atoms: N_4  and  C_5 
REMARK    3  A    between atoms: C_5  and  C_7 
REMARK    4  A    between atoms: N_9  and  C_10 
REMARK       I    between atoms: C_24  and  N_26 
REMARK    5  A    between atoms: N_26  and  C_27 
ROOT
ATOM      1  C   UNL d   1      28.848 -15.068   1.071  0.00  0.00     0.154 A 
ATOM      2  N   UNL d   1      27.555 -15.457   1.120  0.00  0.00    -0.161 NA
ATOM      3  N   UNL d   1      27.321 -16.145  -0.030  0.00  0.00    -0.237 N 
ATOM      4  C   UNL d   1      28.416 -16.103  -0.877  0.00  0.00     0.045 A 
ATOM      5  C   UNL d   1      29.406 -15.398  -0.198  0.00  0.00     0.003 A 
ATOM      6  C   UNL d   1      30.786 -15.119  -0.703  0.00  0.00     0.043 C 
ATOM      7  C   UNL d   1      31.360 -16.328  -1.440  0.00  0.00     0.005 C 
ATOM      8  C   UNL d   1      30.905 -16.393  -2.902  0.00  0.00     0.001 C 
ATOM      9  C   UNL d   1      29.468 -15.907  -3.148  0.00  0.00     0.006 C 
ATOM     10  C   UNL d   1      28.455 -16.662  -2.273  0.00  0.00     0.060 C 
ENDROOT
BRANCH   1  11
ATOM     11  C   UNL d   1      29.534 -14.442   2.233  0.00  0.00     0.291 C 
ATOM     12  N   UNL d   1      29.114 -14.825   3.509  0.00  0.00    -0.262 N 
ATOM     13  H   UNL d   1      28.431 -15.562   3.684  0.00  0.00     0.190 HD
ATOM     14  O   UNL d   1      30.421 -13.586   2.112  0.00  0.00    -0.264 OA
BRANCH  12  15
ATOM     15  N   UNL d   1      29.733 -14.229   4.656  0.00  0.00    -0.259 N 
ATOM     16  C   UNL d   1      29.224 -14.498   5.920  0.00  0.00     0.327 C 
ATOM     17  O   UNL d   1      28.246 -15.233   6.076  0.00  0.00    -0.261 OA
ATOM     18  H   UNL d   1      30.536 -13.641   4.455  0.00  0.00     0.190 HD
BRANCH  16  19
ATOM     19  C   UNL d   1      29.913 -13.845   7.161  0.00  0.00     0.311 C 
ATOM     20  O   UNL d   1      30.576 -12.820   7.008  0.00  0.00    -0.262 OA
ATOM     21  N   UNL d   1      29.752 -14.447   8.406  0.00  0.00    -0.348 N 
ATOM     22  H   UNL d   1      29.157 -15.252   8.527  0.00  0.00     0.163 HD
BRANCH  21  23
ATOM     23  C   UNL d   1      30.350 -13.887   9.593  0.00  0.00     0.085 A 
ATOM     24  C   UNL d   1      30.099 -14.497  10.948  0.00  0.00     0.027 A 
ATOM     25  C   UNL d   1      31.454 -14.615  10.315  0.00  0.00     0.027 A 
ENDBRANCH  21  23
ENDBRANCH  16  19
ENDBRANCH  12  15
ENDBRANCH   1  11
BRANCH   3  26
ATOM     26  C   UNL d   1      26.043 -16.726  -0.283  0.00  0.00     0.058 A 
ATOM     27  C   UNL d   1      25.739 -17.971   0.286  0.00  0.00     0.033 A 
ATOM     28  C   UNL d   1      24.465 -18.530   0.114  0.00  0.00     0.026 A 
ATOM     29  C   UNL d   1      23.515 -17.872  -0.667  0.00  0.00     0.034 A 
ATOM     30 CL   UNL d   1      21.960 -18.575  -0.895  0.00  0.00    -0.084 Cl
ATOM     31  C   UNL d   1      23.822 -16.649  -1.264  0.00  0.00     0.026 A 
ATOM     32  C   UNL d   1      25.082 -16.063  -1.061  0.00  0.00     0.033 A 
ENDBRANCH   3  26
TORSDOF 5
ENDMDL
