MODEL 1
REMARK VINA RESULT:   -10.073      0.000      0.000
REMARK INTER + INTRA:         -14.054
REMARK INTER:                 -12.161
REMARK INTRA:                  -1.893
REMARK CONF_INDEPENDENT:        2.088
REMARK UNBOUND:                -1.893
REMARK  7 active torsions:
REMARK  status: ('A' for Active; 'I' for Inactive)
REMARK    1  A    between atoms: C_2  and  C_3 
REMARK       I    between atoms: C_2  and  N_11 
REMARK    2  A    between atoms: C_3  and  C_4 
REMARK    3  A    between atoms: C_4  and  C_5 
REMARK    4  A    between atoms: N_11  and  N_12 
REMARK       I    between atoms: N_12  and  C_13 
REMARK    5  A    between atoms: C_13  and  C_15 
REMARK    6  A    between atoms: C_18  and  N_19 
REMARK       I    between atoms: N_19  and  C_20 
REMARK    7  A    between atoms: C_20  and  C_22 
ROOT
ATOM      1  C   UNL d   1      26.055 -16.323  -1.063  0.00  0.00     0.033 A 
ATOM      2  C   UNL d   1      24.737 -16.048  -1.462  0.00  0.00     0.019 A 
ATOM      3  C   UNL d   1      23.658 -16.841  -0.997  0.00  0.00     0.030 A 
ATOM      4  C   UNL d   1      23.890 -17.949  -0.169  0.00  0.00     0.035 A 
ATOM      5  C   UNL d   1      25.210 -18.182   0.232  0.00  0.00     0.030 A 
ATOM      6  C   UNL d   1      26.279 -17.393  -0.204  0.00  0.00     0.019 A 
ENDROOT
BRANCH   1   7
ATOM      7  C   UNL d   1      27.191 -15.428  -1.431  0.00  0.00     0.270 C 
ATOM      8  N   UNL d   1      28.151 -15.957  -2.286  0.00  0.00    -0.263 N 
ATOM      9  H   UNL d   1      28.033 -16.862  -2.727  0.00  0.00     0.190 HD
ATOM     10  O   UNL d   1      27.253 -14.289  -0.961  0.00  0.00    -0.266 OA
BRANCH   8  11
ATOM     11  N   UNL d   1      29.252 -15.157  -2.643  0.00  0.00    -0.267 N 
ATOM     12  C   UNL d   1      29.851 -15.116  -3.882  0.00  0.00     0.236 C 
ATOM     13  O   UNL d   1      30.820 -14.383  -4.077  0.00  0.00    -0.272 OA
ATOM     14  H   UNL d   1      29.644 -14.567  -1.907  0.00  0.00     0.190 HD
BRANCH  12  15
ATOM     15  C   UNL d   1      29.279 -16.004  -4.969  0.00  0.00     0.109 C 
BRANCH  15  16
ATOM     16  C   UNL d   1      28.501 -15.199  -6.020  0.00  0.00     0.048 C 
BRANCH  16  17
ATOM     17  C   UNL d   1      27.323 -14.460  -5.425  0.00  0.00    -0.058 A 
ATOM     18  C   UNL d   1      27.286 -13.059  -5.461  0.00  0.00     0.007 A 
ATOM     19  C   UNL d   1      26.248 -12.362  -4.840  0.00  0.00     0.001 A 
ATOM     20  C   UNL d   1      25.196 -13.058  -4.247  0.00  0.00     0.000 A 
ATOM     21  C   UNL d   1      25.199 -14.451  -4.245  0.00  0.00     0.001 A 
ATOM     22  C   UNL d   1      26.256 -15.147  -4.830  0.00  0.00     0.007 A 
ENDBRANCH  16  17
ENDBRANCH  15  16
ENDBRANCH  12  15
ENDBRANCH   8  11
ENDBRANCH   1   7
BRANCH   4  23
ATOM     23  N   UNL d   1      22.815 -18.807   0.218  0.00  0.00    -0.323 N 
ATOM     24  C   UNL d   1      21.485 -18.625  -0.153  0.00  0.00     0.256 C 
ATOM     25  O   UNL d   1      21.048 -17.743  -0.895  0.00  0.00    -0.267 OA
ATOM     26  H   UNL d   1      23.039 -19.588   0.824  0.00  0.00     0.169 HD
BRANCH  24  27
ATOM     27  C   UNL d   1      20.454 -19.546   0.383  0.00  0.00     0.032 A 
ATOM     28  C   UNL d   1      19.502 -20.051  -0.522  0.00  0.00     0.017 A 
ATOM     29  C   UNL d   1      18.371 -20.723  -0.058  0.00  0.00     0.001 A 
ATOM     30  C   UNL d   1      18.212 -20.941   1.307  0.00  0.00     0.000 A 
ATOM     31  C   UNL d   1      19.159 -20.450   2.210  0.00  0.00     0.001 A 
ATOM     32  C   UNL d   1      20.278 -19.740   1.754  0.00  0.00     0.017 A 
ENDBRANCH  24  27
ENDBRANCH   4  23
TORSDOF 7
ENDMDL
MODEL 2
REMARK VINA RESULT:    -9.875      0.655      1.673
REMARK INTER + INTRA:         -13.695
REMARK INTER:                 -11.963
REMARK INTRA:                  -1.732
REMARK CONF_INDEPENDENT:        2.088
REMARK UNBOUND:                -1.732
REMARK  7 active torsions:
REMARK  status: ('A' for Active; 'I' for Inactive)
REMARK    1  A    between atoms: C_2  and  C_3 
REMARK       I    between atoms: C_2  and  N_11 
REMARK    2  A    between atoms: C_3  and  C_4 
REMARK    3  A    between atoms: C_4  and  C_5 
REMARK    4  A    between atoms: N_11  and  N_12 
REMARK       I    between atoms: N_12  and  C_13 
REMARK    5  A    between atoms: C_13  and  C_15 
REMARK    6  A    between atoms: C_18  and  N_19 
REMARK       I    between atoms: N_19  and  C_20 
REMARK    7  A    between atoms: C_20  and  C_22 
ROOT
ATOM      1  C   UNL d   1      26.018 -16.686  -0.968  0.00  0.00     0.033 A 
ATOM      2  C   UNL d   1      26.097 -17.813  -0.134  0.00  0.00     0.019 A 
ATOM      3  C   UNL d   1      24.936 -18.555   0.195  0.00  0.00     0.030 A 
ATOM      4  C   UNL d   1      23.674 -18.150  -0.265  0.00  0.00     0.035 A 
ATOM      5  C   UNL d   1      23.630 -17.039  -1.114  0.00  0.00     0.030 A 
ATOM      6  C   UNL d   1      24.774 -16.312  -1.461  0.00  0.00     0.019 A 
ENDROOT
BRANCH   1   7
ATOM      7  C   UNL d   1      27.239 -15.966  -1.436  0.00  0.00     0.270 C 
ATOM      8  N   UNL d   1      28.445 -16.647  -1.324  0.00  0.00    -0.263 N 
ATOM      9  H   UNL d   1      28.486 -17.621  -1.045  0.00  0.00     0.190 HD
ATOM     10  O   UNL d   1      27.145 -14.817  -1.872  0.00  0.00    -0.266 OA
BRANCH   8  11
ATOM     11  N   UNL d   1      29.626 -16.000  -1.732  0.00  0.00    -0.267 N 
ATOM     12  C   UNL d   1      30.072 -15.876  -3.029  0.00  0.00     0.236 C 
ATOM     13  O   UNL d   1      31.130 -15.294  -3.267  0.00  0.00    -0.272 OA
ATOM     14  H   UNL d   1      30.206 -15.600  -0.992  0.00  0.00     0.190 HD
BRANCH  12  15
ATOM     15  C   UNL d   1      29.219 -16.481  -4.126  0.00  0.00     0.109 C 
BRANCH  15  16
ATOM     16  C   UNL d   1      28.892 -15.465  -5.229  0.00  0.00     0.048 C 
BRANCH  16  17
ATOM     17  C   UNL d   1      27.686 -14.617  -4.894  0.00  0.00    -0.058 A 
ATOM     18  C   UNL d   1      26.429 -15.218  -4.737  0.00  0.00     0.007 A 
ATOM     19  C   UNL d   1      25.294 -14.436  -4.512  0.00  0.00     0.001 A 
ATOM     20  C   UNL d   1      25.414 -13.056  -4.362  0.00  0.00     0.000 A 
ATOM     21  C   UNL d   1      26.665 -12.452  -4.471  0.00  0.00     0.001 A 
ATOM     22  C   UNL d   1      27.794 -13.228  -4.735  0.00  0.00     0.007 A 
ENDBRANCH  16  17
ENDBRANCH  15  16
ENDBRANCH  12  15
ENDBRANCH   8  11
ENDBRANCH   1   7
BRANCH   4  23
ATOM     23  N   UNL d   1      22.492 -18.839   0.148  0.00  0.00    -0.323 N 
ATOM     24  C   UNL d   1      21.219 -18.600  -0.363  0.00  0.00     0.256 C 
ATOM     25  O   UNL d   1      20.929 -17.808  -1.262  0.00  0.00    -0.267 OA
ATOM     26  H   UNL d   1      22.591 -19.532   0.881  0.00  0.00     0.169 HD
BRANCH  24  27
ATOM     27  C   UNL d   1      20.063 -19.331   0.210  0.00  0.00     0.032 A 
ATOM     28  C   UNL d   1      20.074 -19.581   1.595  0.00  0.00     0.017 A 
ATOM     29  C   UNL d   1      19.153 -20.460   2.164  0.00  0.00     0.001 A 
ATOM     30  C   UNL d   1      18.181 -21.051   1.362  0.00  0.00     0.000 A 
ATOM     31  C   UNL d   1      18.158 -20.799  -0.012  0.00  0.00     0.001 A 
ATOM     32  C   UNL d   1      19.105 -19.947  -0.597  0.00  0.00     0.017 A 
ENDBRANCH  24  27
ENDBRANCH   4  23
TORSDOF 7
ENDMDL
MODEL 3
REMARK VINA RESULT:    -9.837      2.046      3.601
REMARK INTER + INTRA:         -12.977
REMARK INTER:                 -11.925
REMARK INTRA:                  -1.052
REMARK CONF_INDEPENDENT:        2.088
REMARK UNBOUND:                -1.052
REMARK  7 active torsions:
REMARK  status: ('A' for Active; 'I' for Inactive)
REMARK    1  A    between atoms: C_2  and  C_3 
REMARK       I    between atoms: C_2  and  N_11 
REMARK    2  A    between atoms: C_3  and  C_4 
REMARK    3  A    between atoms: C_4  and  C_5 
REMARK    4  A    between atoms: N_11  and  N_12 
REMARK       I    between atoms: N_12  and  C_13 
REMARK    5  A    between atoms: C_13  and  C_15 
REMARK    6  A    between atoms: C_18  and  N_19 
REMARK       I    between atoms: N_19  and  C_20 
REMARK    7  A    between atoms: C_20  and  C_22 
ROOT
ATOM      1  C   UNL d   1      26.116 -17.066  -1.119  0.00  0.00     0.033 A 
ATOM      2  C   UNL d   1      24.983 -17.102  -1.948  0.00  0.00     0.019 A 
ATOM      3  C   UNL d   1      23.770 -17.678  -1.494  0.00  0.00     0.030 A 
ATOM      4  C   UNL d   1      23.692 -18.273  -0.226  0.00  0.00     0.035 A 
ATOM      5  C   UNL d   1      24.829 -18.200   0.585  0.00  0.00     0.030 A 
ATOM      6  C   UNL d   1      26.024 -17.614   0.155  0.00  0.00     0.019 A 
ENDROOT
BRANCH   1   7
ATOM      7  C   UNL d   1      27.362 -16.350  -1.522  0.00  0.00     0.270 C 
ATOM      8  N   UNL d   1      28.560 -17.028  -1.332  0.00  0.00    -0.263 N 
ATOM      9  H   UNL d   1      28.585 -18.000  -1.040  0.00  0.00     0.190 HD
ATOM     10  O   UNL d   1      27.294 -15.205  -1.975  0.00  0.00    -0.266 OA
BRANCH   8  11
ATOM     11  N   UNL d   1      29.763 -16.384  -1.676  0.00  0.00    -0.267 N 
ATOM     12  C   UNL d   1      30.189 -16.101  -2.954  0.00  0.00     0.236 C 
ATOM     13  O   UNL d   1      31.270 -15.540  -3.136  0.00  0.00    -0.272 OA
ATOM     14  H   UNL d   1      30.375 -16.118  -0.903  0.00  0.00     0.190 HD
BRANCH  12  15
ATOM     15  C   UNL d   1      29.288 -16.509  -4.102  0.00  0.00     0.109 C 
BRANCH  15  16
ATOM     16  C   UNL d   1      29.990 -16.377  -5.461  0.00  0.00     0.048 C 
BRANCH  16  17
ATOM     17  C   UNL d   1      30.460 -17.709  -6.001  0.00  0.00    -0.058 A 
ATOM     18  C   UNL d   1      31.014 -17.788  -7.286  0.00  0.00     0.007 A 
ATOM     19  C   UNL d   1      31.372 -19.023  -7.828  0.00  0.00     0.001 A 
ATOM     20  C   UNL d   1      31.254 -20.182  -7.063  0.00  0.00     0.000 A 
ATOM     21  C   UNL d   1      30.747 -20.111  -5.768  0.00  0.00     0.001 A 
ATOM     22  C   UNL d   1      30.352 -18.882  -5.240  0.00  0.00     0.007 A 
ENDBRANCH  16  17
ENDBRANCH  15  16
ENDBRANCH  12  15
ENDBRANCH   8  11
ENDBRANCH   1   7
BRANCH   4  23
ATOM     23  N   UNL d   1      22.501 -18.943   0.192  0.00  0.00    -0.323 N 
ATOM     24  C   UNL d   1      21.224 -18.654  -0.281  0.00  0.00     0.256 C 
ATOM     25  O   UNL d   1      20.936 -17.826  -1.148  0.00  0.00    -0.267 OA
ATOM     26  H   UNL d   1      22.597 -19.662   0.900  0.00  0.00     0.169 HD
BRANCH  24  27
ATOM     27  C   UNL d   1      20.061 -19.372   0.296  0.00  0.00     0.032 A 
ATOM     28  C   UNL d   1      20.066 -19.608   1.683  0.00  0.00     0.017 A 
ATOM     29  C   UNL d   1      19.138 -20.475   2.257  0.00  0.00     0.001 A 
ATOM     30  C   UNL d   1      18.165 -21.069   1.458  0.00  0.00     0.000 A 
ATOM     31  C   UNL d   1      18.148 -20.830   0.081  0.00  0.00     0.001 A 
ATOM     32  C   UNL d   1      19.102 -19.991  -0.508  0.00  0.00     0.017 A 
ENDBRANCH  24  27
ENDBRANCH   4  23
TORSDOF 7
ENDMDL
MODEL 4
REMARK VINA RESULT:    -9.795      1.976      3.609
REMARK INTER + INTRA:         -12.868
REMARK INTER:                 -11.883
REMARK INTRA:                  -0.985
REMARK CONF_INDEPENDENT:        2.088
REMARK UNBOUND:                -0.985
REMARK  7 active torsions:
REMARK  status: ('A' for Active; 'I' for Inactive)
REMARK    1  A    between atoms: C_2  and  C_3 
REMARK       I    between atoms: C_2  and  N_11 
REMARK    2  A    between atoms: C_3  and  C_4 
REMARK    3  A    between atoms: C_4  and  C_5 
REMARK    4  A    between atoms: N_11  and  N_12 
REMARK       I    between atoms: N_12  and  C_13 
REMARK    5  A    between atoms: C_13  and  C_15 
REMARK    6  A    between atoms: C_18  and  N_19 
REMARK       I    between atoms: N_19  and  C_20 
REMARK    7  A    between atoms: C_20  and  C_22 
ROOT
ATOM      1  C   UNL d   1      25.762 -16.157  -1.312  0.00  0.00     0.033 A 
ATOM      2  C   UNL d   1      26.065 -17.298  -0.551  0.00  0.00     0.019 A 
ATOM      3  C   UNL d   1      25.045 -18.203  -0.163  0.00  0.00     0.030 A 
ATOM      4  C   UNL d   1      23.704 -17.951  -0.489  0.00  0.00     0.035 A 
ATOM      5  C   UNL d   1      23.437 -16.821  -1.270  0.00  0.00     0.030 A 
ATOM      6  C   UNL d   1      24.440 -15.933  -1.674  0.00  0.00     0.019 A 
ENDROOT
BRANCH   1   7
ATOM      7  C   UNL d   1      26.830 -15.260  -1.843  0.00  0.00     0.270 C 
ATOM      8  N   UNL d   1      26.936 -15.167  -3.226  0.00  0.00    -0.263 N 
ATOM      9  H   UNL d   1      26.255 -15.595  -3.845  0.00  0.00     0.190 HD
ATOM     10  O   UNL d   1      27.578 -14.666  -1.063  0.00  0.00    -0.266 OA
BRANCH   8  11
ATOM     11  N   UNL d   1      27.942 -14.351  -3.773  0.00  0.00    -0.267 N 
ATOM     12  C   UNL d   1      29.008 -14.783  -4.531  0.00  0.00     0.236 C 
ATOM     13  O   UNL d   1      29.837 -13.975  -4.949  0.00  0.00    -0.272 OA
ATOM     14  H   UNL d   1      27.877 -13.351  -3.574  0.00  0.00     0.190 HD
BRANCH  12  15
ATOM     15  C   UNL d   1      29.114 -16.268  -4.813  0.00  0.00     0.109 C 
BRANCH  15  16
ATOM     16  C   UNL d   1      30.574 -16.728  -4.939  0.00  0.00     0.048 C 
BRANCH  16  17
ATOM     17  C   UNL d   1      30.729 -17.909  -5.870  0.00  0.00    -0.058 A 
ATOM     18  C   UNL d   1      31.093 -17.703  -7.208  0.00  0.00     0.007 A 
ATOM     19  C   UNL d   1      31.155 -18.776  -8.098  0.00  0.00     0.001 A 
ATOM     20  C   UNL d   1      30.933 -20.075  -7.644  0.00  0.00     0.000 A 
ATOM     21  C   UNL d   1      30.616 -20.298  -6.306  0.00  0.00     0.001 A 
ATOM     22  C   UNL d   1      30.514 -19.221  -5.424  0.00  0.00     0.007 A 
ENDBRANCH  16  17
ENDBRANCH  15  16
ENDBRANCH  12  15
ENDBRANCH   8  11
ENDBRANCH   1   7
BRANCH   4  23
ATOM     23  N   UNL d   1      22.665 -18.809  -0.014  0.00  0.00    -0.323 N 
ATOM     24  C   UNL d   1      21.315 -18.659  -0.318  0.00  0.00     0.256 C 
ATOM     25  O   UNL d   1      20.824 -17.810  -1.065  0.00  0.00    -0.267 OA
ATOM     26  H   UNL d   1      22.934 -19.565   0.606  0.00  0.00     0.169 HD
BRANCH  24  27
ATOM     27  C   UNL d   1      20.328 -19.574   0.306  0.00  0.00     0.032 A 
ATOM     28  C   UNL d   1      19.318 -20.100  -0.520  0.00  0.00     0.017 A 
ATOM     29  C   UNL d   1      18.226 -20.767   0.034  0.00  0.00     0.001 A 
ATOM     30  C   UNL d   1      18.165 -20.961   1.411  0.00  0.00     0.000 A 
ATOM     31  C   UNL d   1      19.170 -20.450   2.236  0.00  0.00     0.001 A 
ATOM     32  C   UNL d   1      20.251 -19.744   1.689  0.00  0.00     0.017 A 
ENDBRANCH  24  27
ENDBRANCH   4  23
TORSDOF 7
ENDMDL
MODEL 5
REMARK VINA RESULT:    -9.793      3.334      5.272
REMARK INTER + INTRA:         -13.177
REMARK INTER:                 -11.881
REMARK INTRA:                  -1.296
REMARK CONF_INDEPENDENT:        2.088
REMARK UNBOUND:                -1.296
REMARK  7 active torsions:
REMARK  status: ('A' for Active; 'I' for Inactive)
REMARK    1  A    between atoms: C_2  and  C_3 
REMARK       I    between atoms: C_2  and  N_11 
REMARK    2  A    between atoms: C_3  and  C_4 
REMARK    3  A    between atoms: C_4  and  C_5 
REMARK    4  A    between atoms: N_11  and  N_12 
REMARK       I    between atoms: N_12  and  C_13 
REMARK    5  A    between atoms: C_13  and  C_15 
REMARK    6  A    between atoms: C_18  and  N_19 
REMARK       I    between atoms: N_19  and  C_20 
REMARK    7  A    between atoms: C_20  and  C_22 
ROOT
ATOM      1  C   UNL d   1      25.690 -16.548  -1.116  0.00  0.00     0.033 A 
ATOM      2  C   UNL d   1      25.847 -17.776  -0.455  0.00  0.00     0.019 A 
ATOM      3  C   UNL d   1      24.719 -18.550  -0.085  0.00  0.00     0.030 A 
ATOM      4  C   UNL d   1      23.419 -18.081  -0.327  0.00  0.00     0.035 A 
ATOM      5  C   UNL d   1      23.295 -16.866  -1.009  0.00  0.00     0.030 A 
ATOM      6  C   UNL d   1      24.403 -16.105  -1.397  0.00  0.00     0.019 A 
ENDROOT
BRANCH   1   7
ATOM      7  C   UNL d   1      26.859 -15.777  -1.633  0.00  0.00     0.270 C 
ATOM      8  N   UNL d   1      27.729 -15.254  -0.684  0.00  0.00    -0.263 N 
ATOM      9  H   UNL d   1      27.641 -15.474   0.302  0.00  0.00     0.190 HD
ATOM     10  O   UNL d   1      27.001 -15.616  -2.847  0.00  0.00    -0.266 OA
BRANCH   8  11
ATOM     11  N   UNL d   1      28.834 -14.501  -1.123  0.00  0.00    -0.267 N 
ATOM     12  C   UNL d   1      29.886 -14.080  -0.339  0.00  0.00     0.236 C 
ATOM     13  O   UNL d   1      30.796 -13.415  -0.832  0.00  0.00    -0.272 OA
ATOM     14  H   UNL d   1      28.842 -14.237  -2.109  0.00  0.00     0.190 HD
BRANCH  12  15
ATOM     15  C   UNL d   1      29.866 -14.460   1.128  0.00  0.00     0.109 C 
BRANCH  15  16
ATOM     16  C   UNL d   1      28.631 -13.904   1.850  0.00  0.00     0.048 C 
BRANCH  16  17
ATOM     17  C   UNL d   1      28.726 -14.049   3.352  0.00  0.00    -0.058 A 
ATOM     18  C   UNL d   1      27.562 -14.024   4.133  0.00  0.00     0.007 A 
ATOM     19  C   UNL d   1      27.644 -14.070   5.526  0.00  0.00     0.001 A 
ATOM     20  C   UNL d   1      28.880 -14.223   6.149  0.00  0.00     0.000 A 
ATOM     21  C   UNL d   1      30.040 -14.296   5.382  0.00  0.00     0.001 A 
ATOM     22  C   UNL d   1      29.963 -14.209   3.991  0.00  0.00     0.007 A 
ENDBRANCH  16  17
ENDBRANCH  15  16
ENDBRANCH  12  15
ENDBRANCH   8  11
ENDBRANCH   1   7
BRANCH   4  23
ATOM     23  N   UNL d   1      22.282 -18.813   0.135  0.00  0.00    -0.323 N 
ATOM     24  C   UNL d   1      20.988 -18.654  -0.353  0.00  0.00     0.256 C 
ATOM     25  O   UNL d   1      20.639 -17.908  -1.270  0.00  0.00    -0.267 OA
ATOM     26  H   UNL d   1      22.431 -19.476   0.887  0.00  0.00     0.169 HD
BRANCH  24  27
ATOM     27  C   UNL d   1      19.882 -19.421   0.270  0.00  0.00     0.032 A 
ATOM     28  C   UNL d   1      19.957 -19.660   1.654  0.00  0.00     0.017 A 
ATOM     29  C   UNL d   1      19.091 -20.567   2.265  0.00  0.00     0.001 A 
ATOM     30  C   UNL d   1      18.111 -21.199   1.505  0.00  0.00     0.000 A 
ATOM     31  C   UNL d   1      18.025 -20.959   0.132  0.00  0.00     0.001 A 
ATOM     32  C   UNL d   1      18.917 -20.078  -0.495  0.00  0.00     0.017 A 
ENDBRANCH  24  27
ENDBRANCH   4  23
TORSDOF 7
ENDMDL
MODEL 6
REMARK VINA RESULT:    -9.736      1.388      2.558
REMARK INTER + INTRA:         -13.797
REMARK INTER:                 -11.824
REMARK INTRA:                  -1.973
REMARK CONF_INDEPENDENT:        2.088
REMARK UNBOUND:                -1.973
REMARK  7 active torsions:
REMARK  status: ('A' for Active; 'I' for Inactive)
REMARK    1  A    between atoms: C_2  and  C_3 
REMARK       I    between atoms: C_2  and  N_11 
REMARK    2  A    between atoms: C_3  and  C_4 
REMARK    3  A    between atoms: C_4  and  C_5 
REMARK    4  A    between atoms: N_11  and  N_12 
REMARK       I    between atoms: N_12  and  C_13 
REMARK    5  A    between atoms: C_13  and  C_15 
REMARK    6  A    between atoms: C_18  and  N_19 
REMARK       I    between atoms: N_19  and  C_20 
REMARK    7  A    between atoms: C_20  and  C_22 
ROOT
ATOM      1  C   UNL d   1      26.006 -16.426  -1.070  0.00  0.00     0.033 A 
ATOM      2  C   UNL d   1      26.148 -17.495  -0.170  0.00  0.00     0.019 A 
ATOM      3  C   UNL d   1      25.030 -18.281   0.205  0.00  0.00     0.030 A 
ATOM      4  C   UNL d   1      23.748 -17.974  -0.276  0.00  0.00     0.035 A 
ATOM      5  C   UNL d   1      23.642 -16.920  -1.189  0.00  0.00     0.030 A 
ATOM      6  C   UNL d   1      24.744 -16.152  -1.581  0.00  0.00     0.019 A 
ENDROOT
BRANCH   1   7
ATOM      7  C   UNL d   1      27.185 -15.667  -1.582  0.00  0.00     0.270 C 
ATOM      8  N   UNL d   1      27.327 -14.359  -1.135  0.00  0.00    -0.263 N 
ATOM      9  H   UNL d   1      26.728 -13.971  -0.414  0.00  0.00     0.190 HD
ATOM     10  O   UNL d   1      27.960 -16.201  -2.378  0.00  0.00    -0.266 OA
BRANCH   8  11
ATOM     11  N   UNL d   1      28.411 -13.597  -1.608  0.00  0.00    -0.267 N 
ATOM     12  C   UNL d   1      28.364 -12.273  -1.985  0.00  0.00     0.236 C 
ATOM     13  O   UNL d   1      29.379 -11.710  -2.395  0.00  0.00    -0.272 OA
ATOM     14  H   UNL d   1      29.307 -14.081  -1.689  0.00  0.00     0.190 HD
BRANCH  12  15
ATOM     15  C   UNL d   1      27.031 -11.559  -1.879  0.00  0.00     0.109 C 
BRANCH  15  16
ATOM     16  C   UNL d   1      26.316 -11.469  -3.234  0.00  0.00     0.048 C 
BRANCH  16  17
ATOM     17  C   UNL d   1      26.405 -12.758  -4.020  0.00  0.00    -0.058 A 
ATOM     18  C   UNL d   1      25.415 -13.740  -3.868  0.00  0.00     0.007 A 
ATOM     19  C   UNL d   1      25.531 -14.968  -4.522  0.00  0.00     0.001 A 
ATOM     20  C   UNL d   1      26.591 -15.198  -5.396  0.00  0.00     0.000 A 
ATOM     21  C   UNL d   1      27.556 -14.212  -5.591  0.00  0.00     0.001 A 
ATOM     22  C   UNL d   1      27.463 -12.999  -4.907  0.00  0.00     0.007 A 
ENDBRANCH  16  17
ENDBRANCH  15  16
ENDBRANCH  12  15
ENDBRANCH   8  11
ENDBRANCH   1   7
BRANCH   4  23
ATOM     23  N   UNL d   1      22.606 -18.703   0.180  0.00  0.00    -0.323 N 
ATOM     24  C   UNL d   1      21.319 -18.558  -0.333  0.00  0.00     0.256 C 
ATOM     25  O   UNL d   1      20.984 -17.829  -1.269  0.00  0.00    -0.267 OA
ATOM     26  H   UNL d   1      22.744 -19.352   0.946  0.00  0.00     0.169 HD
BRANCH  24  27
ATOM     27  C   UNL d   1      20.206 -19.318   0.284  0.00  0.00     0.032 A 
ATOM     28  C   UNL d   1      20.269 -19.552   1.670  0.00  0.00     0.017 A 
ATOM     29  C   UNL d   1      19.396 -20.453   2.278  0.00  0.00     0.001 A 
ATOM     30  C   UNL d   1      18.419 -21.085   1.514  0.00  0.00     0.000 A 
ATOM     31  C   UNL d   1      18.345 -20.850   0.138  0.00  0.00     0.001 A 
ATOM     32  C   UNL d   1      19.244 -19.975  -0.485  0.00  0.00     0.017 A 
ENDBRANCH  24  27
ENDBRANCH   4  23
TORSDOF 7
ENDMDL
MODEL 7
REMARK VINA RESULT:    -9.596      1.379      2.295
REMARK INTER + INTRA:         -13.680
REMARK INTER:                 -11.684
REMARK INTRA:                  -1.995
REMARK CONF_INDEPENDENT:        2.088
REMARK UNBOUND:                -1.995
REMARK  7 active torsions:
REMARK  status: ('A' for Active; 'I' for Inactive)
REMARK    1  A    between atoms: C_2  and  C_3 
REMARK       I    between atoms: C_2  and  N_11 
REMARK    2  A    between atoms: C_3  and  C_4 
REMARK    3  A    between atoms: C_4  and  C_5 
REMARK    4  A    between atoms: N_11  and  N_12 
REMARK       I    between atoms: N_12  and  C_13 
REMARK    5  A    between atoms: C_13  and  C_15 
REMARK    6  A    between atoms: C_18  and  N_19 
REMARK       I    between atoms: N_19  and  C_20 
REMARK    7  A    between atoms: C_20  and  C_22 
ROOT
ATOM      1  C   UNL d   1      26.171 -16.410  -1.102  0.00  0.00     0.033 A 
ATOM      2  C   UNL d   1      24.873 -16.147  -1.571  0.00  0.00     0.019 A 
ATOM      3  C   UNL d   1      23.769 -16.910  -1.117  0.00  0.00     0.030 A 
ATOM      4  C   UNL d   1      23.955 -17.979  -0.227  0.00  0.00     0.035 A 
ATOM      5  C   UNL d   1      25.254 -18.201   0.241  0.00  0.00     0.030 A 
ATOM      6  C   UNL d   1      26.348 -17.440  -0.185  0.00  0.00     0.019 A 
ENDROOT
BRANCH   1   7
ATOM      7  C   UNL d   1      27.329 -15.541  -1.461  0.00  0.00     0.270 C 
ATOM      8  N   UNL d   1      27.119 -14.168  -1.406  0.00  0.00    -0.263 N 
ATOM      9  H   UNL d   1      26.262 -13.772  -1.034  0.00  0.00     0.190 HD
ATOM     10  O   UNL d   1      28.396 -16.051  -1.808  0.00  0.00    -0.266 OA
BRANCH   8  11
ATOM     11  N   UNL d   1      28.175 -13.308  -1.757  0.00  0.00    -0.267 N 
ATOM     12  C   UNL d   1      28.055 -11.977  -2.092  0.00  0.00     0.236 C 
ATOM     13  O   UNL d   1      29.053 -11.324  -2.395  0.00  0.00    -0.272 OA
ATOM     14  H   UNL d   1      29.110 -13.719  -1.777  0.00  0.00     0.190 HD
BRANCH  12  15
ATOM     15  C   UNL d   1      26.666 -11.371  -2.078  0.00  0.00     0.109 C 
BRANCH  15  16
ATOM     16  C   UNL d   1      25.990 -11.449  -3.454  0.00  0.00     0.048 C 
BRANCH  16  17
ATOM     17  C   UNL d   1      26.237 -12.771  -4.146  0.00  0.00    -0.058 A 
ATOM     18  C   UNL d   1      25.279 -13.791  -4.066  0.00  0.00     0.007 A 
ATOM     19  C   UNL d   1      25.533 -15.045  -4.627  0.00  0.00     0.001 A 
ATOM     20  C   UNL d   1      26.709 -15.266  -5.340  0.00  0.00     0.000 A 
ATOM     21  C   UNL d   1      27.648 -14.245  -5.465  0.00  0.00     0.001 A 
ATOM     22  C   UNL d   1      27.413 -13.005  -4.871  0.00  0.00     0.007 A 
ENDBRANCH  16  17
ENDBRANCH  15  16
ENDBRANCH  12  15
ENDBRANCH   8  11
ENDBRANCH   1   7
BRANCH   4  23
ATOM     23  N   UNL d   1      22.857 -18.811   0.152  0.00  0.00    -0.323 N 
ATOM     24  C   UNL d   1      21.531 -18.581  -0.205  0.00  0.00     0.256 C 
ATOM     25  O   UNL d   1      21.115 -17.672  -0.926  0.00  0.00    -0.267 OA
ATOM     26  H   UNL d   1      23.062 -19.609   0.742  0.00  0.00     0.169 HD
BRANCH  24  27
ATOM     27  C   UNL d   1      20.476 -19.480   0.323  0.00  0.00     0.032 A 
ATOM     28  C   UNL d   1      19.519 -19.962  -0.589  0.00  0.00     0.017 A 
ATOM     29  C   UNL d   1      18.370 -20.609  -0.134  0.00  0.00     0.001 A 
ATOM     30  C   UNL d   1      18.198 -20.827   1.230  0.00  0.00     0.000 A 
ATOM     31  C   UNL d   1      19.150 -20.360   2.139  0.00  0.00     0.001 A 
ATOM     32  C   UNL d   1      20.287 -19.674   1.692  0.00  0.00     0.017 A 
ENDBRANCH  24  27
ENDBRANCH   4  23
TORSDOF 7
ENDMDL
MODEL 8
REMARK VINA RESULT:    -9.396      1.276      2.303
REMARK INTER + INTRA:         -12.950
REMARK INTER:                 -11.484
REMARK INTRA:                  -1.466
REMARK CONF_INDEPENDENT:        2.088
REMARK UNBOUND:                -1.466
REMARK  7 active torsions:
REMARK  status: ('A' for Active; 'I' for Inactive)
REMARK    1  A    between atoms: C_2  and  C_3 
REMARK       I    between atoms: C_2  and  N_11 
REMARK    2  A    between atoms: C_3  and  C_4 
REMARK    3  A    between atoms: C_4  and  C_5 
REMARK    4  A    between atoms: N_11  and  N_12 
REMARK       I    between atoms: N_12  and  C_13 
REMARK    5  A    between atoms: C_13  and  C_15 
REMARK    6  A    between atoms: C_18  and  N_19 
REMARK       I    between atoms: N_19  and  C_20 
REMARK    7  A    between atoms: C_20  and  C_22 
ROOT
ATOM      1  C   UNL d   1      26.091 -16.674  -1.260  0.00  0.00     0.033 A 
ATOM      2  C   UNL d   1      24.875 -16.631  -1.961  0.00  0.00     0.019 A 
ATOM      3  C   UNL d   1      23.747 -17.357  -1.503  0.00  0.00     0.030 A 
ATOM      4  C   UNL d   1      23.837 -18.175  -0.367  0.00  0.00     0.035 A 
ATOM      5  C   UNL d   1      25.053 -18.177   0.325  0.00  0.00     0.030 A 
ATOM      6  C   UNL d   1      26.165 -17.447  -0.108  0.00  0.00     0.019 A 
ENDROOT
BRANCH   1   7
ATOM      7  C   UNL d   1      27.251 -15.818  -1.645  0.00  0.00     0.270 C 
ATOM      8  N   UNL d   1      27.133 -14.456  -1.393  0.00  0.00    -0.263 N 
ATOM      9  H   UNL d   1      26.349 -14.074  -0.874  0.00  0.00     0.190 HD
ATOM     10  O   UNL d   1      28.239 -16.326  -2.179  0.00  0.00    -0.266 OA
BRANCH   8  11
ATOM     11  N   UNL d   1      28.193 -13.607  -1.759  0.00  0.00    -0.267 N 
ATOM     12  C   UNL d   1      28.241 -12.818  -2.887  0.00  0.00     0.236 C 
ATOM     13  O   UNL d   1      29.230 -12.120  -3.111  0.00  0.00    -0.272 OA
ATOM     14  H   UNL d   1      29.000 -13.590  -1.134  0.00  0.00     0.190 HD
BRANCH  12  15
ATOM     15  C   UNL d   1      27.049 -12.855  -3.823  0.00  0.00     0.109 C 
BRANCH  15  16
ATOM     16  C   UNL d   1      26.883 -14.228  -4.490  0.00  0.00     0.048 C 
BRANCH  16  17
ATOM     17  C   UNL d   1      28.094 -14.625  -5.302  0.00  0.00    -0.058 A 
ATOM     18  C   UNL d   1      28.424 -13.911  -6.463  0.00  0.00     0.007 A 
ATOM     19  C   UNL d   1      29.488 -14.321  -7.268  0.00  0.00     0.001 A 
ATOM     20  C   UNL d   1      30.283 -15.399  -6.881  0.00  0.00     0.000 A 
ATOM     21  C   UNL d   1      29.993 -16.088  -5.706  0.00  0.00     0.001 A 
ATOM     22  C   UNL d   1      28.905 -15.704  -4.921  0.00  0.00     0.007 A 
ENDBRANCH  16  17
ENDBRANCH  15  16
ENDBRANCH  12  15
ENDBRANCH   8  11
ENDBRANCH   1   7
BRANCH   4  23
ATOM     23  N   UNL d   1      22.732 -18.985   0.037  0.00  0.00    -0.323 N 
ATOM     24  C   UNL d   1      21.400 -18.711  -0.263  0.00  0.00     0.256 C 
ATOM     25  O   UNL d   1      20.983 -17.774  -0.947  0.00  0.00    -0.267 OA
ATOM     26  H   UNL d   1      22.936 -19.802   0.600  0.00  0.00     0.169 HD
BRANCH  24  27
ATOM     27  C   UNL d   1      20.340 -19.592   0.286  0.00  0.00     0.032 A 
ATOM     28  C   UNL d   1      19.363 -20.066  -0.608  0.00  0.00     0.017 A 
ATOM     29  C   UNL d   1      18.213 -20.695  -0.133  0.00  0.00     0.001 A 
ATOM     30  C   UNL d   1      18.058 -20.902   1.235  0.00  0.00     0.000 A 
ATOM     31  C   UNL d   1      19.030 -20.442   2.127  0.00  0.00     0.001 A 
ATOM     32  C   UNL d   1      20.169 -19.775   1.659  0.00  0.00     0.017 A 
ENDBRANCH  24  27
ENDBRANCH   4  23
TORSDOF 7
ENDMDL
MODEL 9
REMARK VINA RESULT:    -8.349      2.521      3.634
REMARK INTER + INTRA:         -12.577
REMARK INTER:                 -10.437
REMARK INTRA:                  -2.140
REMARK CONF_INDEPENDENT:        2.088
REMARK UNBOUND:                -2.140
REMARK  7 active torsions:
REMARK  status: ('A' for Active; 'I' for Inactive)
REMARK    1  A    between atoms: C_2  and  C_3 
REMARK       I    between atoms: C_2  and  N_11 
REMARK    2  A    between atoms: C_3  and  C_4 
REMARK    3  A    between atoms: C_4  and  C_5 
REMARK    4  A    between atoms: N_11  and  N_12 
REMARK       I    between atoms: N_12  and  C_13 
REMARK    5  A    between atoms: C_13  and  C_15 
REMARK    6  A    between atoms: C_18  and  N_19 
REMARK       I    between atoms: N_19  and  C_20 
REMARK    7  A    between atoms: C_20  and  C_22 
ROOT
ATOM      1  C   UNL d   1      27.002 -17.084  -0.861  0.00  0.00     0.033 A 
ATOM      2  C   UNL d   1      25.868 -16.833  -1.650  0.00  0.00     0.019 A 
ATOM      3  C   UNL d   1      24.605 -17.368  -1.295  0.00  0.00     0.030 A 
ATOM      4  C   UNL d   1      24.471 -18.203  -0.176  0.00  0.00     0.035 A 
ATOM      5  C   UNL d   1      25.613 -18.414   0.604  0.00  0.00     0.030 A 
ATOM      6  C   UNL d   1      26.860 -17.873   0.273  0.00  0.00     0.019 A 
ENDROOT
BRANCH   1   7
ATOM      7  C   UNL d   1      28.314 -16.427  -1.138  0.00  0.00     0.270 C 
ATOM      8  N   UNL d   1      29.330 -16.651  -0.217  0.00  0.00    -0.263 N 
ATOM      9  H   UNL d   1      29.227 -17.314   0.543  0.00  0.00     0.190 HD
ATOM     10  O   UNL d   1      28.443 -15.709  -2.132  0.00  0.00    -0.266 OA
BRANCH   8  11
ATOM     11  N   UNL d   1      30.577 -16.034  -0.425  0.00  0.00    -0.267 N 
ATOM     12  C   UNL d   1      31.196 -15.155   0.436  0.00  0.00     0.236 C 
ATOM     13  O   UNL d   1      32.287 -14.667   0.143  0.00  0.00    -0.272 OA
ATOM     14  H   UNL d   1      31.054 -16.253  -1.301  0.00  0.00     0.190 HD
BRANCH  12  15
ATOM     15  C   UNL d   1      30.482 -14.818   1.730  0.00  0.00     0.109 C 
BRANCH  15  16
ATOM     16  C   UNL d   1      29.821 -13.433   1.680  0.00  0.00     0.048 C 
BRANCH  16  17
ATOM     17  C   UNL d   1      28.602 -13.406   0.786  0.00  0.00    -0.058 A 
ATOM     18  C   UNL d   1      27.433 -14.074   1.178  0.00  0.00     0.007 A 
ATOM     19  C   UNL d   1      26.330 -14.129   0.323  0.00  0.00     0.001 A 
ATOM     20  C   UNL d   1      26.354 -13.452  -0.894  0.00  0.00     0.000 A 
ATOM     21  C   UNL d   1      27.494 -12.747  -1.274  0.00  0.00     0.001 A 
ATOM     22  C   UNL d   1      28.611 -12.725  -0.438  0.00  0.00     0.007 A 
ENDBRANCH  16  17
ENDBRANCH  15  16
ENDBRANCH  12  15
ENDBRANCH   8  11
ENDBRANCH   1   7
BRANCH   4  23
ATOM     23  N   UNL d   1      23.220 -18.824   0.125  0.00  0.00    -0.323 N 
ATOM     24  C   UNL d   1      21.976 -18.310  -0.232  0.00  0.00     0.256 C 
ATOM     25  O   UNL d   1      21.769 -17.287  -0.888  0.00  0.00    -0.267 OA
ATOM     26  H   UNL d   1      23.245 -19.688   0.656  0.00  0.00     0.169 HD
BRANCH  24  27
ATOM     27  C   UNL d   1      20.749 -19.015   0.212  0.00  0.00     0.032 A 
ATOM     28  C   UNL d   1      20.639 -19.329   1.579  0.00  0.00     0.017 A 
ATOM     29  C   UNL d   1      19.641 -20.192   2.029  0.00  0.00     0.001 A 
ATOM     30  C   UNL d   1      18.713 -20.702   1.125  0.00  0.00     0.000 A 
ATOM     31  C   UNL d   1      18.811 -20.386  -0.232  0.00  0.00     0.001 A 
ATOM     32  C   UNL d   1      19.835 -19.551  -0.698  0.00  0.00     0.017 A 
ENDBRANCH  24  27
ENDBRANCH   4  23
TORSDOF 7
ENDMDL
