MODEL 1
REMARK VINA RESULT:   -30.464      0.000      0.000
REMARK INTER + INTRA:         -34.871
REMARK INTER:                 -33.746
REMARK INTRA:                  -1.125
REMARK CONF_INDEPENDENT:        3.281
REMARK UNBOUND:                -1.125
REMARK  11 active torsions:
REMARK  status: ('A' for Active; 'I' for Inactive)
REMARK    1  A    between atoms: C_2  and  N_3 
REMARK    2  A    between atoms: N_3  and  C_4 
REMARK    3  A    between atoms: N_3  and  C_6 
REMARK    4  A    between atoms: C_6  and  C_7 
REMARK    5  A    between atoms: C_7  and  O_8 
REMARK    6  A    between atoms: O_8  and  C_9 
REMARK    7  A    between atoms: C_11  and  N_12 
REMARK    8  A    between atoms: N_12  and  C_13 
REMARK    9  A    between atoms: C_17  and  O_18 
REMARK   10  A    between atoms: O_18  and  C_19 
REMARK   11  A    between atoms: C_23  and  C_24 
REMARK       I    between atoms: C_24  and  N_26 
ROOT
ATOM      1  C   UNL d   1      28.824 -16.954  -1.293  0.00  0.00     0.252 A 
ATOM      2  N   UNL d   1      28.324 -17.765  -0.376  0.00  0.00    -0.206 NA
ATOM      3  C   UNL d   1      26.954 -17.557  -0.438  0.00  0.00     0.097 A 
ATOM      4  C   UNL d   1      25.872 -18.065   0.318  0.00  0.00     0.072 A 
ATOM      5  C   UNL d   1      24.554 -17.649   0.004  0.00  0.00     0.078 A 
ATOM      6  C   UNL d   1      24.349 -16.736  -1.040  0.00  0.00     0.040 A 
ATOM      7  C   UNL d   1      25.407 -16.233  -1.808  0.00  0.00     0.042 A 
ATOM      8  C   UNL d   1      26.680 -16.661  -1.456  0.00  0.00     0.108 A 
ATOM      9  O   UNL d   1      27.867 -16.272  -2.008  0.00  0.00    -0.276 OA
ENDROOT
BRANCH   1  10
ATOM     10  N   UNL d   1      30.129 -16.689  -1.599  0.00  0.00    -0.320 N 
ATOM     11  H   UNL d   1      30.385 -16.909  -2.554  0.00  0.00     0.169 HD
BRANCH  10  12
ATOM     12  C   UNL d   1      31.191 -16.967  -0.684  0.00  0.00     0.038 A 
ATOM     13  C   UNL d   1      31.680 -16.002   0.233  0.00  0.00     0.068 A 
ATOM     14  C   UNL d   1      32.652 -16.327   1.225  0.00  0.00     0.092 A 
ATOM     15  C   UNL d   1      33.089 -17.665   1.315  0.00  0.00     0.067 A 
ATOM     16  C   UNL d   1      32.637 -18.603   0.393  0.00  0.00     0.029 A 
ATOM     17 CL   UNL d   1      34.083 -18.375   2.546  0.00  0.00    -0.081 Cl
ATOM     18  C   UNL d   1      31.707 -18.262  -0.577  0.00  0.00     0.031 A 
BRANCH  14  19
ATOM     19  O   UNL d   1      33.002 -15.278   2.062  0.00  0.00    -0.348 OA
BRANCH  19  20
ATOM     20  C   UNL d   1      31.987 -14.296   2.291  0.00  0.00     0.203 C 
BRANCH  20  21
ATOM     21  C   UNL d   1      30.810 -14.830   3.113  0.00  0.00     0.261 C 
BRANCH  21  22
ATOM     22  N   UNL d   1      30.599 -14.021   4.437  0.00  0.00    -0.070 N 
ATOM     23  H   UNL d   1      31.527 -13.925   4.875  0.00  0.00     0.279 HD
BRANCH  22  24
ATOM     24  C   UNL d   1      30.113 -12.628   4.056  0.00  0.00     0.230 C 
ATOM     25  C   UNL d   1      29.754 -11.758   5.246  0.00  0.00     0.034 C 
ENDBRANCH  22  24
BRANCH  22  26
ATOM     26  C   UNL d   1      29.682 -14.770   5.407  0.00  0.00     0.230 C 
ATOM     27  C   UNL d   1      28.219 -14.786   5.011  0.00  0.00     0.034 C 
ENDBRANCH  22  26
ENDBRANCH  21  22
ENDBRANCH  20  21
ENDBRANCH  19  20
ENDBRANCH  14  19
ENDBRANCH  10  12
ENDBRANCH   1  10
BRANCH   5  28
ATOM     28  O   UNL d   1      23.531 -18.161   0.798  0.00  0.00    -0.311 OA
BRANCH  28  29
ATOM     29  C   UNL d   1      22.346 -18.562   0.205  0.00  0.00     0.079 A 
ATOM     30  C   UNL d   1      22.172 -18.563  -1.177  0.00  0.00     0.056 A 
ATOM     31  C   UNL d   1      20.935 -18.928  -1.673  0.00  0.00     0.120 A 
ATOM     32  N   UNL d   1      19.905 -19.323  -0.895  0.00  0.00    -0.255 NA
ATOM     33  C   UNL d   1      20.105 -19.383   0.450  0.00  0.00     0.126 A 
ATOM     34  C   UNL d   1      21.318 -19.020   1.031  0.00  0.00     0.074 A 
BRANCH  33  35
ATOM     35  C   UNL d   1      18.901 -19.844   1.258  0.00  0.00     0.269 C 
ATOM     36  O   UNL d   1      18.406 -19.120   2.110  0.00  0.00    -0.266 OA
ATOM     37  N   UNL d   1      18.394 -21.115   1.000  0.00  0.00    -0.360 N 
ATOM     38  C   UNL d   1      17.252 -21.641   1.715  0.00  0.00     0.149 C 
ATOM     39  H   UNL d   1      18.796 -21.713   0.300  0.00  0.00     0.162 HD
ENDBRANCH  33  35
ENDBRANCH  28  29
ENDBRANCH   5  28
TORSDOF 11
ENDMDL
MODEL 2
REMARK VINA RESULT:   -30.334      2.880      4.457
REMARK INTER + INTRA:         -34.619
REMARK INTER:                 -33.615
REMARK INTRA:                  -1.005
REMARK CONF_INDEPENDENT:        3.281
REMARK UNBOUND:                -1.005
REMARK  11 active torsions:
REMARK  status: ('A' for Active; 'I' for Inactive)
REMARK    1  A    between atoms: C_2  and  N_3 
REMARK    2  A    between atoms: N_3  and  C_4 
REMARK    3  A    between atoms: N_3  and  C_6 
REMARK    4  A    between atoms: C_6  and  C_7 
REMARK    5  A    between atoms: C_7  and  O_8 
REMARK    6  A    between atoms: O_8  and  C_9 
REMARK    7  A    between atoms: C_11  and  N_12 
REMARK    8  A    between atoms: N_12  and  C_13 
REMARK    9  A    between atoms: C_17  and  O_18 
REMARK   10  A    between atoms: O_18  and  C_19 
REMARK   11  A    between atoms: C_23  and  C_24 
REMARK       I    between atoms: C_24  and  N_26 
ROOT
ATOM      1  C   UNL d   1      26.423 -15.101  -3.117  0.00  0.00     0.252 A 
ATOM      2  N   UNL d   1      25.183 -15.088  -2.660  0.00  0.00    -0.206 NA
ATOM      3  C   UNL d   1      25.172 -16.044  -1.656  0.00  0.00     0.097 A 
ATOM      4  C   UNL d   1      24.144 -16.554  -0.828  0.00  0.00     0.072 A 
ATOM      5  C   UNL d   1      24.456 -17.555   0.124  0.00  0.00     0.078 A 
ATOM      6  C   UNL d   1      25.772 -18.028   0.222  0.00  0.00     0.040 A 
ATOM      7  C   UNL d   1      26.806 -17.526  -0.580  0.00  0.00     0.042 A 
ATOM      8  C   UNL d   1      26.449 -16.555  -1.506  0.00  0.00     0.108 A 
ATOM      9  O   UNL d   1      27.254 -15.958  -2.433  0.00  0.00    -0.276 OA
ENDROOT
BRANCH   1  10
ATOM     10  N   UNL d   1      26.969 -14.418  -4.166  0.00  0.00    -0.320 N 
ATOM     11  H   UNL d   1      26.316 -14.211  -4.913  0.00  0.00     0.169 HD
BRANCH  10  12
ATOM     12  C   UNL d   1      28.274 -14.717  -4.667  0.00  0.00     0.038 A 
ATOM     13  C   UNL d   1      29.289 -15.288  -3.856  0.00  0.00     0.068 A 
ATOM     14  C   UNL d   1      30.544 -15.698  -4.396  0.00  0.00     0.092 A 
ATOM     15  C   UNL d   1      30.743 -15.574  -5.787  0.00  0.00     0.067 A 
ATOM     16  C   UNL d   1      29.763 -14.982  -6.575  0.00  0.00     0.029 A 
ATOM     17 CL   UNL d   1      32.066 -16.186  -6.727  0.00  0.00    -0.081 Cl
ATOM     18  C   UNL d   1      28.557 -14.571  -6.028  0.00  0.00     0.031 A 
BRANCH  14  19
ATOM     19  O   UNL d   1      31.415 -16.263  -3.477  0.00  0.00    -0.348 OA
BRANCH  19  20
ATOM     20  C   UNL d   1      31.033 -16.150  -2.103  0.00  0.00     0.203 C 
BRANCH  20  21
ATOM     21  C   UNL d   1      31.335 -17.413  -1.289  0.00  0.00     0.261 C 
BRANCH  21  22
ATOM     22  N   UNL d   1      31.263 -17.153   0.253  0.00  0.00    -0.070 N 
ATOM     23  H   UNL d   1      30.590 -17.834   0.635  0.00  0.00     0.279 HD
BRANCH  22  24
ATOM     24  C   UNL d   1      32.634 -17.467   0.841  0.00  0.00     0.230 C 
ATOM     25  C   UNL d   1      32.653 -18.697   1.727  0.00  0.00     0.034 C 
ENDBRANCH  22  24
BRANCH  22  26
ATOM     26  C   UNL d   1      30.750 -15.743   0.557  0.00  0.00     0.230 C 
ATOM     27  C   UNL d   1      31.310 -15.124   1.821  0.00  0.00     0.034 C 
ENDBRANCH  22  26
ENDBRANCH  21  22
ENDBRANCH  20  21
ENDBRANCH  19  20
ENDBRANCH  14  19
ENDBRANCH  10  12
ENDBRANCH   1  10
BRANCH   5  28
ATOM     28  O   UNL d   1      23.401 -18.037   0.894  0.00  0.00    -0.311 OA
BRANCH  28  29
ATOM     29  C   UNL d   1      22.248 -18.477   0.268  0.00  0.00     0.079 A 
ATOM     30  C   UNL d   1      22.088 -18.423  -1.115  0.00  0.00     0.056 A 
ATOM     31  C   UNL d   1      20.879 -18.834  -1.644  0.00  0.00     0.120 A 
ATOM     32  N   UNL d   1      19.866 -19.324  -0.898  0.00  0.00    -0.255 NA
ATOM     33  C   UNL d   1      20.055 -19.436   0.445  0.00  0.00     0.126 A 
ATOM     34  C   UNL d   1      21.240 -19.032   1.058  0.00  0.00     0.074 A 
BRANCH  33  35
ATOM     35  C   UNL d   1      18.872 -20.004   1.215  0.00  0.00     0.269 C 
ATOM     36  O   UNL d   1      18.374 -19.382   2.143  0.00  0.00    -0.266 OA
ATOM     37  N   UNL d   1      18.387 -21.252   0.833  0.00  0.00    -0.360 N 
ATOM     38  C   UNL d   1      17.266 -21.873   1.503  0.00  0.00     0.149 C 
ATOM     39  H   UNL d   1      18.792 -21.766   0.070  0.00  0.00     0.162 HD
ENDBRANCH  33  35
ENDBRANCH  28  29
ENDBRANCH   5  28
TORSDOF 11
ENDMDL
MODEL 3
REMARK VINA RESULT:   -29.721      4.859      7.049
REMARK INTER + INTRA:         -34.829
REMARK INTER:                 -33.002
REMARK INTRA:                  -1.826
REMARK CONF_INDEPENDENT:        3.281
REMARK UNBOUND:                -1.826
REMARK  11 active torsions:
REMARK  status: ('A' for Active; 'I' for Inactive)
REMARK    1  A    between atoms: C_2  and  N_3 
REMARK    2  A    between atoms: N_3  and  C_4 
REMARK    3  A    between atoms: N_3  and  C_6 
REMARK    4  A    between atoms: C_6  and  C_7 
REMARK    5  A    between atoms: C_7  and  O_8 
REMARK    6  A    between atoms: O_8  and  C_9 
REMARK    7  A    between atoms: C_11  and  N_12 
REMARK    8  A    between atoms: N_12  and  C_13 
REMARK    9  A    between atoms: C_17  and  O_18 
REMARK   10  A    between atoms: O_18  and  C_19 
REMARK   11  A    between atoms: C_23  and  C_24 
REMARK       I    between atoms: C_24  and  N_26 
ROOT
ATOM      1  C   UNL d   1      25.678 -14.383  -3.271  0.00  0.00     0.252 A 
ATOM      2  N   UNL d   1      24.477 -14.691  -2.809  0.00  0.00    -0.206 NA
ATOM      3  C   UNL d   1      24.717 -15.640  -1.826  0.00  0.00     0.097 A 
ATOM      4  C   UNL d   1      23.858 -16.408  -1.006  0.00  0.00     0.072 A 
ATOM      5  C   UNL d   1      24.420 -17.318  -0.077  0.00  0.00     0.078 A 
ATOM      6  C   UNL d   1      25.814 -17.446   0.006  0.00  0.00     0.040 A 
ATOM      7  C   UNL d   1      26.680 -16.684  -0.788  0.00  0.00     0.042 A 
ATOM      8  C   UNL d   1      26.082 -15.815  -1.692  0.00  0.00     0.108 A 
ATOM      9  O   UNL d   1      26.703 -15.016  -2.608  0.00  0.00    -0.276 OA
ENDROOT
BRANCH   1  10
ATOM     10  N   UNL d   1      26.025 -13.563  -4.307  0.00  0.00    -0.320 N 
ATOM     11  H   UNL d   1      25.274 -13.380  -4.962  0.00  0.00     0.169 HD
BRANCH  10  12
ATOM     12  C   UNL d   1      27.291 -13.667  -4.962  0.00  0.00     0.038 A 
ATOM     13  C   UNL d   1      27.985 -14.898  -5.089  0.00  0.00     0.068 A 
ATOM     14  C   UNL d   1      29.184 -15.013  -5.853  0.00  0.00     0.092 A 
ATOM     15  C   UNL d   1      29.649 -13.870  -6.536  0.00  0.00     0.067 A 
ATOM     16  C   UNL d   1      28.990 -12.656  -6.382  0.00  0.00     0.029 A 
ATOM     17 CL   UNL d   1      30.937 -13.778  -7.694  0.00  0.00    -0.081 Cl
ATOM     18  C   UNL d   1      27.836 -12.560  -5.619  0.00  0.00     0.031 A 
BRANCH  14  19
ATOM     19  O   UNL d   1      29.723 -16.289  -5.901  0.00  0.00    -0.348 OA
BRANCH  19  20
ATOM     20  C   UNL d   1      31.057 -16.424  -5.402  0.00  0.00     0.203 C 
BRANCH  20  21
ATOM     21  C   UNL d   1      31.745 -17.712  -5.866  0.00  0.00     0.261 C 
BRANCH  21  22
ATOM     22  N   UNL d   1      30.914 -18.465  -6.959  0.00  0.00    -0.070 N 
ATOM     23  H   UNL d   1      29.940 -18.141  -6.864  0.00  0.00     0.279 HD
BRANCH  22  24
ATOM     24  C   UNL d   1      31.427 -18.015  -8.322  0.00  0.00     0.230 C 
ATOM     25  C   UNL d   1      32.907 -18.268  -8.533  0.00  0.00     0.034 C 
ENDBRANCH  22  24
BRANCH  22  26
ATOM     26  C   UNL d   1      30.945 -19.979  -6.738  0.00  0.00     0.230 C 
ATOM     27  C   UNL d   1      31.415 -20.408  -5.363  0.00  0.00     0.034 C 
ENDBRANCH  22  26
ENDBRANCH  21  22
ENDBRANCH  20  21
ENDBRANCH  19  20
ENDBRANCH  14  19
ENDBRANCH  10  12
ENDBRANCH   1  10
BRANCH   5  28
ATOM     28  O   UNL d   1      23.527 -18.065   0.686  0.00  0.00    -0.311 OA
BRANCH  28  29
ATOM     29  C   UNL d   1      22.343 -18.499   0.116  0.00  0.00     0.079 A 
ATOM     30  C   UNL d   1      22.158 -18.548  -1.264  0.00  0.00     0.056 A 
ATOM     31  C   UNL d   1      20.922 -18.943  -1.738  0.00  0.00     0.120 A 
ATOM     32  N   UNL d   1      19.903 -19.325  -0.940  0.00  0.00    -0.255 NA
ATOM     33  C   UNL d   1      20.114 -19.339   0.405  0.00  0.00     0.126 A 
ATOM     34  C   UNL d   1      21.327 -18.943   0.965  0.00  0.00     0.074 A 
BRANCH  33  35
ATOM     35  C   UNL d   1      18.921 -19.788   1.237  0.00  0.00     0.269 C 
ATOM     36  O   UNL d   1      18.451 -19.059   2.099  0.00  0.00    -0.266 OA
ATOM     37  N   UNL d   1      18.396 -21.053   0.989  0.00  0.00    -0.360 N 
ATOM     38  C   UNL d   1      17.264 -21.568   1.727  0.00  0.00     0.149 C 
ATOM     39  H   UNL d   1      18.778 -21.655   0.280  0.00  0.00     0.162 HD
ENDBRANCH  33  35
ENDBRANCH  28  29
ENDBRANCH   5  28
TORSDOF 11
ENDMDL
MODEL 4
REMARK VINA RESULT:   -29.329      4.625      6.528
REMARK INTER + INTRA:         -34.323
REMARK INTER:                 -32.610
REMARK INTRA:                  -1.713
REMARK CONF_INDEPENDENT:        3.281
REMARK UNBOUND:                -1.713
REMARK  11 active torsions:
REMARK  status: ('A' for Active; 'I' for Inactive)
REMARK    1  A    between atoms: C_2  and  N_3 
REMARK    2  A    between atoms: N_3  and  C_4 
REMARK    3  A    between atoms: N_3  and  C_6 
REMARK    4  A    between atoms: C_6  and  C_7 
REMARK    5  A    between atoms: C_7  and  O_8 
REMARK    6  A    between atoms: O_8  and  C_9 
REMARK    7  A    between atoms: C_11  and  N_12 
REMARK    8  A    between atoms: N_12  and  C_13 
REMARK    9  A    between atoms: C_17  and  O_18 
REMARK   10  A    between atoms: O_18  and  C_19 
REMARK   11  A    between atoms: C_23  and  C_24 
REMARK       I    between atoms: C_24  and  N_26 
ROOT
ATOM      1  C   UNL d   1      26.388 -15.288  -3.488  0.00  0.00     0.252 A 
ATOM      2  N   UNL d   1      25.151 -15.293  -3.020  0.00  0.00    -0.206 NA
ATOM      3  C   UNL d   1      25.186 -16.181  -1.956  0.00  0.00     0.097 A 
ATOM      4  C   UNL d   1      24.186 -16.675  -1.086  0.00  0.00     0.072 A 
ATOM      5  C   UNL d   1      24.545 -17.599  -0.074  0.00  0.00     0.078 A 
ATOM      6  C   UNL d   1      25.879 -18.012   0.042  0.00  0.00     0.040 A 
ATOM      7  C   UNL d   1      26.886 -17.524  -0.801  0.00  0.00     0.042 A 
ATOM      8  C   UNL d   1      26.483 -16.631  -1.786  0.00  0.00     0.108 A 
ATOM      9  O   UNL d   1      27.258 -16.064  -2.757  0.00  0.00    -0.276 OA
ENDROOT
BRANCH   1  10
ATOM     10  N   UNL d   1      26.899 -14.655  -4.585  0.00  0.00    -0.320 N 
ATOM     11  H   UNL d   1      26.220 -14.478  -5.317  0.00  0.00     0.169 HD
BRANCH  10  12
ATOM     12  C   UNL d   1      28.185 -14.981  -5.117  0.00  0.00     0.038 A 
ATOM     13  C   UNL d   1      28.922 -16.114  -4.687  0.00  0.00     0.068 A 
ATOM     14  C   UNL d   1      30.145 -16.501  -5.312  0.00  0.00     0.092 A 
ATOM     15  C   UNL d   1      30.590 -15.753  -6.422  0.00  0.00     0.067 A 
ATOM     16  C   UNL d   1      29.886 -14.622  -6.821  0.00  0.00     0.029 A 
ATOM     17 CL   UNL d   1      31.904 -16.123  -7.491  0.00  0.00    -0.081 Cl
ATOM     18  C   UNL d   1      28.710 -14.251  -6.187  0.00  0.00     0.031 A 
BRANCH  14  19
ATOM     19  O   UNL d   1      30.727 -17.647  -4.792  0.00  0.00    -0.348 OA
BRANCH  19  20
ATOM     20  C   UNL d   1      30.172 -18.887  -5.240  0.00  0.00     0.203 C 
BRANCH  20  21
ATOM     21  C   UNL d   1      31.157 -20.057  -5.140  0.00  0.00     0.261 C 
BRANCH  21  22
ATOM     22  N   UNL d   1      32.632 -19.571  -4.943  0.00  0.00    -0.070 N 
ATOM     23  H   UNL d   1      32.582 -18.578  -4.671  0.00  0.00     0.279 HD
BRANCH  22  24
ATOM     24  C   UNL d   1      33.223 -20.350  -3.773  0.00  0.00     0.230 C 
ATOM     25  C   UNL d   1      32.205 -21.173  -3.010  0.00  0.00     0.034 C 
ENDBRANCH  22  24
BRANCH  22  26
ATOM     26  C   UNL d   1      33.432 -19.677  -6.244  0.00  0.00     0.230 C 
ATOM     27  C   UNL d   1      32.617 -19.479  -7.506  0.00  0.00     0.034 C 
ENDBRANCH  22  26
ENDBRANCH  21  22
ENDBRANCH  20  21
ENDBRANCH  19  20
ENDBRANCH  14  19
ENDBRANCH  10  12
ENDBRANCH   1  10
BRANCH   5  28
ATOM     28  O   UNL d   1      23.515 -18.071   0.736  0.00  0.00    -0.311 OA
BRANCH  28  29
ATOM     29  C   UNL d   1      22.336 -18.503   0.155  0.00  0.00     0.079 A 
ATOM     30  C   UNL d   1      22.163 -18.548  -1.226  0.00  0.00     0.056 A 
ATOM     31  C   UNL d   1      20.930 -18.941  -1.712  0.00  0.00     0.120 A 
ATOM     32  N   UNL d   1      19.904 -19.325  -0.924  0.00  0.00    -0.255 NA
ATOM     33  C   UNL d   1      20.103 -19.342   0.423  0.00  0.00     0.126 A 
ATOM     34  C   UNL d   1      21.312 -18.948   0.994  0.00  0.00     0.074 A 
BRANCH  33  35
ATOM     35  C   UNL d   1      18.904 -19.793   1.244  0.00  0.00     0.269 C 
ATOM     36  O   UNL d   1      18.419 -19.061   2.094  0.00  0.00    -0.266 OA
ATOM     37  N   UNL d   1      18.390 -21.063   0.999  0.00  0.00    -0.360 N 
ATOM     38  C   UNL d   1      17.252 -21.580   1.726  0.00  0.00     0.149 C 
ATOM     39  H   UNL d   1      18.784 -21.668   0.299  0.00  0.00     0.162 HD
ENDBRANCH  33  35
ENDBRANCH  28  29
ENDBRANCH   5  28
TORSDOF 11
ENDMDL
MODEL 5
REMARK VINA RESULT:   -29.170      4.107      6.226
REMARK INTER + INTRA:         -34.605
REMARK INTER:                 -32.451
REMARK INTRA:                  -2.154
REMARK CONF_INDEPENDENT:        3.281
REMARK UNBOUND:                -2.154
REMARK  11 active torsions:
REMARK  status: ('A' for Active; 'I' for Inactive)
REMARK    1  A    between atoms: C_2  and  N_3 
REMARK    2  A    between atoms: N_3  and  C_4 
REMARK    3  A    between atoms: N_3  and  C_6 
REMARK    4  A    between atoms: C_6  and  C_7 
REMARK    5  A    between atoms: C_7  and  O_8 
REMARK    6  A    between atoms: O_8  and  C_9 
REMARK    7  A    between atoms: C_11  and  N_12 
REMARK    8  A    between atoms: N_12  and  C_13 
REMARK    9  A    between atoms: C_17  and  O_18 
REMARK   10  A    between atoms: O_18  and  C_19 
REMARK   11  A    between atoms: C_23  and  C_24 
REMARK       I    between atoms: C_24  and  N_26 
ROOT
ATOM      1  C   UNL d   1      28.731 -16.791  -1.332  0.00  0.00     0.252 A 
ATOM      2  N   UNL d   1      28.239 -17.649  -0.455  0.00  0.00    -0.206 NA
ATOM      3  C   UNL d   1      26.873 -17.412  -0.466  0.00  0.00     0.097 A 
ATOM      4  C   UNL d   1      25.800 -17.948   0.286  0.00  0.00     0.072 A 
ATOM      5  C   UNL d   1      24.484 -17.487   0.036  0.00  0.00     0.078 A 
ATOM      6  C   UNL d   1      24.270 -16.506  -0.942  0.00  0.00     0.040 A 
ATOM      7  C   UNL d   1      25.317 -15.975  -1.706  0.00  0.00     0.042 A 
ATOM      8  C   UNL d   1      26.590 -16.448  -1.417  0.00  0.00     0.108 A 
ATOM      9  O   UNL d   1      27.770 -16.047  -1.976  0.00  0.00    -0.276 OA
ENDROOT
BRANCH   1  10
ATOM     10  N   UNL d   1      30.032 -16.531  -1.657  0.00  0.00    -0.320 N 
ATOM     11  H   UNL d   1      30.460 -15.795  -1.107  0.00  0.00     0.169 HD
BRANCH  10  12
ATOM     12  C   UNL d   1      30.485 -16.516  -3.012  0.00  0.00     0.038 A 
ATOM     13  C   UNL d   1      29.704 -15.986  -4.071  0.00  0.00     0.068 A 
ATOM     14  C   UNL d   1      30.215 -15.861  -5.397  0.00  0.00     0.092 A 
ATOM     15  C   UNL d   1      31.556 -16.232  -5.631  0.00  0.00     0.067 A 
ATOM     16  C   UNL d   1      32.310 -16.785  -4.602  0.00  0.00     0.029 A 
ATOM     17 CL   UNL d   1      32.488 -15.985  -7.072  0.00  0.00    -0.081 Cl
ATOM     18  C   UNL d   1      31.788 -16.918  -3.324  0.00  0.00     0.031 A 
BRANCH  14  19
ATOM     19  O   UNL d   1      29.336 -15.297  -6.309  0.00  0.00    -0.348 OA
BRANCH  19  20
ATOM     20  C   UNL d   1      28.614 -14.149  -5.852  0.00  0.00     0.203 C 
BRANCH  20  21
ATOM     21  C   UNL d   1      28.726 -12.952  -6.802  0.00  0.00     0.261 C 
BRANCH  21  22
ATOM     22  N   UNL d   1      29.732 -13.219  -7.972  0.00  0.00    -0.070 N 
ATOM     23  H   UNL d   1      29.600 -14.201  -8.256  0.00  0.00     0.279 HD
BRANCH  22  24
ATOM     24  C   UNL d   1      29.324 -12.332  -9.144  0.00  0.00     0.230 C 
ATOM     25  C   UNL d   1      27.825 -12.169  -9.294  0.00  0.00     0.034 C 
ENDBRANCH  22  24
BRANCH  22  26
ATOM     26  C   UNL d   1      31.181 -13.037  -7.513  0.00  0.00     0.230 C 
ATOM     27  C   UNL d   1      31.338 -12.392  -6.151  0.00  0.00     0.034 C 
ENDBRANCH  22  26
ENDBRANCH  21  22
ENDBRANCH  20  21
ENDBRANCH  19  20
ENDBRANCH  14  19
ENDBRANCH  10  12
ENDBRANCH   1  10
BRANCH   5  28
ATOM     28  O   UNL d   1      23.472 -18.031   0.824  0.00  0.00    -0.311 OA
BRANCH  28  29
ATOM     29  C   UNL d   1      22.307 -18.475   0.223  0.00  0.00     0.079 A 
ATOM     30  C   UNL d   1      22.151 -18.505  -1.161  0.00  0.00     0.056 A 
ATOM     31  C   UNL d   1      20.931 -18.912  -1.667  0.00  0.00     0.120 A 
ATOM     32  N   UNL d   1      19.903 -19.324  -0.895  0.00  0.00    -0.255 NA
ATOM     33  C   UNL d   1      20.087 -19.356   0.453  0.00  0.00     0.126 A 
ATOM     34  C   UNL d   1      21.282 -18.949   1.044  0.00  0.00     0.074 A 
BRANCH  33  35
ATOM     35  C   UNL d   1      18.886 -19.838   1.254  0.00  0.00     0.269 C 
ATOM     36  O   UNL d   1      18.362 -19.116   2.090  0.00  0.00    -0.266 OA
ATOM     37  N   UNL d   1      18.416 -21.125   1.008  0.00  0.00    -0.360 N 
ATOM     38  C   UNL d   1      17.281 -21.672   1.717  0.00  0.00     0.149 C 
ATOM     39  H   UNL d   1      18.842 -21.722   0.321  0.00  0.00     0.162 HD
ENDBRANCH  33  35
ENDBRANCH  28  29
ENDBRANCH   5  28
TORSDOF 11
ENDMDL
MODEL 6
REMARK VINA RESULT:   -29.138      6.024      7.786
REMARK INTER + INTRA:         -34.316
REMARK INTER:                 -32.419
REMARK INTRA:                  -1.898
REMARK CONF_INDEPENDENT:        3.281
REMARK UNBOUND:                -1.898
REMARK  11 active torsions:
REMARK  status: ('A' for Active; 'I' for Inactive)
REMARK    1  A    between atoms: C_2  and  N_3 
REMARK    2  A    between atoms: N_3  and  C_4 
REMARK    3  A    between atoms: N_3  and  C_6 
REMARK    4  A    between atoms: C_6  and  C_7 
REMARK    5  A    between atoms: C_7  and  O_8 
REMARK    6  A    between atoms: O_8  and  C_9 
REMARK    7  A    between atoms: C_11  and  N_12 
REMARK    8  A    between atoms: N_12  and  C_13 
REMARK    9  A    between atoms: C_17  and  O_18 
REMARK   10  A    between atoms: O_18  and  C_19 
REMARK   11  A    between atoms: C_23  and  C_24 
REMARK       I    between atoms: C_24  and  N_26 
ROOT
ATOM      1  C   UNL d   1      26.108 -14.682  -2.978  0.00  0.00     0.252 A 
ATOM      2  N   UNL d   1      24.878 -14.841  -2.521  0.00  0.00    -0.206 NA
ATOM      3  C   UNL d   1      24.988 -15.838  -1.565  0.00  0.00     0.097 A 
ATOM      4  C   UNL d   1      24.034 -16.508  -0.763  0.00  0.00     0.072 A 
ATOM      5  C   UNL d   1      24.471 -17.509   0.140  0.00  0.00     0.078 A 
ATOM      6  C   UNL d   1      25.835 -17.823   0.215  0.00  0.00     0.040 A 
ATOM      7  C   UNL d   1      26.795 -17.161  -0.561  0.00  0.00     0.042 A 
ATOM      8  C   UNL d   1      26.318 -16.197  -1.439  0.00  0.00     0.108 A 
ATOM      9  O   UNL d   1      27.041 -15.463  -2.335  0.00  0.00    -0.276 OA
ENDROOT
BRANCH   1  10
ATOM     10  N   UNL d   1      26.562 -13.888  -3.993  0.00  0.00    -0.320 N 
ATOM     11  H   UNL d   1      27.310 -14.298  -4.539  0.00  0.00     0.169 HD
BRANCH  10  12
ATOM     12  C   UNL d   1      26.729 -12.478  -3.832  0.00  0.00     0.038 A 
ATOM     13  C   UNL d   1      26.061 -11.532  -4.652  0.00  0.00     0.068 A 
ATOM     14  C   UNL d   1      26.136 -10.130  -4.403  0.00  0.00     0.092 A 
ATOM     15  C   UNL d   1      26.858  -9.693  -3.272  0.00  0.00     0.067 A 
ATOM     16  C   UNL d   1      27.543 -10.616  -2.490  0.00  0.00     0.029 A 
ATOM     17 CL   UNL d   1      26.932  -8.089  -2.616  0.00  0.00    -0.081 Cl
ATOM     18  C   UNL d   1      27.474 -11.974  -2.761  0.00  0.00     0.031 A 
BRANCH  14  19
ATOM     19  O   UNL d   1      25.402  -9.343  -5.277  0.00  0.00    -0.348 OA
BRANCH  19  20
ATOM     20  C   UNL d   1      26.133  -8.319  -5.959  0.00  0.00     0.203 C 
BRANCH  20  21
ATOM     21  C   UNL d   1      25.466  -6.943  -5.868  0.00  0.00     0.261 C 
BRANCH  21  22
ATOM     22  N   UNL d   1      24.308  -6.917  -4.814  0.00  0.00    -0.070 N 
ATOM     23  H   UNL d   1      24.236  -7.871  -4.431  0.00  0.00     0.279 HD
BRANCH  22  24
ATOM     24  C   UNL d   1      24.732  -5.987  -3.683  0.00  0.00     0.230 C 
ATOM     25  C   UNL d   1      23.581  -5.229  -3.050  0.00  0.00     0.034 C 
ENDBRANCH  22  24
BRANCH  22  26
ATOM     26  C   UNL d   1      22.971  -6.555  -5.465  0.00  0.00     0.230 C 
ATOM     27  C   UNL d   1      22.988  -6.537  -6.980  0.00  0.00     0.034 C 
ENDBRANCH  22  26
ENDBRANCH  21  22
ENDBRANCH  20  21
ENDBRANCH  19  20
ENDBRANCH  14  19
ENDBRANCH  10  12
ENDBRANCH   1  10
BRANCH   5  28
ATOM     28  O   UNL d   1      23.485 -18.152   0.885  0.00  0.00    -0.311 OA
BRANCH  28  29
ATOM     29  C   UNL d   1      22.316 -18.555   0.262  0.00  0.00     0.079 A 
ATOM     30  C   UNL d   1      22.159 -18.510  -1.120  0.00  0.00     0.056 A 
ATOM     31  C   UNL d   1      20.936 -18.881  -1.646  0.00  0.00     0.120 A 
ATOM     32  N   UNL d   1      19.905 -19.325  -0.896  0.00  0.00    -0.255 NA
ATOM     33  C   UNL d   1      20.090 -19.430   0.449  0.00  0.00     0.126 A 
ATOM     34  C   UNL d   1      21.288 -19.064   1.059  0.00  0.00     0.074 A 
BRANCH  33  35
ATOM     35  C   UNL d   1      18.886 -19.944   1.225  0.00  0.00     0.269 C 
ATOM     36  O   UNL d   1      18.366 -19.262   2.096  0.00  0.00    -0.266 OA
ATOM     37  N   UNL d   1      18.408 -21.215   0.914  0.00  0.00    -0.360 N 
ATOM     38  C   UNL d   1      17.270 -21.790   1.595  0.00  0.00     0.149 C 
ATOM     39  H   UNL d   1      18.831 -21.779   0.198  0.00  0.00     0.162 HD
ENDBRANCH  33  35
ENDBRANCH  28  29
ENDBRANCH   5  28
TORSDOF 11
ENDMDL
MODEL 7
REMARK VINA RESULT:   -29.072      3.372      5.014
REMARK INTER + INTRA:         -34.723
REMARK INTER:                 -32.353
REMARK INTRA:                  -2.370
REMARK CONF_INDEPENDENT:        3.281
REMARK UNBOUND:                -2.370
REMARK  11 active torsions:
REMARK  status: ('A' for Active; 'I' for Inactive)
REMARK    1  A    between atoms: C_2  and  N_3 
REMARK    2  A    between atoms: N_3  and  C_4 
REMARK    3  A    between atoms: N_3  and  C_6 
REMARK    4  A    between atoms: C_6  and  C_7 
REMARK    5  A    between atoms: C_7  and  O_8 
REMARK    6  A    between atoms: O_8  and  C_9 
REMARK    7  A    between atoms: C_11  and  N_12 
REMARK    8  A    between atoms: N_12  and  C_13 
REMARK    9  A    between atoms: C_17  and  O_18 
REMARK   10  A    between atoms: O_18  and  C_19 
REMARK   11  A    between atoms: C_23  and  C_24 
REMARK       I    between atoms: C_24  and  N_26 
ROOT
ATOM      1  C   UNL d   1      26.121 -14.848  -3.525  0.00  0.00     0.252 A 
ATOM      2  N   UNL d   1      24.903 -14.891  -3.012  0.00  0.00    -0.206 NA
ATOM      3  C   UNL d   1      24.991 -15.817  -1.984  0.00  0.00     0.097 A 
ATOM      4  C   UNL d   1      24.031 -16.360  -1.098  0.00  0.00     0.072 A 
ATOM      5  C   UNL d   1      24.441 -17.315  -0.135  0.00  0.00     0.078 A 
ATOM      6  C   UNL d   1      25.785 -17.711  -0.085  0.00  0.00     0.040 A 
ATOM      7  C   UNL d   1      26.752 -17.174  -0.945  0.00  0.00     0.042 A 
ATOM      8  C   UNL d   1      26.300 -16.252  -1.879  0.00  0.00     0.108 A 
ATOM      9  O   UNL d   1      27.029 -15.637  -2.857  0.00  0.00    -0.276 OA
ENDROOT
BRANCH   1  10
ATOM     10  N   UNL d   1      26.581 -14.165  -4.615  0.00  0.00    -0.320 N 
ATOM     11  H   UNL d   1      25.872 -13.969  -5.312  0.00  0.00     0.169 HD
BRANCH  10  12
ATOM     12  C   UNL d   1      27.848 -14.454  -5.209  0.00  0.00     0.038 A 
ATOM     13  C   UNL d   1      28.786 -15.335  -4.612  0.00  0.00     0.068 A 
ATOM     14  C   UNL d   1      29.993 -15.714  -5.274  0.00  0.00     0.092 A 
ATOM     15  C   UNL d   1      30.215 -15.230  -6.579  0.00  0.00     0.067 A 
ATOM     16  C   UNL d   1      29.313 -14.338  -7.150  0.00  0.00     0.029 A 
ATOM     17 CL   UNL d   1      31.469 -15.696  -7.683  0.00  0.00    -0.081 Cl
ATOM     18  C   UNL d   1      28.157 -13.966  -6.482  0.00  0.00     0.031 A 
BRANCH  14  19
ATOM     19  O   UNL d   1      30.788 -16.604  -4.568  0.00  0.00    -0.348 OA
BRANCH  19  20
ATOM     20  C   UNL d   1      30.200 -17.171  -3.393  0.00  0.00     0.203 C 
BRANCH  20  21
ATOM     21  C   UNL d   1      30.797 -16.617  -2.096  0.00  0.00     0.261 C 
BRANCH  21  22
ATOM     22  N   UNL d   1      29.932 -15.457  -1.496  0.00  0.00    -0.070 N 
ATOM     23  H   UNL d   1      29.052 -15.438  -2.033  0.00  0.00     0.279 HD
BRANCH  22  24
ATOM     24  C   UNL d   1      29.596 -15.827  -0.056  0.00  0.00     0.230 C 
ATOM     25  C   UNL d   1      28.964 -14.698   0.734  0.00  0.00     0.034 C 
ENDBRANCH  22  24
BRANCH  22  26
ATOM     26  C   UNL d   1      30.627 -14.103  -1.657  0.00  0.00     0.230 C 
ATOM     27  C   UNL d   1      30.106 -13.255  -2.800  0.00  0.00     0.034 C 
ENDBRANCH  22  26
ENDBRANCH  21  22
ENDBRANCH  20  21
ENDBRANCH  19  20
ENDBRANCH  14  19
ENDBRANCH  10  12
ENDBRANCH   1  10
BRANCH   5  28
ATOM     28  O   UNL d   1      23.450 -17.833   0.694  0.00  0.00    -0.311 OA
BRANCH  28  29
ATOM     29  C   UNL d   1      22.290 -18.340   0.133  0.00  0.00     0.079 A 
ATOM     30  C   UNL d   1      22.050 -18.299  -1.238  0.00  0.00     0.056 A 
ATOM     31  C   UNL d   1      20.840 -18.780  -1.699  0.00  0.00     0.120 A 
ATOM     32  N   UNL d   1      19.900 -19.326  -0.898  0.00  0.00    -0.255 NA
ATOM     33  C   UNL d   1      20.170 -19.423   0.432  0.00  0.00     0.126 A 
ATOM     34  C   UNL d   1      21.362 -18.951   0.979  0.00  0.00     0.074 A 
BRANCH  33  35
ATOM     35  C   UNL d   1      19.067 -20.056   1.267  0.00  0.00     0.269 C 
ATOM     36  O   UNL d   1      18.845 -19.670   2.406  0.00  0.00    -0.266 OA
ATOM     37  N   UNL d   1      18.331 -21.090   0.694  0.00  0.00    -0.360 N 
ATOM     38  C   UNL d   1      17.262 -21.753   1.408  0.00  0.00     0.149 C 
ATOM     39  H   UNL d   1      18.508 -21.410  -0.242  0.00  0.00     0.162 HD
ENDBRANCH  33  35
ENDBRANCH  28  29
ENDBRANCH   5  28
TORSDOF 11
ENDMDL
MODEL 8
REMARK VINA RESULT:   -28.881      4.921      7.030
REMARK INTER + INTRA:         -34.014
REMARK INTER:                 -32.162
REMARK INTRA:                  -1.853
REMARK CONF_INDEPENDENT:        3.281
REMARK UNBOUND:                -1.853
REMARK  11 active torsions:
REMARK  status: ('A' for Active; 'I' for Inactive)
REMARK    1  A    between atoms: C_2  and  N_3 
REMARK    2  A    between atoms: N_3  and  C_4 
REMARK    3  A    between atoms: N_3  and  C_6 
REMARK    4  A    between atoms: C_6  and  C_7 
REMARK    5  A    between atoms: C_7  and  O_8 
REMARK    6  A    between atoms: O_8  and  C_9 
REMARK    7  A    between atoms: C_11  and  N_12 
REMARK    8  A    between atoms: N_12  and  C_13 
REMARK    9  A    between atoms: C_17  and  O_18 
REMARK   10  A    between atoms: O_18  and  C_19 
REMARK   11  A    between atoms: C_23  and  C_24 
REMARK       I    between atoms: C_24  and  N_26 
ROOT
ATOM      1  C   UNL d   1      26.138 -14.660  -2.924  0.00  0.00     0.252 A 
ATOM      2  N   UNL d   1      24.913 -14.801  -2.444  0.00  0.00    -0.206 NA
ATOM      3  C   UNL d   1      25.016 -15.837  -1.529  0.00  0.00     0.097 A 
ATOM      4  C   UNL d   1      24.062 -16.509  -0.729  0.00  0.00     0.072 A 
ATOM      5  C   UNL d   1      24.489 -17.555   0.125  0.00  0.00     0.078 A 
ATOM      6  C   UNL d   1      25.845 -17.911   0.156  0.00  0.00     0.040 A 
ATOM      7  C   UNL d   1      26.806 -17.248  -0.618  0.00  0.00     0.042 A 
ATOM      8  C   UNL d   1      26.338 -16.238  -1.448  0.00  0.00     0.108 A 
ATOM      9  O   UNL d   1      27.061 -15.491  -2.334  0.00  0.00    -0.276 OA
ENDROOT
BRANCH   1  10
ATOM     10  N   UNL d   1      26.591 -13.842  -3.920  0.00  0.00    -0.320 N 
ATOM     11  H   UNL d   1      25.862 -13.324  -4.397  0.00  0.00     0.169 HD
BRANCH  10  12
ATOM     12  C   UNL d   1      27.633 -14.242  -4.812  0.00  0.00     0.038 A 
ATOM     13  C   UNL d   1      28.385 -13.310  -5.573  0.00  0.00     0.068 A 
ATOM     14  C   UNL d   1      29.504 -13.709  -6.363  0.00  0.00     0.092 A 
ATOM     15  C   UNL d   1      29.891 -15.065  -6.331  0.00  0.00     0.067 A 
ATOM     16  C   UNL d   1      29.134 -15.984  -5.613  0.00  0.00     0.029 A 
ATOM     17 CL   UNL d   1      31.321 -15.775  -7.009  0.00  0.00    -0.081 Cl
ATOM     18  C   UNL d   1      28.037 -15.580  -4.868  0.00  0.00     0.031 A 
BRANCH  14  19
ATOM     19  O   UNL d   1      30.148 -12.674  -7.023  0.00  0.00    -0.348 OA
BRANCH  19  20
ATOM     20  C   UNL d   1      30.074 -11.391  -6.395  0.00  0.00     0.203 C 
BRANCH  20  21
ATOM     21  C   UNL d   1      28.829 -10.594  -6.800  0.00  0.00     0.261 C 
BRANCH  21  22
ATOM     22  N   UNL d   1      27.980 -11.336  -7.887  0.00  0.00    -0.070 N 
ATOM     23  H   UNL d   1      28.190 -12.341  -7.789  0.00  0.00     0.279 HD
BRANCH  22  24
ATOM     24  C   UNL d   1      26.509 -11.129  -7.546  0.00  0.00     0.230 C 
ATOM     25  C   UNL d   1      26.280 -10.447  -6.212  0.00  0.00     0.034 C 
ENDBRANCH  22  24
BRANCH  22  26
ATOM     26  C   UNL d   1      28.374 -10.894  -9.298  0.00  0.00     0.230 C 
ATOM     27  C   UNL d   1      27.268 -10.216 -10.081  0.00  0.00     0.034 C 
ENDBRANCH  22  26
ENDBRANCH  21  22
ENDBRANCH  20  21
ENDBRANCH  19  20
ENDBRANCH  14  19
ENDBRANCH  10  12
ENDBRANCH   1  10
BRANCH   5  28
ATOM     28  O   UNL d   1      23.503 -18.197   0.869  0.00  0.00    -0.311 OA
BRANCH  28  29
ATOM     29  C   UNL d   1      22.327 -18.585   0.249  0.00  0.00     0.079 A 
ATOM     30  C   UNL d   1      22.184 -18.584  -1.136  0.00  0.00     0.056 A 
ATOM     31  C   UNL d   1      20.954 -18.934  -1.660  0.00  0.00     0.120 A 
ATOM     32  N   UNL d   1      19.903 -19.318  -0.906  0.00  0.00    -0.255 NA
ATOM     33  C   UNL d   1      20.072 -19.380   0.444  0.00  0.00     0.126 A 
ATOM     34  C   UNL d   1      21.276 -19.032   1.052  0.00  0.00     0.074 A 
BRANCH  33  35
ATOM     35  C   UNL d   1      18.844 -19.828   1.225  0.00  0.00     0.269 C 
ATOM     36  O   UNL d   1      18.319 -19.086   2.042  0.00  0.00    -0.266 OA
ATOM     37  N   UNL d   1      18.352 -21.108   0.983  0.00  0.00    -0.360 N 
ATOM     38  C   UNL d   1      17.191 -21.623   1.674  0.00  0.00     0.149 C 
ATOM     39  H   UNL d   1      18.780 -21.721   0.311  0.00  0.00     0.162 HD
ENDBRANCH  33  35
ENDBRANCH  28  29
ENDBRANCH   5  28
TORSDOF 11
ENDMDL
MODEL 9
REMARK VINA RESULT:   -28.500      4.032      5.506
REMARK INTER + INTRA:         -34.309
REMARK INTER:                 -31.781
REMARK INTRA:                  -2.528
REMARK CONF_INDEPENDENT:        3.281
REMARK UNBOUND:                -2.528
REMARK  11 active torsions:
REMARK  status: ('A' for Active; 'I' for Inactive)
REMARK    1  A    between atoms: C_2  and  N_3 
REMARK    2  A    between atoms: N_3  and  C_4 
REMARK    3  A    between atoms: N_3  and  C_6 
REMARK    4  A    between atoms: C_6  and  C_7 
REMARK    5  A    between atoms: C_7  and  O_8 
REMARK    6  A    between atoms: O_8  and  C_9 
REMARK    7  A    between atoms: C_11  and  N_12 
REMARK    8  A    between atoms: N_12  and  C_13 
REMARK    9  A    between atoms: C_17  and  O_18 
REMARK   10  A    between atoms: O_18  and  C_19 
REMARK   11  A    between atoms: C_23  and  C_24 
REMARK       I    between atoms: C_24  and  N_26 
ROOT
ATOM      1  C   UNL d   1      28.609 -16.436  -1.471  0.00  0.00     0.252 A 
ATOM      2  N   UNL d   1      28.199 -17.447  -0.724  0.00  0.00    -0.206 NA
ATOM      3  C   UNL d   1      26.831 -17.260  -0.605  0.00  0.00     0.097 A 
ATOM      4  C   UNL d   1      25.826 -17.952   0.112  0.00  0.00     0.072 A 
ATOM      5  C   UNL d   1      24.485 -17.502   0.031  0.00  0.00     0.078 A 
ATOM      6  C   UNL d   1      24.180 -16.378  -0.748  0.00  0.00     0.040 A 
ATOM      7  C   UNL d   1      25.159 -15.688  -1.476  0.00  0.00     0.042 A 
ATOM      8  C   UNL d   1      26.460 -16.159  -1.356  0.00  0.00     0.108 A 
ATOM      9  O   UNL d   1      27.587 -15.628  -1.914  0.00  0.00    -0.276 OA
ENDROOT
BRANCH   1  10
ATOM     10  N   UNL d   1      29.878 -16.080  -1.830  0.00  0.00    -0.320 N 
ATOM     11  H   UNL d   1      30.311 -15.403  -1.213  0.00  0.00     0.169 HD
BRANCH  10  12
ATOM     12  C   UNL d   1      30.246 -15.870  -3.195  0.00  0.00     0.038 A 
ATOM     13  C   UNL d   1      29.287 -15.709  -4.228  0.00  0.00     0.068 A 
ATOM     14  C   UNL d   1      29.664 -15.375  -5.562  0.00  0.00     0.092 A 
ATOM     15  C   UNL d   1      31.031 -15.151  -5.832  0.00  0.00     0.067 A 
ATOM     16  C   UNL d   1      31.974 -15.345  -4.828  0.00  0.00     0.029 A 
ATOM     17 CL   UNL d   1      31.736 -14.529  -7.289  0.00  0.00    -0.081 Cl
ATOM     18  C   UNL d   1      31.589 -15.689  -3.542  0.00  0.00     0.031 A 
BRANCH  14  19
ATOM     19  O   UNL d   1      28.606 -15.225  -6.445  0.00  0.00    -0.348 OA
BRANCH  19  20
ATOM     20  C   UNL d   1      28.639 -14.054  -7.266  0.00  0.00     0.203 C 
BRANCH  20  21
ATOM     21  C   UNL d   1      28.383 -12.763  -6.481  0.00  0.00     0.261 C 
BRANCH  21  22
ATOM     22  N   UNL d   1      27.866 -13.046  -5.030  0.00  0.00    -0.070 N 
ATOM     23  H   UNL d   1      27.706 -14.062  -4.968  0.00  0.00     0.279 HD
BRANCH  22  24
ATOM     24  C   UNL d   1      28.987 -12.686  -4.061  0.00  0.00     0.230 C 
ATOM     25  C   UNL d   1      30.060 -11.804  -4.669  0.00  0.00     0.034 C 
ENDBRANCH  22  24
BRANCH  22  26
ATOM     26  C   UNL d   1      26.540 -12.330  -4.761  0.00  0.00     0.230 C 
ATOM     27  C   UNL d   1      25.655 -13.002  -3.732  0.00  0.00     0.034 C 
ENDBRANCH  22  26
ENDBRANCH  21  22
ENDBRANCH  20  21
ENDBRANCH  19  20
ENDBRANCH  14  19
ENDBRANCH  10  12
ENDBRANCH   1  10
BRANCH   5  28
ATOM     28  O   UNL d   1      23.544 -18.206   0.778  0.00  0.00    -0.311 OA
BRANCH  28  29
ATOM     29  C   UNL d   1      22.353 -18.588   0.185  0.00  0.00     0.079 A 
ATOM     30  C   UNL d   1      22.132 -18.461  -1.184  0.00  0.00     0.056 A 
ATOM     31  C   UNL d   1      20.891 -18.819  -1.676  0.00  0.00     0.120 A 
ATOM     32  N   UNL d   1      19.902 -19.325  -0.910  0.00  0.00    -0.255 NA
ATOM     33  C   UNL d   1      20.150 -19.509   0.416  0.00  0.00     0.126 A 
ATOM     34  C   UNL d   1      21.370 -19.162   0.993  0.00  0.00     0.074 A 
BRANCH  33  35
ATOM     35  C   UNL d   1      18.989 -20.091   1.211  0.00  0.00     0.269 C 
ATOM     36  O   UNL d   1      18.579 -19.530   2.217  0.00  0.00    -0.266 OA
ATOM     37  N   UNL d   1      18.423 -21.280   0.759  0.00  0.00    -0.360 N 
ATOM     38  C   UNL d   1      17.317 -21.909   1.446  0.00  0.00     0.149 C 
ATOM     39  H   UNL d   1      18.756 -21.743  -0.069  0.00  0.00     0.162 HD
ENDBRANCH  33  35
ENDBRANCH  28  29
ENDBRANCH   5  28
TORSDOF 11
ENDMDL
