MODEL 1
REMARK VINA RESULT:   -10.074      0.000      0.000
REMARK INTER + INTRA:         -13.542
REMARK INTER:                 -11.864
REMARK INTRA:                  -1.678
REMARK CONF_INDEPENDENT:        1.790
REMARK UNBOUND:                -1.678
REMARK  6 active torsions:
REMARK  status: ('A' for Active; 'I' for Inactive)
REMARK       I    between atoms: C_2  and  N_3 
REMARK    1  A    between atoms: C_2  and  C_22 
REMARK    2  A    between atoms: N_3  and  N_4 
REMARK       I    between atoms: N_4  and  C_5 
REMARK    3  A    between atoms: C_5  and  C_7 
REMARK    4  A    between atoms: C_10  and  C_11 
REMARK    5  A    between atoms: C_11  and  N_12 
REMARK       I    between atoms: N_12  and  C_13 
REMARK    6  A    between atoms: C_13  and  C_15 
ROOT
ATOM      1  C   UNL d   1      25.595 -17.113  -1.180  0.00  0.00     0.033 A 
ATOM      2  C   UNL d   1      26.855 -16.798  -0.648  0.00  0.00     0.017 A 
ATOM      3  C   UNL d   1      27.687 -15.847  -1.277  0.00  0.00     0.010 A 
ATOM      4  C   UNL d   1      27.303 -15.233  -2.484  0.00  0.00    -0.040 A 
ATOM      5  C   UNL d   1      26.028 -15.547  -2.981  0.00  0.00     0.010 A 
ATOM      6  C   UNL d   1      25.188 -16.473  -2.349  0.00  0.00     0.017 A 
ENDROOT
BRANCH   1   7
ATOM      7  C   UNL d   1      24.634 -17.987  -0.436  0.00  0.00     0.270 C 
ATOM      8  N   UNL d   1      23.317 -18.015  -0.875  0.00  0.00    -0.263 N 
ATOM      9  H   UNL d   1      22.991 -17.568  -1.731  0.00  0.00     0.190 HD
ATOM     10  O   UNL d   1      25.026 -18.622   0.545  0.00  0.00    -0.266 OA
BRANCH   8  11
ATOM     11  N   UNL d   1      22.351 -18.765  -0.153  0.00  0.00    -0.263 N 
ATOM     12  C   UNL d   1      21.002 -18.593  -0.435  0.00  0.00     0.270 C 
ATOM     13  O   UNL d   1      20.593 -17.783  -1.270  0.00  0.00    -0.266 OA
ATOM     14  H   UNL d   1      22.713 -19.515   0.434  0.00  0.00     0.190 HD
BRANCH  12  15
ATOM     15  C   UNL d   1      20.038 -19.478   0.292  0.00  0.00     0.033 A 
ATOM     16  C   UNL d   1      18.981 -20.115  -0.372  0.00  0.00     0.017 A 
ATOM     17  C   UNL d   1      18.040 -20.860   0.354  0.00  0.00     0.001 A 
ATOM     18  C   UNL d   1      18.190 -21.037   1.730  0.00  0.00     0.000 A 
ATOM     19  C   UNL d   1      19.268 -20.450   2.389  0.00  0.00     0.001 A 
ATOM     20  C   UNL d   1      20.191 -19.676   1.673  0.00  0.00     0.017 A 
ENDBRANCH  12  15
ENDBRANCH   8  11
ENDBRANCH   1   7
BRANCH   4  21
ATOM     21  C   UNL d   1      28.278 -14.313  -3.210  0.00  0.00     0.161 C 
BRANCH  21  22
ATOM     22  N   UNL d   1      29.099 -14.973  -4.215  0.00  0.00    -0.356 N 
ATOM     23  C   UNL d   1      28.621 -15.368  -5.437  0.00  0.00     0.222 C 
ATOM     24  O   UNL d   1      27.453 -15.201  -5.776  0.00  0.00    -0.273 OA
ATOM     25  H   UNL d   1      30.085 -15.077  -4.058  0.00  0.00     0.162 HD
BRANCH  23  26
ATOM     26  C   UNL d   1      29.653 -15.992  -6.384  0.00  0.00     0.078 C 
ATOM     27  C   UNL d   1      30.665 -14.980  -6.918  0.00  0.00     0.014 C 
ATOM     28  C   UNL d   1      31.778 -15.835  -7.510  0.00  0.00     0.001 C 
ATOM     29  C   UNL d   1      31.782 -17.128  -6.699  0.00  0.00     0.001 C 
ATOM     30  C   UNL d   1      30.561 -17.066  -5.778  0.00  0.00     0.014 C 
ENDBRANCH  23  26
ENDBRANCH  21  22
ENDBRANCH   4  21
TORSDOF 6
ENDMDL
MODEL 2
REMARK VINA RESULT:   -10.049      1.922      3.171
REMARK INTER + INTRA:         -13.365
REMARK INTER:                 -11.839
REMARK INTRA:                  -1.526
REMARK CONF_INDEPENDENT:        1.790
REMARK UNBOUND:                -1.526
REMARK  6 active torsions:
REMARK  status: ('A' for Active; 'I' for Inactive)
REMARK       I    between atoms: C_2  and  N_3 
REMARK    1  A    between atoms: C_2  and  C_22 
REMARK    2  A    between atoms: N_3  and  N_4 
REMARK       I    between atoms: N_4  and  C_5 
REMARK    3  A    between atoms: C_5  and  C_7 
REMARK    4  A    between atoms: C_10  and  C_11 
REMARK    5  A    between atoms: C_11  and  N_12 
REMARK       I    between atoms: N_12  and  C_13 
REMARK    6  A    between atoms: C_13  and  C_15 
ROOT
ATOM      1  C   UNL d   1      25.623 -17.220  -0.866  0.00  0.00     0.033 A 
ATOM      2  C   UNL d   1      25.277 -16.414  -1.961  0.00  0.00     0.017 A 
ATOM      3  C   UNL d   1      26.272 -15.769  -2.727  0.00  0.00     0.010 A 
ATOM      4  C   UNL d   1      27.632 -15.868  -2.379  0.00  0.00    -0.040 A 
ATOM      5  C   UNL d   1      27.953 -16.701  -1.294  0.00  0.00     0.010 A 
ATOM      6  C   UNL d   1      26.971 -17.361  -0.545  0.00  0.00     0.017 A 
ENDROOT
BRANCH   1   7
ATOM      7  C   UNL d   1      24.597 -18.043  -0.152  0.00  0.00     0.270 C 
ATOM      8  N   UNL d   1      23.365 -18.214  -0.772  0.00  0.00    -0.263 N 
ATOM      9  H   UNL d   1      23.157 -17.911  -1.721  0.00  0.00     0.190 HD
ATOM     10  O   UNL d   1      24.858 -18.511   0.958  0.00  0.00    -0.266 OA
BRANCH   8  11
ATOM     11  N   UNL d   1      22.331 -18.917  -0.097  0.00  0.00    -0.263 N 
ATOM     12  C   UNL d   1      21.006 -18.666  -0.429  0.00  0.00     0.270 C 
ATOM     13  O   UNL d   1      20.676 -17.825  -1.268  0.00  0.00    -0.266 OA
ATOM     14  H   UNL d   1      22.627 -19.694   0.493  0.00  0.00     0.190 HD
BRANCH  12  15
ATOM     15  C   UNL d   1      19.966 -19.505   0.247  0.00  0.00     0.033 A 
ATOM     16  C   UNL d   1      19.993 -19.739   1.627  0.00  0.00     0.017 A 
ATOM     17  C   UNL d   1      19.059 -20.606   2.213  0.00  0.00     0.001 A 
ATOM     18  C   UNL d   1      18.050 -21.183   1.441  0.00  0.00     0.000 A 
ATOM     19  C   UNL d   1      17.985 -20.912   0.076  0.00  0.00     0.001 A 
ATOM     20  C   UNL d   1      18.937 -20.074  -0.520  0.00  0.00     0.017 A 
ENDBRANCH  12  15
ENDBRANCH   8  11
ENDBRANCH   1   7
BRANCH   4  21
ATOM     21  C   UNL d   1      28.671 -15.054  -3.141  0.00  0.00     0.161 C 
BRANCH  21  22
ATOM     22  N   UNL d   1      28.125 -13.947  -3.914  0.00  0.00    -0.356 N 
ATOM     23  C   UNL d   1      27.532 -14.105  -5.140  0.00  0.00     0.222 C 
ATOM     24  O   UNL d   1      27.423 -15.199  -5.686  0.00  0.00    -0.273 OA
ATOM     25  H   UNL d   1      28.095 -13.029  -3.510  0.00  0.00     0.162 HD
BRANCH  23  26
ATOM     26  C   UNL d   1      26.964 -12.828  -5.771  0.00  0.00     0.078 C 
ATOM     27  C   UNL d   1      26.052 -12.048  -4.825  0.00  0.00     0.014 C 
ATOM     28  C   UNL d   1      25.903 -10.683  -5.486  0.00  0.00     0.001 C 
ATOM     29  C   UNL d   1      27.197 -10.457  -6.264  0.00  0.00     0.001 C 
ATOM     30  C   UNL d   1      27.986 -11.766  -6.183  0.00  0.00     0.014 C 
ENDBRANCH  23  26
ENDBRANCH  21  22
ENDBRANCH   4  21
TORSDOF 6
ENDMDL
MODEL 3
REMARK VINA RESULT:    -9.642      4.254     10.711
REMARK INTER + INTRA:         -12.378
REMARK INTER:                 -11.431
REMARK INTRA:                  -0.947
REMARK CONF_INDEPENDENT:        1.790
REMARK UNBOUND:                -0.947
REMARK  6 active torsions:
REMARK  status: ('A' for Active; 'I' for Inactive)
REMARK       I    between atoms: C_2  and  N_3 
REMARK    1  A    between atoms: C_2  and  C_22 
REMARK    2  A    between atoms: N_3  and  N_4 
REMARK       I    between atoms: N_4  and  C_5 
REMARK    3  A    between atoms: C_5  and  C_7 
REMARK    4  A    between atoms: C_10  and  C_11 
REMARK    5  A    between atoms: C_11  and  N_12 
REMARK       I    between atoms: N_12  and  C_13 
REMARK    6  A    between atoms: C_13  and  C_15 
ROOT
ATOM      1  C   UNL d   1      26.160 -16.348  -0.194  0.00  0.00     0.033 A 
ATOM      2  C   UNL d   1      25.075 -15.912  -0.970  0.00  0.00     0.017 A 
ATOM      3  C   UNL d   1      24.009 -16.785  -1.276  0.00  0.00     0.010 A 
ATOM      4  C   UNL d   1      24.032 -18.130  -0.864  0.00  0.00    -0.040 A 
ATOM      5  C   UNL d   1      25.117 -18.534  -0.069  0.00  0.00     0.010 A 
ATOM      6  C   UNL d   1      26.166 -17.666   0.258  0.00  0.00     0.017 A 
ENDROOT
BRANCH   1   7
ATOM      7  C   UNL d   1      27.209 -15.392   0.281  0.00  0.00     0.270 C 
ATOM      8  N   UNL d   1      27.924 -15.736   1.422  0.00  0.00    -0.263 N 
ATOM      9  H   UNL d   1      27.857 -16.640   1.886  0.00  0.00     0.190 HD
ATOM     10  O   UNL d   1      27.383 -14.333  -0.324  0.00  0.00    -0.266 OA
BRANCH   8  11
ATOM     11  N   UNL d   1      28.872 -14.825   1.958  0.00  0.00    -0.263 N 
ATOM     12  C   UNL d   1      28.440 -13.597   2.441  0.00  0.00     0.270 C 
ATOM     13  O   UNL d   1      27.261 -13.238   2.396  0.00  0.00    -0.266 OA
ATOM     14  H   UNL d   1      29.812 -15.189   2.105  0.00  0.00     0.190 HD
BRANCH  12  15
ATOM     15  C   UNL d   1      29.470 -12.718   3.080  0.00  0.00     0.033 A 
ATOM     16  C   UNL d   1      29.692 -12.729   4.463  0.00  0.00     0.017 A 
ATOM     17  C   UNL d   1      30.596 -11.825   5.039  0.00  0.00     0.001 A 
ATOM     18  C   UNL d   1      31.338 -10.960   4.235  0.00  0.00     0.000 A 
ATOM     19  C   UNL d   1      31.162 -10.979   2.854  0.00  0.00     0.001 A 
ATOM     20  C   UNL d   1      30.234 -11.856   2.276  0.00  0.00     0.017 A 
ENDBRANCH  12  15
ENDBRANCH   8  11
ENDBRANCH   1   7
BRANCH   4  21
ATOM     21  C   UNL d   1      22.935 -19.083  -1.324  0.00  0.00     0.161 C 
BRANCH  21  22
ATOM     22  N   UNL d   1      21.822 -19.218  -0.395  0.00  0.00    -0.356 N 
ATOM     23  C   UNL d   1      20.545 -19.523  -0.788  0.00  0.00     0.222 C 
ATOM     24  O   UNL d   1      20.240 -19.700  -1.965  0.00  0.00    -0.273 OA
ATOM     25  H   UNL d   1      21.993 -19.171   0.593  0.00  0.00     0.162 HD
BRANCH  23  26
ATOM     26  C   UNL d   1      19.521 -19.681   0.342  0.00  0.00     0.078 C 
ATOM     27  C   UNL d   1      18.699 -20.963   0.230  0.00  0.00     0.014 C 
ATOM     28  C   UNL d   1      18.035 -21.107   1.595  0.00  0.00     0.001 C 
ATOM     29  C   UNL d   1      18.990 -20.450   2.589  0.00  0.00     0.001 C 
ATOM     30  C   UNL d   1      20.092 -19.786   1.759  0.00  0.00     0.014 C 
ENDBRANCH  23  26
ENDBRANCH  21  22
ENDBRANCH   4  21
TORSDOF 6
ENDMDL
MODEL 4
REMARK VINA RESULT:    -9.225      2.437      3.599
REMARK INTER + INTRA:         -12.605
REMARK INTER:                 -11.014
REMARK INTRA:                  -1.590
REMARK CONF_INDEPENDENT:        1.790
REMARK UNBOUND:                -1.590
REMARK  6 active torsions:
REMARK  status: ('A' for Active; 'I' for Inactive)
REMARK       I    between atoms: C_2  and  N_3 
REMARK    1  A    between atoms: C_2  and  C_22 
REMARK    2  A    between atoms: N_3  and  N_4 
REMARK       I    between atoms: N_4  and  C_5 
REMARK    3  A    between atoms: C_5  and  C_7 
REMARK    4  A    between atoms: C_10  and  C_11 
REMARK    5  A    between atoms: C_11  and  N_12 
REMARK       I    between atoms: N_12  and  C_13 
REMARK    6  A    between atoms: C_13  and  C_15 
ROOT
ATOM      1  C   UNL d   1      25.314 -16.987  -1.065  0.00  0.00     0.033 A 
ATOM      2  C   UNL d   1      24.848 -16.135  -2.078  0.00  0.00     0.017 A 
ATOM      3  C   UNL d   1      25.751 -15.392  -2.869  0.00  0.00     0.010 A 
ATOM      4  C   UNL d   1      27.136 -15.440  -2.625  0.00  0.00    -0.040 A 
ATOM      5  C   UNL d   1      27.577 -16.319  -1.623  0.00  0.00     0.010 A 
ATOM      6  C   UNL d   1      26.687 -17.075  -0.850  0.00  0.00     0.017 A 
ENDROOT
BRANCH   1   7
ATOM      7  C   UNL d   1      24.385 -17.906  -0.335  0.00  0.00     0.270 C 
ATOM      8  N   UNL d   1      23.068 -17.971  -0.774  0.00  0.00    -0.263 N 
ATOM      9  H   UNL d   1      22.726 -17.522  -1.622  0.00  0.00     0.190 HD
ATOM     10  O   UNL d   1      24.799 -18.543   0.635  0.00  0.00    -0.266 OA
BRANCH   8  11
ATOM     11  N   UNL d   1      22.129 -18.765  -0.063  0.00  0.00    -0.263 N 
ATOM     12  C   UNL d   1      20.783 -18.694  -0.397  0.00  0.00     0.270 C 
ATOM     13  O   UNL d   1      20.351 -17.937  -1.270  0.00  0.00    -0.266 OA
ATOM     14  H   UNL d   1      22.519 -19.473   0.558  0.00  0.00     0.190 HD
BRANCH  12  15
ATOM     15  C   UNL d   1      19.854 -19.623   0.321  0.00  0.00     0.033 A 
ATOM     16  C   UNL d   1      18.915 -20.401  -0.367  0.00  0.00     0.017 A 
ATOM     17  C   UNL d   1      17.996 -21.188   0.343  0.00  0.00     0.001 A 
ATOM     18  C   UNL d   1      18.059 -21.264   1.735  0.00  0.00     0.000 A 
ATOM     19  C   UNL d   1      19.026 -20.534   2.424  0.00  0.00     0.001 A 
ATOM     20  C   UNL d   1      19.923 -19.719   1.721  0.00  0.00     0.017 A 
ENDBRANCH  12  15
ENDBRANCH   8  11
ENDBRANCH   1   7
BRANCH   4  21
ATOM     21  C   UNL d   1      28.075 -14.526  -3.405  0.00  0.00     0.161 C 
BRANCH  21  22
ATOM     22  N   UNL d   1      27.406 -13.596  -4.304  0.00  0.00    -0.356 N 
ATOM     23  C   UNL d   1      26.565 -12.603  -3.872  0.00  0.00     0.222 C 
ATOM     24  O   UNL d   1      26.305 -12.427  -2.685  0.00  0.00    -0.273 OA
ATOM     25  H   UNL d   1      27.623 -13.612  -5.284  0.00  0.00     0.162 HD
BRANCH  23  26
ATOM     26  C   UNL d   1      26.003 -11.687  -4.966  0.00  0.00     0.078 C 
ATOM     27  C   UNL d   1      25.838 -10.239  -4.506  0.00  0.00     0.014 C 
ATOM     28  C   UNL d   1      25.635  -9.454  -5.797  0.00  0.00     0.001 C 
ATOM     29  C   UNL d   1      26.392 -10.227  -6.874  0.00  0.00     0.001 C 
ATOM     30  C   UNL d   1      26.863 -11.530  -6.222  0.00  0.00     0.014 C 
ENDBRANCH  23  26
ENDBRANCH  21  22
ENDBRANCH   4  21
TORSDOF 6
ENDMDL
MODEL 5
REMARK VINA RESULT:    -9.198      4.703     10.625
REMARK INTER + INTRA:         -12.501
REMARK INTER:                 -10.987
REMARK INTRA:                  -1.513
REMARK CONF_INDEPENDENT:        1.790
REMARK UNBOUND:                -1.513
REMARK  6 active torsions:
REMARK  status: ('A' for Active; 'I' for Inactive)
REMARK       I    between atoms: C_2  and  N_3 
REMARK    1  A    between atoms: C_2  and  C_22 
REMARK    2  A    between atoms: N_3  and  N_4 
REMARK       I    between atoms: N_4  and  C_5 
REMARK    3  A    between atoms: C_5  and  C_7 
REMARK    4  A    between atoms: C_10  and  C_11 
REMARK    5  A    between atoms: C_11  and  N_12 
REMARK       I    between atoms: N_12  and  C_13 
REMARK    6  A    between atoms: C_13  and  C_15 
ROOT
ATOM      1  C   UNL d   1      26.454 -15.976   0.103  0.00  0.00     0.033 A 
ATOM      2  C   UNL d   1      25.555 -15.498  -0.863  0.00  0.00     0.017 A 
ATOM      3  C   UNL d   1      24.527 -16.325  -1.364  0.00  0.00     0.010 A 
ATOM      4  C   UNL d   1      24.411 -17.667  -0.955  0.00  0.00    -0.040 A 
ATOM      5  C   UNL d   1      25.308 -18.112   0.031  0.00  0.00     0.010 A 
ATOM      6  C   UNL d   1      26.316 -17.289   0.548  0.00  0.00     0.017 A 
ENDROOT
BRANCH   1   7
ATOM      7  C   UNL d   1      27.438 -15.064   0.767  0.00  0.00     0.270 C 
ATOM      8  N   UNL d   1      27.756 -15.317   2.095  0.00  0.00    -0.263 N 
ATOM      9  H   UNL d   1      27.449 -16.142   2.608  0.00  0.00     0.190 HD
ATOM     10  O   UNL d   1      27.905 -14.113   0.137  0.00  0.00    -0.266 OA
BRANCH   8  11
ATOM     11  N   UNL d   1      28.621 -14.432   2.792  0.00  0.00    -0.263 N 
ATOM     12  C   UNL d   1      28.670 -14.476   4.179  0.00  0.00     0.270 C 
ATOM     13  O   UNL d   1      27.963 -15.234   4.848  0.00  0.00    -0.266 OA
ATOM     14  H   UNL d   1      29.285 -13.911   2.221  0.00  0.00     0.190 HD
BRANCH  12  15
ATOM     15  C   UNL d   1      29.668 -13.586   4.852  0.00  0.00     0.033 A 
ATOM     16  C   UNL d   1      29.704 -13.443   6.245  0.00  0.00     0.017 A 
ATOM     17  C   UNL d   1      30.588 -12.528   6.837  0.00  0.00     0.001 A 
ATOM     18  C   UNL d   1      31.491 -11.811   6.052  0.00  0.00     0.000 A 
ATOM     19  C   UNL d   1      31.498 -11.988   4.670  0.00  0.00     0.001 A 
ATOM     20  C   UNL d   1      30.593 -12.874   4.071  0.00  0.00     0.017 A 
ENDBRANCH  12  15
ENDBRANCH   8  11
ENDBRANCH   1   7
BRANCH   4  21
ATOM     21  C   UNL d   1      23.377 -18.573  -1.612  0.00  0.00     0.161 C 
BRANCH  21  22
ATOM     22  N   UNL d   1      22.534 -19.306  -0.678  0.00  0.00    -0.356 N 
ATOM     23  C   UNL d   1      21.189 -19.079  -0.540  0.00  0.00     0.222 C 
ATOM     24  O   UNL d   1      20.591 -18.228  -1.193  0.00  0.00    -0.273 OA
ATOM     25  H   UNL d   1      22.919 -20.076  -0.162  0.00  0.00     0.162 HD
BRANCH  23  26
ATOM     26  C   UNL d   1      20.460 -19.993   0.452  0.00  0.00     0.078 C 
ATOM     27  C   UNL d   1      20.201 -19.325   1.802  0.00  0.00     0.014 C 
ATOM     28  C   UNL d   1      19.178 -20.229   2.480  0.00  0.00     0.001 C 
ATOM     29  C   UNL d   1      18.370 -20.860   1.348  0.00  0.00     0.001 C 
ATOM     30  C   UNL d   1      19.057 -20.449   0.043  0.00  0.00     0.014 C 
ENDBRANCH  23  26
ENDBRANCH  21  22
ENDBRANCH   4  21
TORSDOF 6
ENDMDL
MODEL 6
REMARK VINA RESULT:    -8.832      3.917     11.095
REMARK INTER + INTRA:         -12.201
REMARK INTER:                 -10.622
REMARK INTRA:                  -1.579
REMARK CONF_INDEPENDENT:        1.790
REMARK UNBOUND:                -1.579
REMARK  6 active torsions:
REMARK  status: ('A' for Active; 'I' for Inactive)
REMARK       I    between atoms: C_2  and  N_3 
REMARK    1  A    between atoms: C_2  and  C_22 
REMARK    2  A    between atoms: N_3  and  N_4 
REMARK       I    between atoms: N_4  and  C_5 
REMARK    3  A    between atoms: C_5  and  C_7 
REMARK    4  A    between atoms: C_10  and  C_11 
REMARK    5  A    between atoms: C_11  and  N_12 
REMARK       I    between atoms: N_12  and  C_13 
REMARK    6  A    between atoms: C_13  and  C_15 
ROOT
ATOM      1  C   UNL d   1      26.542 -16.987  -0.058  0.00  0.00     0.033 A 
ATOM      2  C   UNL d   1      25.884 -16.340  -1.116  0.00  0.00     0.017 A 
ATOM      3  C   UNL d   1      24.613 -16.773  -1.549  0.00  0.00     0.010 A 
ATOM      4  C   UNL d   1      23.995 -17.898  -0.973  0.00  0.00    -0.040 A 
ATOM      5  C   UNL d   1      24.662 -18.512   0.100  0.00  0.00     0.010 A 
ATOM      6  C   UNL d   1      25.914 -18.073   0.549  0.00  0.00     0.017 A 
ENDROOT
BRANCH   1   7
ATOM      7  C   UNL d   1      27.807 -16.437   0.522  0.00  0.00     0.270 C 
ATOM      8  N   UNL d   1      29.008 -16.918   0.016  0.00  0.00    -0.263 N 
ATOM      9  H   UNL d   1      29.082 -17.531  -0.793  0.00  0.00     0.190 HD
ATOM     10  O   UNL d   1      27.748 -15.613   1.437  0.00  0.00    -0.266 OA
BRANCH   8  11
ATOM     11  N   UNL d   1      30.234 -16.488   0.591  0.00  0.00    -0.263 N 
ATOM     12  C   UNL d   1      31.411 -16.619  -0.135  0.00  0.00     0.270 C 
ATOM     13  O   UNL d   1      31.450 -17.131  -1.257  0.00  0.00    -0.266 OA
ATOM     14  H   UNL d   1      30.162 -15.953   1.456  0.00  0.00     0.190 HD
BRANCH  12  15
ATOM     15  C   UNL d   1      32.656 -16.063   0.483  0.00  0.00     0.033 A 
ATOM     16  C   UNL d   1      33.695 -15.541  -0.298  0.00  0.00     0.017 A 
ATOM     17  C   UNL d   1      34.887 -15.116   0.308  0.00  0.00     0.001 A 
ATOM     18  C   UNL d   1      35.020 -15.137   1.696  0.00  0.00     0.000 A 
ATOM     19  C   UNL d   1      33.970 -15.605   2.483  0.00  0.00     0.001 A 
ATOM     20  C   UNL d   1      32.791 -16.064   1.881  0.00  0.00     0.017 A 
ENDBRANCH  12  15
ENDBRANCH   8  11
ENDBRANCH   1   7
BRANCH   4  21
ATOM     21  C   UNL d   1      22.685 -18.423  -1.550  0.00  0.00     0.161 C 
BRANCH  21  22
ATOM     22  N   UNL d   1      21.641 -18.659  -0.563  0.00  0.00    -0.356 N 
ATOM     23  C   UNL d   1      20.506 -19.382  -0.826  0.00  0.00     0.222 C 
ATOM     24  O   UNL d   1      20.280 -19.883  -1.924  0.00  0.00    -0.273 OA
ATOM     25  H   UNL d   1      21.778 -18.358   0.385  0.00  0.00     0.162 HD
BRANCH  23  26
ATOM     26  C   UNL d   1      19.551 -19.573   0.358  0.00  0.00     0.078 C 
ATOM     27  C   UNL d   1      18.681 -20.822   0.231  0.00  0.00     0.014 C 
ATOM     28  C   UNL d   1      18.101 -21.022   1.626  0.00  0.00     0.001 C 
ATOM     29  C   UNL d   1      19.137 -20.450   2.590  0.00  0.00     0.001 C 
ATOM     30  C   UNL d   1      20.206 -19.774   1.727  0.00  0.00     0.014 C 
ENDBRANCH  23  26
ENDBRANCH  21  22
ENDBRANCH   4  21
TORSDOF 6
ENDMDL
MODEL 7
REMARK VINA RESULT:    -8.472      4.012     10.624
REMARK INTER + INTRA:         -11.986
REMARK INTER:                 -10.262
REMARK INTRA:                  -1.725
REMARK CONF_INDEPENDENT:        1.790
REMARK UNBOUND:                -1.725
REMARK  6 active torsions:
REMARK  status: ('A' for Active; 'I' for Inactive)
REMARK       I    between atoms: C_2  and  N_3 
REMARK    1  A    between atoms: C_2  and  C_22 
REMARK    2  A    between atoms: N_3  and  N_4 
REMARK       I    between atoms: N_4  and  C_5 
REMARK    3  A    between atoms: C_5  and  C_7 
REMARK    4  A    between atoms: C_10  and  C_11 
REMARK    5  A    between atoms: C_11  and  N_12 
REMARK       I    between atoms: N_12  and  C_13 
REMARK    6  A    between atoms: C_13  and  C_15 
ROOT
ATOM      1  C   UNL d   1      25.132 -15.053  -2.606  0.00  0.00     0.033 A 
ATOM      2  C   UNL d   1      26.202 -15.883  -2.239  0.00  0.00     0.017 A 
ATOM      3  C   UNL d   1      26.017 -16.935  -1.316  0.00  0.00     0.010 A 
ATOM      4  C   UNL d   1      24.772 -17.143  -0.695  0.00  0.00    -0.040 A 
ATOM      5  C   UNL d   1      23.712 -16.314  -1.098  0.00  0.00     0.010 A 
ATOM      6  C   UNL d   1      23.885 -15.283  -2.030  0.00  0.00     0.017 A 
ENDROOT
BRANCH   1   7
ATOM      7  C   UNL d   1      25.271 -14.047  -3.706  0.00  0.00     0.270 C 
ATOM      8  N   UNL d   1      25.474 -12.721  -3.343  0.00  0.00    -0.263 N 
ATOM      9  H   UNL d   1      25.645 -12.410  -2.388  0.00  0.00     0.190 HD
ATOM     10  O   UNL d   1      25.171 -14.412  -4.879  0.00  0.00    -0.266 OA
BRANCH   8  11
ATOM     11  N   UNL d   1      25.530 -11.719  -4.348  0.00  0.00    -0.263 N 
ATOM     12  C   UNL d   1      25.849 -10.415  -3.994  0.00  0.00     0.270 C 
ATOM     13  O   UNL d   1      26.057 -10.071  -2.827  0.00  0.00    -0.266 OA
ATOM     14  H   UNL d   1      25.486 -12.046  -5.312  0.00  0.00     0.190 HD
BRANCH  12  15
ATOM     15  C   UNL d   1      25.986  -9.422  -5.107  0.00  0.00     0.033 A 
ATOM     16  C   UNL d   1      25.509  -8.111  -4.986  0.00  0.00     0.017 A 
ATOM     17  C   UNL d   1      25.567  -7.237  -6.080  0.00  0.00     0.001 A 
ATOM     18  C   UNL d   1      26.168  -7.638  -7.274  0.00  0.00     0.000 A 
ATOM     19  C   UNL d   1      26.693  -8.923  -7.384  0.00  0.00     0.001 A 
ATOM     20  C   UNL d   1      26.606  -9.813  -6.304  0.00  0.00     0.017 A 
ENDBRANCH  12  15
ENDBRANCH   8  11
ENDBRANCH   1   7
BRANCH   4  21
ATOM     21  C   UNL d   1      24.636 -18.199   0.396  0.00  0.00     0.161 C 
BRANCH  21  22
ATOM     22  N   UNL d   1      23.297 -18.752   0.540  0.00  0.00    -0.356 N 
ATOM     23  C   UNL d   1      22.578 -19.268  -0.508  0.00  0.00     0.222 C 
ATOM     24  O   UNL d   1      23.011 -19.294  -1.657  0.00  0.00    -0.273 OA
ATOM     25  H   UNL d   1      22.896 -18.848   1.455  0.00  0.00     0.162 HD
BRANCH  23  26
ATOM     26  C   UNL d   1      21.211 -19.860  -0.148  0.00  0.00     0.078 C 
ATOM     27  C   UNL d   1      20.674 -19.355   1.191  0.00  0.00     0.014 C 
ATOM     28  C   UNL d   1      19.203 -19.753   1.182  0.00  0.00     0.001 C 
ATOM     29  C   UNL d   1      18.784 -19.750  -0.287  0.00  0.00     0.001 C 
ATOM     30  C   UNL d   1      20.060 -19.529  -1.102  0.00  0.00     0.014 C 
ENDBRANCH  23  26
ENDBRANCH  21  22
ENDBRANCH   4  21
TORSDOF 6
ENDMDL
MODEL 8
REMARK VINA RESULT:    -8.377      3.941     11.001
REMARK INTER + INTRA:         -11.643
REMARK INTER:                 -10.167
REMARK INTRA:                  -1.476
REMARK CONF_INDEPENDENT:        1.790
REMARK UNBOUND:                -1.476
REMARK  6 active torsions:
REMARK  status: ('A' for Active; 'I' for Inactive)
REMARK       I    between atoms: C_2  and  N_3 
REMARK    1  A    between atoms: C_2  and  C_22 
REMARK    2  A    between atoms: N_3  and  N_4 
REMARK       I    between atoms: N_4  and  C_5 
REMARK    3  A    between atoms: C_5  and  C_7 
REMARK    4  A    between atoms: C_10  and  C_11 
REMARK    5  A    between atoms: C_11  and  N_12 
REMARK       I    between atoms: N_12  and  C_13 
REMARK    6  A    between atoms: C_13  and  C_15 
ROOT
ATOM      1  C   UNL d   1      26.446 -16.985  -0.132  0.00  0.00     0.033 A 
ATOM      2  C   UNL d   1      25.631 -17.857   0.607  0.00  0.00     0.017 A 
ATOM      3  C   UNL d   1      24.258 -17.991   0.307  0.00  0.00     0.010 A 
ATOM      4  C   UNL d   1      23.657 -17.213  -0.700  0.00  0.00    -0.040 A 
ATOM      5  C   UNL d   1      24.499 -16.368  -1.441  0.00  0.00     0.010 A 
ATOM      6  C   UNL d   1      25.867 -16.248  -1.162  0.00  0.00     0.017 A 
ENDROOT
BRANCH   1   7
ATOM      7  C   UNL d   1      27.930 -16.959   0.061  0.00  0.00     0.270 C 
ATOM      8  N   UNL d   1      28.459 -15.934   0.836  0.00  0.00    -0.263 N 
ATOM      9  H   UNL d   1      27.897 -15.271   1.367  0.00  0.00     0.190 HD
ATOM     10  O   UNL d   1      28.629 -17.812  -0.489  0.00  0.00    -0.266 OA
BRANCH   8  11
ATOM     11  N   UNL d   1      29.868 -15.819   0.980  0.00  0.00    -0.263 N 
ATOM     12  C   UNL d   1      30.416 -14.607   1.378  0.00  0.00     0.270 C 
ATOM     13  O   UNL d   1      29.733 -13.600   1.582  0.00  0.00    -0.266 OA
ATOM     14  H   UNL d   1      30.397 -16.689   0.935  0.00  0.00     0.190 HD
BRANCH  12  15
ATOM     15  C   UNL d   1      31.895 -14.572   1.605  0.00  0.00     0.033 A 
ATOM     16  C   UNL d   1      32.484 -13.649   2.478  0.00  0.00     0.017 A 
ATOM     17  C   UNL d   1      33.880 -13.580   2.594  0.00  0.00     0.001 A 
ATOM     18  C   UNL d   1      34.691 -14.479   1.901  0.00  0.00     0.000 A 
ATOM     19  C   UNL d   1      34.111 -15.435   1.071  0.00  0.00     0.001 A 
ATOM     20  C   UNL d   1      32.718 -15.485   0.925  0.00  0.00     0.017 A 
ENDBRANCH  12  15
ENDBRANCH   8  11
ENDBRANCH   1   7
BRANCH   4  21
ATOM     21  C   UNL d   1      22.149 -17.281  -0.912  0.00  0.00     0.161 C 
BRANCH  21  22
ATOM     22  N   UNL d   1      21.463 -18.251  -0.070  0.00  0.00    -0.356 N 
ATOM     23  C   UNL d   1      20.821 -19.357  -0.565  0.00  0.00     0.222 C 
ATOM     24  O   UNL d   1      20.771 -19.610  -1.765  0.00  0.00    -0.273 OA
ATOM     25  H   UNL d   1      21.522 -18.169   0.929  0.00  0.00     0.162 HD
BRANCH  23  26
ATOM     26  C   UNL d   1      20.208 -20.293   0.483  0.00  0.00     0.078 C 
ATOM     27  C   UNL d   1      20.119 -19.661   1.871  0.00  0.00     0.014 C 
ATOM     28  C   UNL d   1      19.177 -20.576   2.644  0.00  0.00     0.001 C 
ATOM     29  C   UNL d   1      18.233 -21.172   1.601  0.00  0.00     0.001 C 
ATOM     30  C   UNL d   1      18.762 -20.730   0.234  0.00  0.00     0.014 C 
ENDBRANCH  23  26
ENDBRANCH  21  22
ENDBRANCH   4  21
TORSDOF 6
ENDMDL
