MODEL 1
REMARK VINA RESULT:   -32.387      0.000      0.000
REMARK INTER + INTRA:         -35.260
REMARK INTER:                 -34.475
REMARK INTRA:                  -0.785
REMARK CONF_INDEPENDENT:        2.088
REMARK UNBOUND:                -0.785
REMARK  7 active torsions:
REMARK  status: ('A' for Active; 'I' for Inactive)
REMARK    1  A    between atoms: C_4  and  C_5 
REMARK    2  A    between atoms: C_5  and  C_6 
REMARK    3  A    between atoms: C_6  and  C_7 
REMARK    4  A    between atoms: C_7  and  N_8 
REMARK       I    between atoms: N_8  and  C_9 
REMARK    5  A    between atoms: C_9  and  C_11 
REMARK    6  A    between atoms: C_15  and  N_16 
REMARK    7  A    between atoms: N_16  and  C_17 
ROOT
ATOM      1  N   UNL d   1      20.266 -20.561   3.579  0.00  0.00    -0.191 NA
ATOM      2  C   UNL d   1      19.990 -20.382   2.470  0.00  0.00     0.105 C 
ATOM      3  C   UNL d   1      19.731 -20.105   1.092  0.00  0.00     0.115 A 
ATOM      4  C   UNL d   1      20.486 -19.329   0.171  0.00  0.00     0.079 A 
ATOM      5  N   UNL d   1      19.904 -19.322  -1.042  0.00  0.00    -0.176 NA
ATOM      6  N   UNL d   1      18.796 -20.079  -0.876  0.00  0.00    -0.261 N 
ATOM      7  C   UNL d   1      18.646 -20.563   0.395  0.00  0.00     0.138 A 
ATOM      8  N   UNL d   1      17.609 -21.325   0.785  0.00  0.00    -0.383 N 
ATOM      9  H   UNL d   1      18.178 -20.226  -1.667  0.00  0.00     0.191 HD
ATOM     10  H   UNL d   1      16.845 -21.618   0.185  0.00  0.00     0.157 HD
ATOM     11  H   UNL d   1      17.526 -21.644   1.750  0.00  0.00     0.157 HD
ENDROOT
BRANCH   4  12
ATOM     12  C   UNL d   1      21.769 -18.574   0.410  0.00  0.00     0.064 C 
BRANCH  12  13
ATOM     13  C   UNL d   1      22.343 -18.004  -0.891  0.00  0.00     0.026 C 
BRANCH  13  14
ATOM     14  C   UNL d   1      23.108 -16.713  -0.742  0.00  0.00     0.123 C 
BRANCH  14  15
ATOM     15  N   UNL d   1      24.165 -16.593  -1.736  0.00  0.00    -0.356 N 
ATOM     16  C   UNL d   1      25.339 -15.910  -1.444  0.00  0.00     0.258 C 
ATOM     17  O   UNL d   1      25.516 -15.408  -0.336  0.00  0.00    -0.267 OA
ATOM     18  H   UNL d   1      24.046 -17.003  -2.659  0.00  0.00     0.162 HD
BRANCH  16  19
ATOM     19  C   UNL d   1      26.333 -15.833  -2.516  0.00  0.00     0.076 A 
ATOM     20  C   UNL d   1      27.721 -15.956  -2.448  0.00  0.00     0.046 A 
ATOM     21  C   UNL d   1      28.318 -15.735  -3.745  0.00  0.00     0.045 A 
ATOM     22  S   UNL d   1      29.896 -15.722  -4.550  0.00  0.00    -0.049 SA
ATOM     23  C   UNL d   1      27.386 -15.424  -4.686  0.00  0.00     0.118 A 
ATOM     24  C   UNL d   1      29.103 -15.290  -6.060  0.00  0.00     0.173 A 
ATOM     25  N   UNL d   1      27.803 -15.168  -5.947  0.00  0.00    -0.216 NA
ATOM     26  S   UNL d   1      25.773 -15.414  -4.083  0.00  0.00    -0.064 SA
BRANCH  24  27
ATOM     27  N   UNL d   1      29.757 -15.129  -7.247  0.00  0.00    -0.335 N 
ATOM     28  H   UNL d   1      29.390 -14.540  -7.983  0.00  0.00     0.168 HD
BRANCH  27  29
ATOM     29  C   UNL d   1      31.031 -15.692  -7.519  0.00  0.00     0.034 A 
ATOM     30  C   UNL d   1      31.224 -17.082  -7.504  0.00  0.00     0.029 A 
ATOM     31  C   UNL d   1      32.485 -17.644  -7.768  0.00  0.00     0.002 A 
ATOM     32  C   UNL d   1      33.555 -16.830  -8.130  0.00  0.00     0.000 A 
ATOM     33  C   UNL d   1      33.388 -15.449  -8.135  0.00  0.00     0.002 A 
ATOM     34  C   UNL d   1      32.140 -14.888  -7.823  0.00  0.00     0.029 A 
ENDBRANCH  27  29
ENDBRANCH  24  27
ENDBRANCH  16  19
ENDBRANCH  14  15
ENDBRANCH  13  14
ENDBRANCH  12  13
ENDBRANCH   4  12
TORSDOF 7
ENDMDL
MODEL 2
REMARK VINA RESULT:   -32.030      1.880      2.386
REMARK INTER + INTRA:         -34.923
REMARK INTER:                 -34.118
REMARK INTRA:                  -0.805
REMARK CONF_INDEPENDENT:        2.088
REMARK UNBOUND:                -0.805
REMARK  7 active torsions:
REMARK  status: ('A' for Active; 'I' for Inactive)
REMARK    1  A    between atoms: C_4  and  C_5 
REMARK    2  A    between atoms: C_5  and  C_6 
REMARK    3  A    between atoms: C_6  and  C_7 
REMARK    4  A    between atoms: C_7  and  N_8 
REMARK       I    between atoms: N_8  and  C_9 
REMARK    5  A    between atoms: C_9  and  C_11 
REMARK    6  A    between atoms: C_15  and  N_16 
REMARK    7  A    between atoms: N_16  and  C_17 
ROOT
ATOM      1  N   UNL d   1      20.210 -20.622   3.621  0.00  0.00    -0.191 NA
ATOM      2  C   UNL d   1      19.948 -20.427   2.512  0.00  0.00     0.105 C 
ATOM      3  C   UNL d   1      19.706 -20.128   1.134  0.00  0.00     0.115 A 
ATOM      4  C   UNL d   1      20.470 -19.335   0.236  0.00  0.00     0.079 A 
ATOM      5  N   UNL d   1      19.905 -19.311  -0.984  0.00  0.00    -0.176 NA
ATOM      6  N   UNL d   1      18.798 -20.075  -0.845  0.00  0.00    -0.261 N 
ATOM      7  C   UNL d   1      18.633 -20.580   0.416  0.00  0.00     0.138 A 
ATOM      8  N   UNL d   1      17.594 -21.352   0.779  0.00  0.00    -0.383 N 
ATOM      9  H   UNL d   1      18.191 -20.212  -1.646  0.00  0.00     0.191 HD
ATOM     10  H   UNL d   1      16.840 -21.639   0.165  0.00  0.00     0.157 HD
ATOM     11  H   UNL d   1      17.499 -21.688   1.739  0.00  0.00     0.157 HD
ENDROOT
BRANCH   4  12
ATOM     12  C   UNL d   1      21.746 -18.579   0.504  0.00  0.00     0.064 C 
BRANCH  12  13
ATOM     13  C   UNL d   1      22.322 -17.963  -0.775  0.00  0.00     0.026 C 
BRANCH  13  14
ATOM     14  C   UNL d   1      22.992 -16.624  -0.596  0.00  0.00     0.123 C 
BRANCH  14  15
ATOM     15  N   UNL d   1      23.981 -16.372  -1.635  0.00  0.00    -0.356 N 
ATOM     16  C   UNL d   1      25.316 -16.171  -1.308  0.00  0.00     0.258 C 
ATOM     17  O   UNL d   1      25.692 -16.216  -0.139  0.00  0.00    -0.267 OA
ATOM     18  H   UNL d   1      23.697 -16.333  -2.611  0.00  0.00     0.162 HD
BRANCH  16  19
ATOM     19  C   UNL d   1      26.228 -15.910  -2.424  0.00  0.00     0.076 A 
ATOM     20  C   UNL d   1      27.623 -15.866  -2.435  0.00  0.00     0.046 A 
ATOM     21  C   UNL d   1      28.112 -15.498  -3.744  0.00  0.00     0.045 A 
ATOM     22  S   UNL d   1      29.626 -15.244  -4.626  0.00  0.00    -0.049 SA
ATOM     23  C   UNL d   1      27.094 -15.248  -4.614  0.00  0.00     0.118 A 
ATOM     24  C   UNL d   1      28.700 -14.825  -6.063  0.00  0.00     0.173 A 
ATOM     25  N   UNL d   1      27.403 -14.871  -5.874  0.00  0.00    -0.216 NA
ATOM     26  S   UNL d   1      25.530 -15.472  -3.928  0.00  0.00    -0.064 SA
BRANCH  24  27
ATOM     27  N   UNL d   1      29.259 -14.516  -7.269  0.00  0.00    -0.335 N 
ATOM     28  H   UNL d   1      29.299 -15.186  -8.025  0.00  0.00     0.168 HD
BRANCH  27  29
ATOM     29  C   UNL d   1      29.745 -13.224  -7.596  0.00  0.00     0.034 A 
ATOM     30  C   UNL d   1      30.716 -12.596  -6.801  0.00  0.00     0.029 A 
ATOM     31  C   UNL d   1      31.197 -11.314  -7.119  0.00  0.00     0.002 A 
ATOM     32  C   UNL d   1      30.774 -10.673  -8.280  0.00  0.00     0.000 A 
ATOM     33  C   UNL d   1      29.800 -11.272  -9.072  0.00  0.00     0.002 A 
ATOM     34  C   UNL d   1      29.285 -12.531  -8.727  0.00  0.00     0.029 A 
ENDBRANCH  27  29
ENDBRANCH  24  27
ENDBRANCH  16  19
ENDBRANCH  14  15
ENDBRANCH  13  14
ENDBRANCH  12  13
ENDBRANCH   4  12
TORSDOF 7
ENDMDL
MODEL 3
REMARK VINA RESULT:   -31.964      3.749      5.365
REMARK INTER + INTRA:         -34.883
REMARK INTER:                 -34.052
REMARK INTRA:                  -0.831
REMARK CONF_INDEPENDENT:        2.088
REMARK UNBOUND:                -0.831
REMARK  7 active torsions:
REMARK  status: ('A' for Active; 'I' for Inactive)
REMARK    1  A    between atoms: C_4  and  C_5 
REMARK    2  A    between atoms: C_5  and  C_6 
REMARK    3  A    between atoms: C_6  and  C_7 
REMARK    4  A    between atoms: C_7  and  N_8 
REMARK       I    between atoms: N_8  and  C_9 
REMARK    5  A    between atoms: C_9  and  C_11 
REMARK    6  A    between atoms: C_15  and  N_16 
REMARK    7  A    between atoms: N_16  and  C_17 
ROOT
ATOM      1  N   UNL d   1      20.377 -20.474   3.512  0.00  0.00    -0.191 NA
ATOM      2  C   UNL d   1      20.068 -20.316   2.409  0.00  0.00     0.105 C 
ATOM      3  C   UNL d   1      19.768 -20.065   1.033  0.00  0.00     0.115 A 
ATOM      4  C   UNL d   1      20.496 -19.309   0.075  0.00  0.00     0.079 A 
ATOM      5  N   UNL d   1      19.879 -19.325  -1.119  0.00  0.00    -0.176 NA
ATOM      6  N   UNL d   1      18.776 -20.077  -0.907  0.00  0.00    -0.261 N 
ATOM      7  C   UNL d   1      18.663 -20.536   0.378  0.00  0.00     0.138 A 
ATOM      8  N   UNL d   1      17.637 -21.288   0.813  0.00  0.00    -0.383 N 
ATOM      9  H   UNL d   1      18.135 -20.238  -1.675  0.00  0.00     0.191 HD
ATOM     10  H   UNL d   1      16.855 -21.591   0.242  0.00  0.00     0.157 HD
ATOM     11  H   UNL d   1      17.582 -21.588   1.787  0.00  0.00     0.157 HD
ENDROOT
BRANCH   4  12
ATOM     12  C   UNL d   1      21.787 -18.552   0.261  0.00  0.00     0.064 C 
BRANCH  12  13
ATOM     13  C   UNL d   1      22.956 -19.238  -0.451  0.00  0.00     0.026 C 
BRANCH  13  14
ATOM     14  C   UNL d   1      24.305 -18.601  -0.227  0.00  0.00     0.123 C 
BRANCH  14  15
ATOM     15  N   UNL d   1      24.563 -17.533  -1.183  0.00  0.00    -0.356 N 
ATOM     16  C   UNL d   1      25.807 -16.917  -1.238  0.00  0.00     0.258 C 
ATOM     17  O   UNL d   1      26.718 -17.270  -0.492  0.00  0.00    -0.267 OA
ATOM     18  H   UNL d   1      23.828 -17.225  -1.814  0.00  0.00     0.162 HD
BRANCH  16  19
ATOM     19  C   UNL d   1      25.961 -15.845  -2.223  0.00  0.00     0.076 A 
ATOM     20  C   UNL d   1      27.097 -15.446  -2.928  0.00  0.00     0.046 A 
ATOM     21  C   UNL d   1      26.812 -14.289  -3.745  0.00  0.00     0.045 A 
ATOM     22  S   UNL d   1      27.586 -13.200  -4.908  0.00  0.00    -0.049 SA
ATOM     23  C   UNL d   1      25.530 -13.860  -3.586  0.00  0.00     0.118 A 
ATOM     24  C   UNL d   1      26.083 -12.293  -5.034  0.00  0.00     0.173 A 
ATOM     25  N   UNL d   1      25.126 -12.768  -4.274  0.00  0.00    -0.216 NA
ATOM     26  S   UNL d   1      24.609 -14.825  -2.498  0.00  0.00    -0.064 SA
BRANCH  24  27
ATOM     27  N   UNL d   1      25.905 -11.222  -5.861  0.00  0.00    -0.335 N 
ATOM     28  H   UNL d   1      25.922 -11.317  -6.867  0.00  0.00     0.168 HD
BRANCH  27  29
ATOM     29  C   UNL d   1      25.596  -9.918  -5.394  0.00  0.00     0.034 A 
ATOM     30  C   UNL d   1      25.848  -9.549  -4.064  0.00  0.00     0.029 A 
ATOM     31  C   UNL d   1      25.539  -8.260  -3.597  0.00  0.00     0.002 A 
ATOM     32  C   UNL d   1      25.047  -7.294  -4.471  0.00  0.00     0.000 A 
ATOM     33  C   UNL d   1      24.775  -7.646  -5.789  0.00  0.00     0.002 A 
ATOM     34  C   UNL d   1      25.039  -8.948  -6.241  0.00  0.00     0.029 A 
ENDBRANCH  27  29
ENDBRANCH  24  27
ENDBRANCH  16  19
ENDBRANCH  14  15
ENDBRANCH  13  14
ENDBRANCH  12  13
ENDBRANCH   4  12
TORSDOF 7
ENDMDL
