MODEL 1
REMARK VINA RESULT:    -7.256      0.000      0.000
REMARK INTER + INTRA:         -11.589
REMARK INTER:                  -9.643
REMARK INTRA:                  -1.946
REMARK CONF_INDEPENDENT:        2.386
REMARK UNBOUND:                -1.946
REMARK  8 active torsions:
REMARK  status: ('A' for Active; 'I' for Inactive)
REMARK    1  A    between atoms: O_2  and  C_3 
REMARK    2  A    between atoms: C_10  and  S_11 
REMARK    3  A    between atoms: S_11  and  C_12 
REMARK    4  A    between atoms: C_12  and  C_13 
REMARK       I    between atoms: C_13  and  N_15 
REMARK    5  A    between atoms: N_15  and  C_17 
REMARK    6  A    between atoms: C_17  and  C_18 
REMARK       I    between atoms: C_18  and  N_20 
REMARK    7  A    between atoms: N_20  and  C_21 
REMARK    8  A    between atoms: C_26  and  C_27 
ROOT
ATOM      1  C   UNL d   1      27.370 -12.734  -0.383  0.00  0.00     0.229 C 
ATOM      2  O   UNL d   1      26.308 -12.854   0.227  0.00  0.00    -0.273 OA
ATOM      3  N   UNL d   1      27.430 -12.857  -1.765  0.00  0.00    -0.347 N 
ATOM      4  C   UNL d   1      28.675 -12.727  -2.516  0.00  0.00     0.153 C 
ENDROOT
BRANCH   1   5
ATOM      5  C   UNL d   1      28.699 -12.468   0.369  0.00  0.00     0.180 C 
BRANCH   5   6
ATOM      6  S   UNL d   1      29.186 -13.937   1.386  0.00  0.00    -0.114 SA
BRANCH   6   7
ATOM      7  C   UNL d   1      27.919 -14.006   2.683  0.00  0.00     0.247 A 
ATOM      8  N   UNL d   1      27.657 -12.737   3.409  0.00  0.00    -0.358 N 
ATOM      9  C   UNL d   1      27.934 -12.877   4.655  0.00  0.00     0.059 A 
ATOM     10  H   UNL d   1      27.356 -11.851   3.009  0.00  0.00     0.162 HD
ATOM     11  C   UNL d   1      28.335 -14.287   4.917  0.00  0.00     0.057 A 
ATOM     12  C   UNL d   1      27.908 -11.895   5.719  0.00  0.00     0.068 A 
ATOM     13  C   UNL d   1      28.696 -14.681   6.281  0.00  0.00     0.034 A 
ATOM     14  N   UNL d   1      28.287 -14.936   3.814  0.00  0.00    -0.359 N 
ATOM     15  C   UNL d   1      28.653 -13.706   7.212  0.00  0.00     0.039 A 
ATOM     16  C   UNL d   1      28.288 -12.318   6.936  0.00  0.00     0.070 A 
ATOM     17  H   UNL d   1      28.539 -15.923   3.705  0.00  0.00     0.162 HD
BRANCH  16  18
ATOM     18  O   UNL d   1      28.171 -11.442   7.990  0.00  0.00    -0.356 OA
ATOM     19  C   UNL d   1      28.773 -11.809   9.234  0.00  0.00     0.210 C 
ENDBRANCH  16  18
ENDBRANCH   6   7
ENDBRANCH   5   6
ENDBRANCH   1   5
BRANCH   3  20
ATOM     20  C   UNL d   1      26.158 -13.110  -2.543  0.00  0.00     0.228 C 
BRANCH  20  21
ATOM     21  C   UNL d   1      25.504 -14.513  -2.362  0.00  0.00     0.240 C 
ATOM     22  O   UNL d   1      24.900 -15.054  -3.292  0.00  0.00    -0.271 OA
ATOM     23  N   UNL d   1      25.555 -15.122  -1.113  0.00  0.00    -0.325 N 
ATOM     24  H   UNL d   1      25.628 -14.508  -0.304  0.00  0.00     0.169 HD
BRANCH  23  25
ATOM     25  C   UNL d   1      24.808 -16.338  -0.952  0.00  0.00     0.049 C 
ATOM     26  C   UNL d   1      23.438 -16.338  -1.275  0.00  0.00     0.030 C 
ATOM     27  C   UNL d   1      22.596 -17.369  -0.863  0.00  0.00     0.002 C 
ATOM     28  C   UNL d   1      23.134 -18.488  -0.247  0.00  0.00     0.001 C 
ATOM     29  C   UNL d   1      24.515 -18.574  -0.063  0.00  0.00     0.018 C 
ATOM     30  C   UNL d   1      25.364 -17.482  -0.362  0.00  0.00     0.074 C 
BRANCH  30  31
ATOM     31  C   UNL d   1      26.791 -17.551   0.101  0.00  0.00     0.419 C 
ATOM     32  F   UNL d   1      26.992 -18.527   1.030  0.00  0.00    -0.166 F 
ATOM     33  F   UNL d   1      27.664 -17.799  -0.909  0.00  0.00    -0.166 F 
ATOM     34  F   UNL d   1      27.229 -16.398   0.692  0.00  0.00    -0.166 F 
ENDBRANCH  30  31
ENDBRANCH  23  25
ENDBRANCH  20  21
ENDBRANCH   3  20
TORSDOF 8
ENDMDL
MODEL 2
REMARK VINA RESULT:    -7.070      5.336      8.694
REMARK INTER + INTRA:         -11.504
REMARK INTER:                  -9.456
REMARK INTRA:                  -2.048
REMARK CONF_INDEPENDENT:        2.386
REMARK UNBOUND:                -2.048
REMARK  8 active torsions:
REMARK  status: ('A' for Active; 'I' for Inactive)
REMARK    1  A    between atoms: O_2  and  C_3 
REMARK    2  A    between atoms: C_10  and  S_11 
REMARK    3  A    between atoms: S_11  and  C_12 
REMARK    4  A    between atoms: C_12  and  C_13 
REMARK       I    between atoms: C_13  and  N_15 
REMARK    5  A    between atoms: N_15  and  C_17 
REMARK    6  A    between atoms: C_17  and  C_18 
REMARK       I    between atoms: C_18  and  N_20 
REMARK    7  A    between atoms: N_20  and  C_21 
REMARK    8  A    between atoms: C_26  and  C_27 
ROOT
ATOM      1  C   UNL d   1      26.963 -14.635  -5.394  0.00  0.00     0.229 C 
ATOM      2  O   UNL d   1      26.744 -15.813  -5.116  0.00  0.00    -0.273 OA
ATOM      3  N   UNL d   1      26.147 -13.615  -4.921  0.00  0.00    -0.347 N 
ATOM      4  C   UNL d   1      26.378 -12.209  -5.239  0.00  0.00     0.153 C 
ENDROOT
BRANCH   1   5
ATOM      5  C   UNL d   1      28.147 -14.236  -6.311  0.00  0.00     0.180 C 
BRANCH   5   6
ATOM      6  S   UNL d   1      29.484 -13.405  -5.335  0.00  0.00    -0.114 SA
BRANCH   6   7
ATOM      7  C   UNL d   1      30.841 -14.610  -5.344  0.00  0.00     0.247 A 
ATOM      8  N   UNL d   1      31.008 -15.398  -6.593  0.00  0.00    -0.358 N 
ATOM      9  C   UNL d   1      30.839 -16.647  -6.351  0.00  0.00     0.059 A 
ATOM     10  H   UNL d   1      31.175 -15.036  -7.529  0.00  0.00     0.162 HD
ATOM     11  C   UNL d   1      30.621 -16.844  -4.891  0.00  0.00     0.057 A 
ATOM     12  C   UNL d   1      30.829 -17.769  -7.268  0.00  0.00     0.068 A 
ATOM     13  C   UNL d   1      30.406 -18.200  -4.381  0.00  0.00     0.034 A 
ATOM     14  N   UNL d   1      30.663 -15.701  -4.315  0.00  0.00    -0.359 N 
ATOM     15  C   UNL d   1      30.405 -19.187  -5.301  0.00  0.00     0.039 A 
ATOM     16  C   UNL d   1      30.588 -18.978  -6.736  0.00  0.00     0.070 A 
ATOM     17  H   UNL d   1      30.519 -15.546  -3.313  0.00  0.00     0.162 HD
BRANCH  16  18
ATOM     18  O   UNL d   1      30.680 -20.076  -7.559  0.00  0.00    -0.356 OA
ATOM     19  C   UNL d   1      31.031 -19.858  -8.928  0.00  0.00     0.210 C 
ENDBRANCH  16  18
ENDBRANCH   6   7
ENDBRANCH   5   6
ENDBRANCH   1   5
BRANCH   3  20
ATOM     20  C   UNL d   1      24.984 -13.955  -4.018  0.00  0.00     0.228 C 
BRANCH  20  21
ATOM     21  C   UNL d   1      25.333 -14.677  -2.682  0.00  0.00     0.240 C 
ATOM     22  O   UNL d   1      25.678 -14.034  -1.686  0.00  0.00    -0.271 OA
ATOM     23  N   UNL d   1      25.311 -16.067  -2.643  0.00  0.00    -0.325 N 
ATOM     24  H   UNL d   1      25.480 -16.553  -3.521  0.00  0.00     0.169 HD
BRANCH  23  25
ATOM     25  C   UNL d   1      25.788 -16.691  -1.440  0.00  0.00     0.049 C 
ATOM     26  C   UNL d   1      27.164 -16.639  -1.152  0.00  0.00     0.030 C 
ATOM     27  C   UNL d   1      27.734 -17.467  -0.186  0.00  0.00     0.002 C 
ATOM     28  C   UNL d   1      26.917 -18.257   0.607  0.00  0.00     0.001 C 
ATOM     29  C   UNL d   1      25.533 -18.199   0.440  0.00  0.00     0.018 C 
ATOM     30  C   UNL d   1      24.952 -17.461  -0.618  0.00  0.00     0.074 C 
BRANCH  30  31
ATOM     31  C   UNL d   1      23.488 -17.653  -0.893  0.00  0.00     0.419 C 
ATOM     32  F   UNL d   1      22.844 -16.476  -1.136  0.00  0.00    -0.166 F 
ATOM     33  F   UNL d   1      23.251 -18.447  -1.968  0.00  0.00    -0.166 F 
ATOM     34  F   UNL d   1      22.808 -18.225   0.147  0.00  0.00    -0.166 F 
ENDBRANCH  30  31
ENDBRANCH  23  25
ENDBRANCH  20  21
ENDBRANCH   3  20
TORSDOF 8
ENDMDL
MODEL 3
REMARK VINA RESULT:    -6.476      5.294      8.690
REMARK INTER + INTRA:         -11.369
REMARK INTER:                  -8.862
REMARK INTRA:                  -2.506
REMARK CONF_INDEPENDENT:        2.386
REMARK UNBOUND:                -2.506
REMARK  8 active torsions:
REMARK  status: ('A' for Active; 'I' for Inactive)
REMARK    1  A    between atoms: O_2  and  C_3 
REMARK    2  A    between atoms: C_10  and  S_11 
REMARK    3  A    between atoms: S_11  and  C_12 
REMARK    4  A    between atoms: C_12  and  C_13 
REMARK       I    between atoms: C_13  and  N_15 
REMARK    5  A    between atoms: N_15  and  C_17 
REMARK    6  A    between atoms: C_17  and  C_18 
REMARK       I    between atoms: C_18  and  N_20 
REMARK    7  A    between atoms: N_20  and  C_21 
REMARK    8  A    between atoms: C_26  and  C_27 
ROOT
ATOM      1  C   UNL d   1      27.370 -14.430  -5.604  0.00  0.00     0.229 C 
ATOM      2  O   UNL d   1      26.920 -15.575  -5.585  0.00  0.00    -0.273 OA
ATOM      3  N   UNL d   1      26.682 -13.372  -5.023  0.00  0.00    -0.347 N 
ATOM      4  C   UNL d   1      27.187 -12.002  -5.036  0.00  0.00     0.153 C 
ENDROOT
BRANCH   1   5
ATOM      5  C   UNL d   1      28.715 -14.110  -6.303  0.00  0.00     0.180 C 
BRANCH   5   6
ATOM      6  S   UNL d   1      29.995 -13.599  -5.066  0.00  0.00    -0.114 SA
BRANCH   6   7
ATOM      7  C   UNL d   1      31.240 -14.915  -5.160  0.00  0.00     0.247 A 
ATOM      8  N   UNL d   1      31.397 -15.575  -6.483  0.00  0.00    -0.358 N 
ATOM      9  C   UNL d   1      31.108 -16.822  -6.389  0.00  0.00     0.059 A 
ATOM     10  H   UNL d   1      31.639 -15.130  -7.365  0.00  0.00     0.162 HD
ATOM     11  C   UNL d   1      30.806 -17.156  -4.971  0.00  0.00     0.057 A 
ATOM     12  C   UNL d   1      31.043 -17.831  -7.427  0.00  0.00     0.068 A 
ATOM     13  C   UNL d   1      30.449 -18.534  -4.625  0.00  0.00     0.034 A 
ATOM     14  N   UNL d   1      30.920 -16.091  -4.268  0.00  0.00    -0.359 N 
ATOM     15  C   UNL d   1      30.405 -19.410  -5.649  0.00  0.00     0.039 A 
ATOM     16  C   UNL d   1      30.673 -19.064  -7.043  0.00  0.00     0.070 A 
ATOM     17  H   UNL d   1      30.742 -16.033  -3.261  0.00  0.00     0.162 HD
BRANCH  16  18
ATOM     18  O   UNL d   1      30.707 -20.070  -7.982  0.00  0.00    -0.356 OA
ATOM     19  C   UNL d   1      31.155 -19.740  -9.299  0.00  0.00     0.210 C 
ENDBRANCH  16  18
ENDBRANCH   6   7
ENDBRANCH   5   6
ENDBRANCH   1   5
BRANCH   3  20
ATOM     20  C   UNL d   1      25.369 -13.636  -4.324  0.00  0.00     0.228 C 
BRANCH  20  21
ATOM     21  C   UNL d   1      25.430 -14.534  -3.051  0.00  0.00     0.240 C 
ATOM     22  O   UNL d   1      25.530 -14.034  -1.927  0.00  0.00    -0.271 OA
ATOM     23  N   UNL d   1      25.436 -15.916  -3.204  0.00  0.00    -0.325 N 
ATOM     24  H   UNL d   1      25.808 -16.280  -4.079  0.00  0.00     0.169 HD
BRANCH  23  25
ATOM     25  C   UNL d   1      25.650 -16.700  -2.020  0.00  0.00     0.049 C 
ATOM     26  C   UNL d   1      24.539 -17.295  -1.394  0.00  0.00     0.030 C 
ATOM     27  C   UNL d   1      24.621 -17.802  -0.098  0.00  0.00     0.002 C 
ATOM     28  C   UNL d   1      25.852 -17.853   0.539  0.00  0.00     0.001 C 
ATOM     29  C   UNL d   1      26.992 -17.412  -0.132  0.00  0.00     0.018 C 
ATOM     30  C   UNL d   1      26.902 -16.781  -1.395  0.00  0.00     0.074 C 
BRANCH  30  31
ATOM     31  C   UNL d   1      28.130 -16.104  -1.935  0.00  0.00     0.419 C 
ATOM     32  F   UNL d   1      29.279 -16.599  -1.395  0.00  0.00    -0.166 F 
ATOM     33  F   UNL d   1      28.255 -16.230  -3.281  0.00  0.00    -0.166 F 
ATOM     34  F   UNL d   1      28.166 -14.759  -1.685  0.00  0.00    -0.166 F 
ENDBRANCH  30  31
ENDBRANCH  23  25
ENDBRANCH  20  21
ENDBRANCH   3  20
TORSDOF 8
ENDMDL
MODEL 4
REMARK VINA RESULT:    -6.435      2.590      7.545
REMARK INTER + INTRA:         -11.384
REMARK INTER:                  -8.821
REMARK INTRA:                  -2.562
REMARK CONF_INDEPENDENT:        2.386
REMARK UNBOUND:                -2.562
REMARK  8 active torsions:
REMARK  status: ('A' for Active; 'I' for Inactive)
REMARK    1  A    between atoms: O_2  and  C_3 
REMARK    2  A    between atoms: C_10  and  S_11 
REMARK    3  A    between atoms: S_11  and  C_12 
REMARK    4  A    between atoms: C_12  and  C_13 
REMARK       I    between atoms: C_13  and  N_15 
REMARK    5  A    between atoms: N_15  and  C_17 
REMARK    6  A    between atoms: C_17  and  C_18 
REMARK       I    between atoms: C_18  and  N_20 
REMARK    7  A    between atoms: N_20  and  C_21 
REMARK    8  A    between atoms: C_26  and  C_27 
ROOT
ATOM      1  C   UNL d   1      27.154 -14.269  -1.180  0.00  0.00     0.229 C 
ATOM      2  O   UNL d   1      26.278 -14.048  -0.345  0.00  0.00    -0.273 OA
ATOM      3  N   UNL d   1      28.236 -13.412  -1.340  0.00  0.00    -0.347 N 
ATOM      4  C   UNL d   1      29.287 -13.644  -2.327  0.00  0.00     0.153 C 
ENDROOT
BRANCH   1   5
ATOM      5  C   UNL d   1      27.076 -15.503  -2.115  0.00  0.00     0.180 C 
BRANCH   5   6
ATOM      6  S   UNL d   1      27.623 -17.035  -1.230  0.00  0.00    -0.114 SA
BRANCH   6   7
ATOM      7  C   UNL d   1      26.302 -17.336  -0.024  0.00  0.00     0.247 A 
ATOM      8  N   UNL d   1      25.566 -18.619  -0.165  0.00  0.00    -0.358 N 
ATOM      9  C   UNL d   1      24.327 -18.391  -0.410  0.00  0.00     0.059 A 
ATOM     10  H   UNL d   1      25.958 -19.557  -0.136  0.00  0.00     0.162 HD
ATOM     11  C   UNL d   1      24.077 -16.924  -0.377  0.00  0.00     0.057 A 
ATOM     12  C   UNL d   1      23.259 -19.327  -0.698  0.00  0.00     0.068 A 
ATOM     13  C   UNL d   1      22.722 -16.427  -0.629  0.00  0.00     0.034 A 
ATOM     14  N   UNL d   1      25.180 -16.328  -0.118  0.00  0.00    -0.359 N 
ATOM     15  C   UNL d   1      21.787 -17.362  -0.896  0.00  0.00     0.039 A 
ATOM     16  C   UNL d   1      22.051 -18.798  -0.957  0.00  0.00     0.070 A 
ATOM     17  H   UNL d   1      25.297 -15.312  -0.062  0.00  0.00     0.162 HD
BRANCH  16  18
ATOM     18  O   UNL d   1      20.992 -19.660  -1.126  0.00  0.00    -0.356 OA
ATOM     19  C   UNL d   1      20.064 -19.798  -0.046  0.00  0.00     0.210 C 
ENDBRANCH  16  18
ENDBRANCH   6   7
ENDBRANCH   5   6
ENDBRANCH   1   5
BRANCH   3  20
ATOM     20  C   UNL d   1      28.359 -12.199  -0.447  0.00  0.00     0.228 C 
BRANCH  20  21
ATOM     21  C   UNL d   1      28.553 -12.476   1.074  0.00  0.00     0.240 C 
ATOM     22  O   UNL d   1      29.200 -11.700   1.782  0.00  0.00    -0.271 OA
ATOM     23  N   UNL d   1      28.038 -13.650   1.615  0.00  0.00    -0.325 N 
ATOM     24  H   UNL d   1      27.936 -14.441   0.982  0.00  0.00     0.169 HD
BRANCH  23  25
ATOM     25  C   UNL d   1      28.373 -13.938   2.981  0.00  0.00     0.049 C 
ATOM     26  C   UNL d   1      27.399 -13.724   3.975  0.00  0.00     0.030 C 
ATOM     27  C   UNL d   1      27.738 -13.686   5.326  0.00  0.00     0.002 C 
ATOM     28  C   UNL d   1      29.029 -14.004   5.717  0.00  0.00     0.001 C 
ATOM     29  C   UNL d   1      29.967 -14.375   4.753  0.00  0.00     0.018 C 
ATOM     30  C   UNL d   1      29.671 -14.294   3.372  0.00  0.00     0.074 C 
BRANCH  30  31
ATOM     31  C   UNL d   1      30.802 -14.457   2.396  0.00  0.00     0.419 C 
ATOM     32  F   UNL d   1      30.430 -15.138   1.276  0.00  0.00    -0.166 F 
ATOM     33  F   UNL d   1      31.310 -13.272   1.972  0.00  0.00    -0.166 F 
ATOM     34  F   UNL d   1      31.864 -15.154   2.904  0.00  0.00    -0.166 F 
ENDBRANCH  30  31
ENDBRANCH  23  25
ENDBRANCH  20  21
ENDBRANCH   3  20
TORSDOF 8
ENDMDL
MODEL 5
REMARK VINA RESULT:    -6.402      5.486      7.518
REMARK INTER + INTRA:         -11.537
REMARK INTER:                  -8.789
REMARK INTRA:                  -2.748
REMARK CONF_INDEPENDENT:        2.386
REMARK UNBOUND:                -2.748
REMARK  8 active torsions:
REMARK  status: ('A' for Active; 'I' for Inactive)
REMARK    1  A    between atoms: O_2  and  C_3 
REMARK    2  A    between atoms: C_10  and  S_11 
REMARK    3  A    between atoms: S_11  and  C_12 
REMARK    4  A    between atoms: C_12  and  C_13 
REMARK       I    between atoms: C_13  and  N_15 
REMARK    5  A    between atoms: N_15  and  C_17 
REMARK    6  A    between atoms: C_17  and  C_18 
REMARK       I    between atoms: C_18  and  N_20 
REMARK    7  A    between atoms: N_20  and  C_21 
REMARK    8  A    between atoms: C_26  and  C_27 
ROOT
ATOM      1  C   UNL d   1      26.730 -14.453  -4.989  0.00  0.00     0.229 C 
ATOM      2  O   UNL d   1      26.390 -15.575  -5.362  0.00  0.00    -0.273 OA
ATOM      3  N   UNL d   1      27.813 -13.796  -5.560  0.00  0.00    -0.347 N 
ATOM      4  C   UNL d   1      28.244 -12.468  -5.134  0.00  0.00     0.153 C 
ENDROOT
BRANCH   1   5
ATOM      5  C   UNL d   1      25.981 -13.731  -3.840  0.00  0.00     0.180 C 
BRANCH   5   6
ATOM      6  S   UNL d   1      26.762 -14.110  -2.205  0.00  0.00    -0.114 SA
BRANCH   6   7
ATOM      7  C   UNL d   1      26.733 -15.922  -2.120  0.00  0.00     0.247 A 
ATOM      8  N   UNL d   1      25.568 -16.589  -2.756  0.00  0.00    -0.358 N 
ATOM      9  C   UNL d   1      24.899 -17.240  -1.876  0.00  0.00     0.059 A 
ATOM     10  H   UNL d   1      25.277 -16.519  -3.729  0.00  0.00     0.162 HD
ATOM     11  C   UNL d   1      25.591 -17.151  -0.561  0.00  0.00     0.057 A 
ATOM     12  C   UNL d   1      23.655 -17.970  -2.020  0.00  0.00     0.068 A 
ATOM     13  C   UNL d   1      25.005 -17.825   0.599  0.00  0.00     0.034 A 
ATOM     14  N   UNL d   1      26.649 -16.443  -0.705  0.00  0.00    -0.359 N 
ATOM     15  C   UNL d   1      23.844 -18.477   0.383  0.00  0.00     0.039 A 
ATOM     16  C   UNL d   1      23.157 -18.531  -0.906  0.00  0.00     0.070 A 
ATOM     17  H   UNL d   1      27.298 -16.201   0.050  0.00  0.00     0.162 HD
BRANCH  16  18
ATOM     18  O   UNL d   1      22.037 -19.322  -1.028  0.00  0.00    -0.356 OA
ATOM     19  C   UNL d   1      21.143 -19.390   0.086  0.00  0.00     0.210 C 
ENDBRANCH  16  18
ENDBRANCH   6   7
ENDBRANCH   5   6
ENDBRANCH   1   5
BRANCH   3  20
ATOM     20  C   UNL d   1      28.570 -14.458  -6.689  0.00  0.00     0.228 C 
BRANCH  20  21
ATOM     21  C   UNL d   1      29.590 -15.564  -6.283  0.00  0.00     0.240 C 
ATOM     22  O   UNL d   1      30.660 -15.690  -6.884  0.00  0.00    -0.271 OA
ATOM     23  N   UNL d   1      29.249 -16.454  -5.269  0.00  0.00    -0.325 N 
ATOM     24  H   UNL d   1      28.256 -16.625  -5.124  0.00  0.00     0.169 HD
BRANCH  23  25
ATOM     25  C   UNL d   1      30.149 -17.548  -5.034  0.00  0.00     0.049 C 
ATOM     26  C   UNL d   1      30.405 -18.450  -6.084  0.00  0.00     0.030 C 
ATOM     27  C   UNL d   1      31.010 -19.683  -5.849  0.00  0.00     0.002 C 
ATOM     28  C   UNL d   1      31.501 -19.975  -4.586  0.00  0.00     0.001 C 
ATOM     29  C   UNL d   1      31.398 -19.023  -3.571  0.00  0.00     0.018 C 
ATOM     30  C   UNL d   1      30.674 -17.821  -3.764  0.00  0.00     0.074 C 
BRANCH  30  31
ATOM     31  C   UNL d   1      30.386 -16.970  -2.560  0.00  0.00     0.419 C 
ATOM     32  F   UNL d   1      29.649 -17.628  -1.621  0.00  0.00    -0.166 F 
ATOM     33  F   UNL d   1      31.511 -16.542  -1.933  0.00  0.00    -0.166 F 
ATOM     34  F   UNL d   1      29.671 -15.840  -2.849  0.00  0.00    -0.166 F 
ENDBRANCH  30  31
ENDBRANCH  23  25
ENDBRANCH  20  21
ENDBRANCH   3  20
TORSDOF 8
ENDMDL
MODEL 6
REMARK VINA RESULT:    -6.380      4.758      8.661
REMARK INTER + INTRA:         -11.263
REMARK INTER:                  -8.766
REMARK INTRA:                  -2.497
REMARK CONF_INDEPENDENT:        2.386
REMARK UNBOUND:                -2.497
REMARK  8 active torsions:
REMARK  status: ('A' for Active; 'I' for Inactive)
REMARK    1  A    between atoms: O_2  and  C_3 
REMARK    2  A    between atoms: C_10  and  S_11 
REMARK    3  A    between atoms: S_11  and  C_12 
REMARK    4  A    between atoms: C_12  and  C_13 
REMARK       I    between atoms: C_13  and  N_15 
REMARK    5  A    between atoms: N_15  and  C_17 
REMARK    6  A    between atoms: C_17  and  C_18 
REMARK       I    between atoms: C_18  and  N_20 
REMARK    7  A    between atoms: N_20  and  C_21 
REMARK    8  A    between atoms: C_26  and  C_27 
ROOT
ATOM      1  C   UNL d   1      27.753 -13.879  -3.408  0.00  0.00     0.229 C 
ATOM      2  O   UNL d   1      28.072 -15.036  -3.141  0.00  0.00    -0.273 OA
ATOM      3  N   UNL d   1      27.372 -12.984  -2.415  0.00  0.00    -0.347 N 
ATOM      4  C   UNL d   1      26.981 -11.607  -2.702  0.00  0.00     0.153 C 
ENDROOT
BRANCH   1   5
ATOM      5  C   UNL d   1      27.731 -13.372  -4.873  0.00  0.00     0.180 C 
BRANCH   5   6
ATOM      6  S   UNL d   1      27.825 -14.789  -6.061  0.00  0.00    -0.114 SA
BRANCH   6   7
ATOM      7  C   UNL d   1      29.532 -15.381  -5.896  0.00  0.00     0.247 A 
ATOM      8  N   UNL d   1      30.115 -16.040  -7.093  0.00  0.00    -0.358 N 
ATOM      9  C   UNL d   1      30.411 -17.259  -6.824  0.00  0.00     0.059 A 
ATOM     10  H   UNL d   1      30.227 -15.638  -8.021  0.00  0.00     0.162 HD
ATOM     11  C   UNL d   1      30.137 -17.531  -5.386  0.00  0.00     0.057 A 
ATOM     12  C   UNL d   1      30.925 -18.295  -7.697  0.00  0.00     0.068 A 
ATOM     13  C   UNL d   1      30.404 -18.868  -4.851  0.00  0.00     0.034 A 
ATOM     14  N   UNL d   1      29.680 -16.461  -4.850  0.00  0.00    -0.359 N 
ATOM     15  C   UNL d   1      30.874 -19.776  -5.730  0.00  0.00     0.039 A 
ATOM     16  C   UNL d   1      31.111 -19.506  -7.147  0.00  0.00     0.070 A 
ATOM     17  H   UNL d   1      29.384 -16.377  -3.873  0.00  0.00     0.162 HD
BRANCH  16  18
ATOM     18  O   UNL d   1      31.699 -20.483  -7.918  0.00  0.00    -0.356 OA
ATOM     19  C   UNL d   1      31.548 -20.395  -9.337  0.00  0.00     0.210 C 
ENDBRANCH  16  18
ENDBRANCH   6   7
ENDBRANCH   5   6
ENDBRANCH   1   5
BRANCH   3  20
ATOM     20  C   UNL d   1      27.384 -13.431  -0.971  0.00  0.00     0.228 C 
BRANCH  20  21
ATOM     21  C   UNL d   1      26.319 -14.495  -0.567  0.00  0.00     0.240 C 
ATOM     22  O   UNL d   1      25.918 -14.579   0.597  0.00  0.00    -0.271 OA
ATOM     23  N   UNL d   1      25.871 -15.396  -1.527  0.00  0.00    -0.325 N 
ATOM     24  H   UNL d   1      26.510 -15.607  -2.292  0.00  0.00     0.169 HD
BRANCH  23  25
ATOM     25  C   UNL d   1      25.010 -16.453  -1.076  0.00  0.00     0.049 C 
ATOM     26  C   UNL d   1      23.622 -16.324  -1.269  0.00  0.00     0.030 C 
ATOM     27  C   UNL d   1      22.717 -17.144  -0.598  0.00  0.00     0.002 C 
ATOM     28  C   UNL d   1      23.187 -18.201   0.166  0.00  0.00     0.001 C 
ATOM     29  C   UNL d   1      24.560 -18.439   0.239  0.00  0.00     0.018 C 
ATOM     30  C   UNL d   1      25.492 -17.541  -0.333  0.00  0.00     0.074 C 
BRANCH  30  31
ATOM     31  C   UNL d   1      26.944 -17.720   0.005  0.00  0.00     0.419 C 
ATOM     32  F   UNL d   1      27.240 -18.998   0.373  0.00  0.00    -0.166 F 
ATOM     33  F   UNL d   1      27.770 -17.420  -1.031  0.00  0.00    -0.166 F 
ATOM     34  F   UNL d   1      27.362 -16.941   1.048  0.00  0.00    -0.166 F 
ENDBRANCH  30  31
ENDBRANCH  23  25
ENDBRANCH  20  21
ENDBRANCH   3  20
TORSDOF 8
ENDMDL
MODEL 7
REMARK VINA RESULT:    -6.103      5.034      8.003
REMARK INTER + INTRA:         -11.321
REMARK INTER:                  -8.489
REMARK INTRA:                  -2.832
REMARK CONF_INDEPENDENT:        2.386
REMARK UNBOUND:                -2.832
REMARK  8 active torsions:
REMARK  status: ('A' for Active; 'I' for Inactive)
REMARK    1  A    between atoms: O_2  and  C_3 
REMARK    2  A    between atoms: C_10  and  S_11 
REMARK    3  A    between atoms: S_11  and  C_12 
REMARK    4  A    between atoms: C_12  and  C_13 
REMARK       I    between atoms: C_13  and  N_15 
REMARK    5  A    between atoms: N_15  and  C_17 
REMARK    6  A    between atoms: C_17  and  C_18 
REMARK       I    between atoms: C_18  and  N_20 
REMARK    7  A    between atoms: N_20  and  C_21 
REMARK    8  A    between atoms: C_26  and  C_27 
ROOT
ATOM      1  C   UNL d   1      29.718 -16.097  -2.666  0.00  0.00     0.229 C 
ATOM      2  O   UNL d   1      28.905 -16.938  -3.046  0.00  0.00    -0.273 OA
ATOM      3  N   UNL d   1      30.052 -15.968  -1.323  0.00  0.00    -0.347 N 
ATOM      4  C   UNL d   1      31.007 -14.974  -0.840  0.00  0.00     0.153 C 
ENDROOT
BRANCH   1   5
ATOM      5  C   UNL d   1      30.385 -15.119  -3.666  0.00  0.00     0.180 C 
BRANCH   5   6
ATOM      6  S   UNL d   1      30.543 -15.896  -5.340  0.00  0.00    -0.114 SA
BRANCH   6   7
ATOM      7  C   UNL d   1      28.947 -15.549  -6.130  0.00  0.00     0.247 A 
ATOM      8  N   UNL d   1      28.909 -14.377  -7.043  0.00  0.00    -0.358 N 
ATOM      9  C   UNL d   1      28.082 -13.501  -6.600  0.00  0.00     0.059 A 
ATOM     10  H   UNL d   1      29.479 -14.226  -7.872  0.00  0.00     0.162 HD
ATOM     11  C   UNL d   1      27.408 -14.027  -5.381  0.00  0.00     0.057 A 
ATOM     12  C   UNL d   1      27.780 -12.179  -7.112  0.00  0.00     0.068 A 
ATOM     13  C   UNL d   1      26.415 -13.192  -4.702  0.00  0.00     0.034 A 
ATOM     14  N   UNL d   1      27.863 -15.199  -5.138  0.00  0.00    -0.359 N 
ATOM     15  C   UNL d   1      26.196 -11.974  -5.238  0.00  0.00     0.039 A 
ATOM     16  C   UNL d   1      26.887 -11.456  -6.417  0.00  0.00     0.070 A 
ATOM     17  H   UNL d   1      27.588 -15.779  -4.340  0.00  0.00     0.162 HD
BRANCH  16  18
ATOM     18  O   UNL d   1      26.496 -10.243  -6.935  0.00  0.00    -0.356 OA
ATOM     19  C   UNL d   1      25.520  -9.490  -6.209  0.00  0.00     0.210 C 
ENDBRANCH  16  18
ENDBRANCH   6   7
ENDBRANCH   5   6
ENDBRANCH   1   5
BRANCH   3  20
ATOM     20  C   UNL d   1      29.432 -16.903  -0.311  0.00  0.00     0.228 C 
BRANCH  20  21
ATOM     21  C   UNL d   1      27.896 -16.764  -0.090  0.00  0.00     0.240 C 
ATOM     22  O   UNL d   1      27.443 -16.392   0.996  0.00  0.00    -0.271 OA
ATOM     23  N   UNL d   1      27.033 -17.127  -1.119  0.00  0.00    -0.325 N 
ATOM     24  H   UNL d   1      27.372 -17.825  -1.778  0.00  0.00     0.169 HD
BRANCH  23  25
ATOM     25  C   UNL d   1      25.628 -17.129  -0.820  0.00  0.00     0.049 C 
ATOM     26  C   UNL d   1      25.124 -18.116   0.048  0.00  0.00     0.030 C 
ATOM     27  C   UNL d   1      23.757 -18.369   0.142  0.00  0.00     0.002 C 
ATOM     28  C   UNL d   1      22.861 -17.544  -0.520  0.00  0.00     0.001 C 
ATOM     29  C   UNL d   1      23.340 -16.461  -1.258  0.00  0.00     0.018 C 
ATOM     30  C   UNL d   1      24.727 -16.270  -1.464  0.00  0.00     0.074 C 
BRANCH  30  31
ATOM     31  C   UNL d   1      25.156 -15.245  -2.475  0.00  0.00     0.419 C 
ATOM     32  F   UNL d   1      24.126 -14.450  -2.880  0.00  0.00    -0.166 F 
ATOM     33  F   UNL d   1      26.122 -14.413  -2.008  0.00  0.00    -0.166 F 
ATOM     34  F   UNL d   1      25.662 -15.790  -3.623  0.00  0.00    -0.166 F 
ENDBRANCH  30  31
ENDBRANCH  23  25
ENDBRANCH  20  21
ENDBRANCH   3  20
TORSDOF 8
ENDMDL
MODEL 8
REMARK VINA RESULT:    -5.616      4.984      6.066
REMARK INTER + INTRA:         -11.358
REMARK INTER:                  -8.003
REMARK INTRA:                  -3.355
REMARK CONF_INDEPENDENT:        2.386
REMARK UNBOUND:                -3.355
REMARK  8 active torsions:
REMARK  status: ('A' for Active; 'I' for Inactive)
REMARK    1  A    between atoms: O_2  and  C_3 
REMARK    2  A    between atoms: C_10  and  S_11 
REMARK    3  A    between atoms: S_11  and  C_12 
REMARK    4  A    between atoms: C_12  and  C_13 
REMARK       I    between atoms: C_13  and  N_15 
REMARK    5  A    between atoms: N_15  and  C_17 
REMARK    6  A    between atoms: C_17  and  C_18 
REMARK       I    between atoms: C_18  and  N_20 
REMARK    7  A    between atoms: N_20  and  C_21 
REMARK    8  A    between atoms: C_26  and  C_27 
ROOT
ATOM      1  C   UNL d   1      27.013 -14.428  -5.301  0.00  0.00     0.229 C 
ATOM      2  O   UNL d   1      26.881 -15.629  -5.068  0.00  0.00    -0.273 OA
ATOM      3  N   UNL d   1      26.093 -13.495  -4.840  0.00  0.00    -0.347 N 
ATOM      4  C   UNL d   1      26.218 -12.065  -5.106  0.00  0.00     0.153 C 
ENDROOT
BRANCH   1   5
ATOM      5  C   UNL d   1      28.200 -13.903  -6.148  0.00  0.00     0.180 C 
BRANCH   5   6
ATOM      6  S   UNL d   1      29.735 -13.771  -5.120  0.00  0.00    -0.114 SA
BRANCH   6   7
ATOM      7  C   UNL d   1      29.246 -14.473  -3.520  0.00  0.00     0.247 A 
ATOM      8  N   UNL d   1      30.166 -14.212  -2.382  0.00  0.00    -0.358 N 
ATOM      9  C   UNL d   1      30.632 -15.320  -1.930  0.00  0.00     0.059 A 
ATOM     10  H   UNL d   1      30.455 -13.306  -2.021  0.00  0.00     0.162 HD
ATOM     11  C   UNL d   1      30.008 -16.456  -2.663  0.00  0.00     0.057 A 
ATOM     12  C   UNL d   1      31.614 -15.548  -0.890  0.00  0.00     0.068 A 
ATOM     13  C   UNL d   1      30.391 -17.825  -2.311  0.00  0.00     0.034 A 
ATOM     14  N   UNL d   1      29.195 -15.983  -3.532  0.00  0.00    -0.359 N 
ATOM     15  C   UNL d   1      31.315 -17.951  -1.337  0.00  0.00     0.039 A 
ATOM     16  C   UNL d   1      31.944 -16.827  -0.646  0.00  0.00     0.070 A 
ATOM     17  H   UNL d   1      28.650 -16.547  -4.191  0.00  0.00     0.162 HD
BRANCH  16  18
ATOM     18  O   UNL d   1      32.790 -17.086   0.408  0.00  0.00    -0.356 OA
ATOM     19  C   UNL d   1      32.293 -16.871   1.731  0.00  0.00     0.210 C 
ENDBRANCH  16  18
ENDBRANCH   6   7
ENDBRANCH   5   6
ENDBRANCH   1   5
BRANCH   3  20
ATOM     20  C   UNL d   1      24.922 -13.959  -4.004  0.00  0.00     0.228 C 
BRANCH  20  21
ATOM     21  C   UNL d   1      25.269 -14.686  -2.670  0.00  0.00     0.240 C 
ATOM     22  O   UNL d   1      25.530 -14.045  -1.648  0.00  0.00    -0.271 OA
ATOM     23  N   UNL d   1      25.343 -16.075  -2.661  0.00  0.00    -0.325 N 
ATOM     24  H   UNL d   1      25.579 -16.528  -3.542  0.00  0.00     0.169 HD
BRANCH  23  25
ATOM     25  C   UNL d   1      25.815 -16.693  -1.454  0.00  0.00     0.049 C 
ATOM     26  C   UNL d   1      27.189 -16.631  -1.155  0.00  0.00     0.030 C 
ATOM     27  C   UNL d   1      27.758 -17.452  -0.184  0.00  0.00     0.002 C 
ATOM     28  C   UNL d   1      26.941 -18.246   0.606  0.00  0.00     0.001 C 
ATOM     29  C   UNL d   1      25.558 -18.199   0.428  0.00  0.00     0.018 C 
ATOM     30  C   UNL d   1      24.979 -17.467  -0.636  0.00  0.00     0.074 C 
BRANCH  30  31
ATOM     31  C   UNL d   1      23.518 -17.670  -0.921  0.00  0.00     0.419 C 
ATOM     32  F   UNL d   1      22.868 -18.289   0.104  0.00  0.00    -0.166 F 
ATOM     33  F   UNL d   1      22.856 -16.506  -1.146  0.00  0.00    -0.166 F 
ATOM     34  F   UNL d   1      23.280 -18.449  -2.020  0.00  0.00    -0.166 F 
ENDBRANCH  30  31
ENDBRANCH  23  25
ENDBRANCH  20  21
ENDBRANCH   3  20
TORSDOF 8
ENDMDL
MODEL 9
REMARK VINA RESULT:    -5.605      4.404      5.969
REMARK INTER + INTRA:         -11.558
REMARK INTER:                  -7.991
REMARK INTRA:                  -3.567
REMARK CONF_INDEPENDENT:        2.386
REMARK UNBOUND:                -3.567
REMARK  8 active torsions:
REMARK  status: ('A' for Active; 'I' for Inactive)
REMARK    1  A    between atoms: O_2  and  C_3 
REMARK    2  A    between atoms: C_10  and  S_11 
REMARK    3  A    between atoms: S_11  and  C_12 
REMARK    4  A    between atoms: C_12  and  C_13 
REMARK       I    between atoms: C_13  and  N_15 
REMARK    5  A    between atoms: N_15  and  C_17 
REMARK    6  A    between atoms: C_17  and  C_18 
REMARK       I    between atoms: C_18  and  N_20 
REMARK    7  A    between atoms: N_20  and  C_21 
REMARK    8  A    between atoms: C_26  and  C_27 
ROOT
ATOM      1  C   UNL d   1      26.932 -14.562  -5.371  0.00  0.00     0.229 C 
ATOM      2  O   UNL d   1      26.666 -15.750  -5.193  0.00  0.00    -0.273 OA
ATOM      3  N   UNL d   1      26.137 -13.554  -4.839  0.00  0.00    -0.347 N 
ATOM      4  C   UNL d   1      26.421 -12.136  -5.039  0.00  0.00     0.153 C 
ENDROOT
BRANCH   1   5
ATOM      5  C   UNL d   1      28.153 -14.133  -6.224  0.00  0.00     0.180 C 
BRANCH   5   6
ATOM      6  S   UNL d   1      29.375 -15.517  -6.365  0.00  0.00    -0.114 SA
BRANCH   6   7
ATOM      7  C   UNL d   1      29.924 -15.786  -4.657  0.00  0.00     0.247 A 
ATOM      8  N   UNL d   1      28.885 -15.641  -3.605  0.00  0.00    -0.358 N 
ATOM      9  C   UNL d   1      29.196 -14.684  -2.808  0.00  0.00     0.059 A 
ATOM     10  H   UNL d   1      28.015 -16.163  -3.525  0.00  0.00     0.162 HD
ATOM     11  C   UNL d   1      30.526 -14.134  -3.190  0.00  0.00     0.057 A 
ATOM     12  C   UNL d   1      28.450 -14.136  -1.694  0.00  0.00     0.068 A 
ATOM     13  C   UNL d   1      31.087 -13.027  -2.412  0.00  0.00     0.034 A 
ATOM     14  N   UNL d   1      30.958 -14.781  -4.207  0.00  0.00    -0.359 N 
ATOM     15  C   UNL d   1      30.327 -12.570  -1.396  0.00  0.00     0.039 A 
ATOM     16  C   UNL d   1      29.008 -13.098  -1.050  0.00  0.00     0.070 A 
ATOM     17  H   UNL d   1      31.841 -14.589  -4.690  0.00  0.00     0.162 HD
BRANCH  16  18
ATOM     18  O   UNL d   1      28.380 -12.624   0.078  0.00  0.00    -0.356 OA
ATOM     19  C   UNL d   1      27.477 -13.500   0.758  0.00  0.00     0.210 C 
ENDBRANCH  16  18
ENDBRANCH   6   7
ENDBRANCH   5   6
ENDBRANCH   1   5
BRANCH   3  20
ATOM     20  C   UNL d   1      24.939 -13.923  -3.994  0.00  0.00     0.228 C 
BRANCH  20  21
ATOM     21  C   UNL d   1      25.236 -14.686  -2.668  0.00  0.00     0.240 C 
ATOM     22  O   UNL d   1      25.530 -14.074  -1.637  0.00  0.00    -0.271 OA
ATOM     23  N   UNL d   1      25.227 -16.077  -2.676  0.00  0.00    -0.325 N 
ATOM     24  H   UNL d   1      25.440 -16.532  -3.562  0.00  0.00     0.169 HD
BRANCH  23  25
ATOM     25  C   UNL d   1      25.657 -16.737  -1.475  0.00  0.00     0.049 C 
ATOM     26  C   UNL d   1      27.035 -16.819  -1.205  0.00  0.00     0.030 C 
ATOM     27  C   UNL d   1      27.534 -17.692  -0.240  0.00  0.00     0.002 C 
ATOM     28  C   UNL d   1      26.654 -18.392   0.570  0.00  0.00     0.001 C 
ATOM     29  C   UNL d   1      25.280 -18.200   0.420  0.00  0.00     0.018 C 
ATOM     30  C   UNL d   1      24.761 -17.415  -0.636  0.00  0.00     0.074 C 
BRANCH  30  31
ATOM     31  C   UNL d   1      23.281 -17.464  -0.891  0.00  0.00     0.419 C 
ATOM     32  F   UNL d   1      22.776 -16.254  -1.265  0.00  0.00    -0.166 F 
ATOM     33  F   UNL d   1      22.941 -18.340  -1.870  0.00  0.00    -0.166 F 
ATOM     34  F   UNL d   1      22.551 -17.833   0.206  0.00  0.00    -0.166 F 
ENDBRANCH  30  31
ENDBRANCH  23  25
ENDBRANCH  20  21
ENDBRANCH   3  20
TORSDOF 8
ENDMDL
