MODEL 1
REMARK VINA RESULT:    -7.225      0.000      0.000
REMARK INTER + INTRA:          -9.971
REMARK INTER:                  -9.015
REMARK INTRA:                  -0.956
REMARK CONF_INDEPENDENT:        1.790
REMARK UNBOUND:                -0.956
REMARK  6 active torsions:
REMARK  status: ('A' for Active; 'I' for Inactive)
REMARK    1  A    between atoms: C_5  and  O_6 
REMARK    2  A    between atoms: C_7  and  C_8 
REMARK    3  A    between atoms: C_13  and  C_14 
REMARK    4  A    between atoms: N_21  and  C_22 
REMARK    5  A    between atoms: C_22  and  C_23 
REMARK    6  A    between atoms: C_23  and  O_24 
ROOT
ATOM      1  C   UNL d   1      27.143 -15.581   0.416  0.00  0.00     0.074 A 
ATOM      2  N   UNL d   1      27.778 -16.722   0.861  0.00  0.00    -0.276 N 
ATOM      3  N   UNL d   1      27.074 -17.875   0.640  0.00  0.00    -0.168 NA
ATOM      4  C   UNL d   1      25.978 -17.427   0.028  0.00  0.00     0.155 A 
ATOM      5  C   UNL d   1      25.990 -16.046  -0.143  0.00  0.00     0.035 A 
ATOM      6  C   UNL d   1      24.762 -15.576  -0.792  0.00  0.00     0.162 C 
ATOM      7  N   UNL d   1      23.933 -16.800  -0.698  0.00  0.00    -0.331 N 
ATOM      8  C   UNL d   1      24.710 -17.956  -0.458  0.00  0.00     0.275 C 
ATOM      9  O   UNL d   1      24.393 -19.123  -0.649  0.00  0.00    -0.266 OA
ATOM     10  H   UNL d   1      28.663 -16.769   1.356  0.00  0.00     0.189 HD
ENDROOT
BRANCH   1  11
ATOM     11  C   UNL d   1      27.635 -14.227   0.570  0.00  0.00     0.026 A 
ATOM     12  C   UNL d   1      28.481 -13.859   1.620  0.00  0.00     0.078 A 
ATOM     13  C   UNL d   1      28.970 -12.557   1.709  0.00  0.00     0.038 A 
ATOM     14  C   UNL d   1      28.631 -11.620   0.730  0.00  0.00     0.009 A 
ATOM     15  C   UNL d   1      27.810 -11.977  -0.346  0.00  0.00    -0.061 A 
ATOM     16  C   UNL d   1      27.484 -11.002  -1.437  0.00  0.00     0.048 C 
ATOM     17  C   UNL d   1      27.306 -13.280  -0.409  0.00  0.00     0.023 A 
BRANCH  12  18
ATOM     18  O   UNL d   1      28.841 -14.794   2.553  0.00  0.00    -0.360 OA
ATOM     19  H   UNL d   1      29.274 -15.538   2.105  0.00  0.00     0.217 HD
ENDBRANCH  12  18
ENDBRANCH   1  11
BRANCH   6  20
ATOM     20  C   UNL d   1      25.108 -15.267  -2.231  0.00  0.00     0.008 A 
ATOM     21  C   UNL d   1      24.452 -14.262  -2.973  0.00  0.00     0.012 A 
ATOM     22  C   UNL d   1      24.883 -13.905  -4.248  0.00  0.00     0.001 A 
ATOM     23  C   UNL d   1      25.974 -14.554  -4.815  0.00  0.00     0.003 A 
ATOM     24  C   UNL d   1      26.616 -15.575  -4.115  0.00  0.00     0.043 A 
ATOM     25  C   UNL d   1      26.178 -15.925  -2.839  0.00  0.00     0.125 A 
ATOM     26  F   UNL d   1      26.839 -16.882  -2.171  0.00  0.00    -0.205 F 
ENDBRANCH   6  20
BRANCH   7  27
ATOM     27  C   UNL d   1      22.475 -16.774  -0.821  0.00  0.00     0.153 C 
BRANCH  27  28
ATOM     28  C   UNL d   1      21.804 -18.156  -0.892  0.00  0.00     0.184 C 
BRANCH  28  29
ATOM     29  O   UNL d   1      20.422 -18.075  -1.206  0.00  0.00    -0.399 OA
ATOM     30  H   UNL d   1      20.276 -17.254  -1.706  0.00  0.00     0.209 HD
ENDBRANCH  28  29
ENDBRANCH  27  28
ENDBRANCH   7  27
TORSDOF 6
ENDMDL
MODEL 2
REMARK VINA RESULT:    -6.311      2.819      5.382
REMARK INTER + INTRA:         -10.201
REMARK INTER:                  -8.101
REMARK INTRA:                  -2.100
REMARK CONF_INDEPENDENT:        1.790
REMARK UNBOUND:                -2.100
REMARK  6 active torsions:
REMARK  status: ('A' for Active; 'I' for Inactive)
REMARK    1  A    between atoms: C_5  and  O_6 
REMARK    2  A    between atoms: C_7  and  C_8 
REMARK    3  A    between atoms: C_13  and  C_14 
REMARK    4  A    between atoms: N_21  and  C_22 
REMARK    5  A    between atoms: C_22  and  C_23 
REMARK    6  A    between atoms: C_23  and  O_24 
ROOT
ATOM      1  C   UNL d   1      25.819 -14.589  -3.959  0.00  0.00     0.074 A 
ATOM      2  N   UNL d   1      24.558 -14.047  -4.104  0.00  0.00    -0.276 N 
ATOM      3  N   UNL d   1      23.663 -14.449  -3.150  0.00  0.00    -0.168 NA
ATOM      4  C   UNL d   1      24.404 -15.255  -2.388  0.00  0.00     0.155 A 
ATOM      5  C   UNL d   1      25.719 -15.351  -2.833  0.00  0.00     0.035 A 
ATOM      6  C   UNL d   1      26.502 -16.264  -1.995  0.00  0.00     0.162 C 
ATOM      7  N   UNL d   1      25.415 -16.898  -1.214  0.00  0.00    -0.331 N 
ATOM      8  C   UNL d   1      24.221 -16.142  -1.246  0.00  0.00     0.275 C 
ATOM      9  O   UNL d   1      23.275 -16.204  -0.471  0.00  0.00    -0.266 OA
ATOM     10  H   UNL d   1      24.244 -13.436  -4.852  0.00  0.00     0.189 HD
ENDROOT
BRANCH   1  11
ATOM     11  C   UNL d   1      26.937 -14.377  -4.855  0.00  0.00     0.026 A 
ATOM     12  C   UNL d   1      27.075 -13.206  -5.607  0.00  0.00     0.078 A 
ATOM     13  C   UNL d   1      28.189 -13.020  -6.424  0.00  0.00     0.038 A 
ATOM     14  C   UNL d   1      29.184 -13.999  -6.475  0.00  0.00     0.009 A 
ATOM     15  C   UNL d   1      29.079 -15.164  -5.707  0.00  0.00    -0.061 A 
ATOM     16  C   UNL d   1      30.165 -16.198  -5.703  0.00  0.00     0.048 C 
ATOM     17  C   UNL d   1      27.945 -15.350  -4.910  0.00  0.00     0.023 A 
BRANCH  12  18
ATOM     18  O   UNL d   1      26.115 -12.235  -5.520  0.00  0.00    -0.360 OA
ATOM     19  H   UNL d   1      25.787 -12.033  -6.410  0.00  0.00     0.217 HD
ENDBRANCH  12  18
ENDBRANCH   1  11
BRANCH   6  20
ATOM     20  C   UNL d   1      27.381 -15.412  -1.107  0.00  0.00     0.008 A 
ATOM     21  C   UNL d   1      26.872 -14.669  -0.022  0.00  0.00     0.012 A 
ATOM     22  C   UNL d   1      27.720 -14.005   0.862  0.00  0.00     0.001 A 
ATOM     23  C   UNL d   1      29.095 -14.061   0.673  0.00  0.00     0.003 A 
ATOM     24  C   UNL d   1      29.619 -14.761  -0.414  0.00  0.00     0.043 A 
ATOM     25  C   UNL d   1      28.764 -15.422  -1.293  0.00  0.00     0.125 A 
ATOM     26  F   UNL d   1      29.296 -16.122  -2.306  0.00  0.00    -0.205 F 
ENDBRANCH   6  20
BRANCH   7  27
ATOM     27  C   UNL d   1      25.587 -18.174  -0.518  0.00  0.00     0.153 C 
BRANCH  27  28
ATOM     28  C   UNL d   1      26.749 -18.214   0.488  0.00  0.00     0.184 C 
BRANCH  28  29
ATOM     29  O   UNL d   1      28.020 -18.200  -0.147  0.00  0.00    -0.399 OA
ATOM     30  H   UNL d   1      28.695 -18.379   0.531  0.00  0.00     0.209 HD
ENDBRANCH  28  29
ENDBRANCH  27  28
ENDBRANCH   7  27
TORSDOF 6
ENDMDL
MODEL 3
REMARK VINA RESULT:    -6.181      2.993      5.070
REMARK INTER + INTRA:         -10.657
REMARK INTER:                  -7.971
REMARK INTRA:                  -2.686
REMARK CONF_INDEPENDENT:        1.790
REMARK UNBOUND:                -2.686
REMARK  6 active torsions:
REMARK  status: ('A' for Active; 'I' for Inactive)
REMARK    1  A    between atoms: C_5  and  O_6 
REMARK    2  A    between atoms: C_7  and  C_8 
REMARK    3  A    between atoms: C_13  and  C_14 
REMARK    4  A    between atoms: N_21  and  C_22 
REMARK    5  A    between atoms: C_22  and  C_23 
REMARK    6  A    between atoms: C_23  and  O_24 
ROOT
ATOM      1  C   UNL d   1      27.022 -15.361  -3.802  0.00  0.00     0.074 A 
ATOM      2  N   UNL d   1      26.000 -14.734  -4.485  0.00  0.00    -0.276 N 
ATOM      3  N   UNL d   1      24.780 -14.825  -3.871  0.00  0.00    -0.168 NA
ATOM      4  C   UNL d   1      25.067 -15.520  -2.769  0.00  0.00     0.155 A 
ATOM      5  C   UNL d   1      26.416 -15.847  -2.681  0.00  0.00     0.035 A 
ATOM      6  C   UNL d   1      26.699 -16.634  -1.476  0.00  0.00     0.162 C 
ATOM      7  N   UNL d   1      25.319 -16.966  -1.053  0.00  0.00    -0.331 N 
ATOM      8  C   UNL d   1      24.357 -16.115  -1.644  0.00  0.00     0.275 C 
ATOM      9  O   UNL d   1      23.210 -15.909  -1.270  0.00  0.00    -0.266 OA
ATOM     10  H   UNL d   1      26.069 -14.271  -5.385  0.00  0.00     0.189 HD
ENDROOT
BRANCH   1  11
ATOM     11  C   UNL d   1      28.396 -15.466  -4.249  0.00  0.00     0.026 A 
ATOM     12  C   UNL d   1      28.756 -15.298  -5.589  0.00  0.00     0.078 A 
ATOM     13  C   UNL d   1      30.094 -15.361  -5.973  0.00  0.00     0.038 A 
ATOM     14  C   UNL d   1      31.084 -15.572  -5.010  0.00  0.00     0.009 A 
ATOM     15  C   UNL d   1      30.746 -15.712  -3.659  0.00  0.00    -0.061 A 
ATOM     16  C   UNL d   1      31.799 -15.880  -2.604  0.00  0.00     0.048 C 
ATOM     17  C   UNL d   1      29.398 -15.671  -3.290  0.00  0.00     0.023 A 
BRANCH  12  18
ATOM     18  O   UNL d   1      27.784 -15.051  -6.520  0.00  0.00    -0.360 OA
ATOM     19  H   UNL d   1      28.204 -14.825  -7.365  0.00  0.00     0.217 HD
ENDBRANCH  12  18
ENDBRANCH   1  11
BRANCH   6  20
ATOM     20  C   UNL d   1      27.360 -15.707  -0.482  0.00  0.00     0.008 A 
ATOM     21  C   UNL d   1      26.671 -14.650   0.149  0.00  0.00     0.012 A 
ATOM     22  C   UNL d   1      27.265 -13.901   1.161  0.00  0.00     0.001 A 
ATOM     23  C   UNL d   1      28.566 -14.184   1.558  0.00  0.00     0.003 A 
ATOM     24  C   UNL d   1      29.280 -15.201   0.923  0.00  0.00     0.043 A 
ATOM     25  C   UNL d   1      28.678 -15.946  -0.089  0.00  0.00     0.125 A 
ATOM     26  F   UNL d   1      29.372 -16.945  -0.653  0.00  0.00    -0.205 F 
ENDBRANCH   6  20
BRANCH   7  27
ATOM     27  C   UNL d   1      25.020 -18.073  -0.143  0.00  0.00     0.153 C 
BRANCH  27  28
ATOM     28  C   UNL d   1      23.555 -18.542  -0.149  0.00  0.00     0.184 C 
BRANCH  28  29
ATOM     29  O   UNL d   1      23.074 -18.807  -1.459  0.00  0.00    -0.399 OA
ATOM     30  H   UNL d   1      23.017 -17.961  -1.934  0.00  0.00     0.209 HD
ENDBRANCH  28  29
ENDBRANCH  27  28
ENDBRANCH   7  27
TORSDOF 6
ENDMDL
MODEL 4
REMARK VINA RESULT:    -6.129      2.690      5.036
REMARK INTER + INTRA:         -10.627
REMARK INTER:                  -7.918
REMARK INTRA:                  -2.708
REMARK CONF_INDEPENDENT:        1.790
REMARK UNBOUND:                -2.708
REMARK  6 active torsions:
REMARK  status: ('A' for Active; 'I' for Inactive)
REMARK    1  A    between atoms: C_5  and  O_6 
REMARK    2  A    between atoms: C_7  and  C_8 
REMARK    3  A    between atoms: C_13  and  C_14 
REMARK    4  A    between atoms: N_21  and  C_22 
REMARK    5  A    between atoms: C_22  and  C_23 
REMARK    6  A    between atoms: C_23  and  O_24 
ROOT
ATOM      1  C   UNL d   1      25.835 -14.684  -3.834  0.00  0.00     0.074 A 
ATOM      2  N   UNL d   1      24.665 -13.990  -4.061  0.00  0.00    -0.276 N 
ATOM      3  N   UNL d   1      23.654 -14.297  -3.190  0.00  0.00    -0.168 NA
ATOM      4  C   UNL d   1      24.229 -15.200  -2.395  0.00  0.00     0.155 A 
ATOM      5  C   UNL d   1      25.555 -15.448  -2.740  0.00  0.00     0.035 A 
ATOM      6  C   UNL d   1      26.154 -16.464  -1.869  0.00  0.00     0.162 C 
ATOM      7  N   UNL d   1      24.939 -16.974  -1.191  0.00  0.00    -0.331 N 
ATOM      8  C   UNL d   1      23.851 -16.078  -1.295  0.00  0.00     0.275 C 
ATOM      9  O   UNL d   1      22.845 -16.038  -0.598  0.00  0.00    -0.266 OA
ATOM     10  H   UNL d   1      24.487 -13.333  -4.814  0.00  0.00     0.189 HD
ENDROOT
BRANCH   1  11
ATOM     11  C   UNL d   1      27.039 -14.594  -4.635  0.00  0.00     0.026 A 
ATOM     12  C   UNL d   1      27.273 -13.526  -5.506  0.00  0.00     0.078 A 
ATOM     13  C   UNL d   1      28.464 -13.452  -6.226  0.00  0.00     0.038 A 
ATOM     14  C   UNL d   1      29.438 -14.439  -6.060  0.00  0.00     0.009 A 
ATOM     15  C   UNL d   1      29.235 -15.499  -5.171  0.00  0.00    -0.061 A 
ATOM     16  C   UNL d   1      30.294 -16.535  -4.935  0.00  0.00     0.048 C 
ATOM     17  C   UNL d   1      28.026 -15.576  -4.473  0.00  0.00     0.023 A 
BRANCH  12  18
ATOM     18  O   UNL d   1      26.330 -12.542  -5.633  0.00  0.00    -0.360 OA
ATOM     19  H   UNL d   1      26.623 -11.758  -5.142  0.00  0.00     0.217 HD
ENDBRANCH  12  18
ENDBRANCH   1  11
BRANCH   6  20
ATOM     20  C   UNL d   1      27.054 -15.741  -0.893  0.00  0.00     0.008 A 
ATOM     21  C   UNL d   1      26.578 -14.749  -0.010  0.00  0.00     0.012 A 
ATOM     22  C   UNL d   1      27.400 -14.201   0.971  0.00  0.00     0.001 A 
ATOM     23  C   UNL d   1      28.719 -14.623   1.084  0.00  0.00     0.003 A 
ATOM     24  C   UNL d   1      29.221 -15.577   0.199  0.00  0.00     0.043 A 
ATOM     25  C   UNL d   1      28.392 -16.121  -0.780  0.00  0.00     0.125 A 
ATOM     26  F   UNL d   1      28.889 -17.066  -1.591  0.00  0.00    -0.205 F 
ENDBRANCH   6  20
BRANCH   7  27
ATOM     27  C   UNL d   1      24.901 -18.274  -0.520  0.00  0.00     0.153 C 
BRANCH  27  28
ATOM     28  C   UNL d   1      23.505 -18.914  -0.422  0.00  0.00     0.184 C 
BRANCH  28  29
ATOM     29  O   UNL d   1      22.759 -18.777  -1.623  0.00  0.00    -0.399 OA
ATOM     30  H   UNL d   1      22.361 -17.890  -1.629  0.00  0.00     0.209 HD
ENDBRANCH  28  29
ENDBRANCH  27  28
ENDBRANCH   7  27
TORSDOF 6
ENDMDL
MODEL 5
REMARK VINA RESULT:    -6.008      3.379      6.886
REMARK INTER + INTRA:         -10.004
REMARK INTER:                  -7.798
REMARK INTRA:                  -2.206
REMARK CONF_INDEPENDENT:        1.790
REMARK UNBOUND:                -2.206
REMARK  6 active torsions:
REMARK  status: ('A' for Active; 'I' for Inactive)
REMARK    1  A    between atoms: C_5  and  O_6 
REMARK    2  A    between atoms: C_7  and  C_8 
REMARK    3  A    between atoms: C_13  and  C_14 
REMARK    4  A    between atoms: N_21  and  C_22 
REMARK    5  A    between atoms: C_22  and  C_23 
REMARK    6  A    between atoms: C_23  and  O_24 
ROOT
ATOM      1  C   UNL d   1      26.896 -14.182  -0.451  0.00  0.00     0.074 A 
ATOM      2  N   UNL d   1      27.242 -13.625  -1.664  0.00  0.00    -0.276 N 
ATOM      3  N   UNL d   1      27.549 -12.292  -1.601  0.00  0.00    -0.168 NA
ATOM      4  C   UNL d   1      27.398 -12.027  -0.302  0.00  0.00     0.155 A 
ATOM      5  C   UNL d   1      27.022 -13.149   0.430  0.00  0.00     0.035 A 
ATOM      6  C   UNL d   1      26.835 -12.825   1.848  0.00  0.00     0.162 C 
ATOM      7  N   UNL d   1      26.856 -11.345   1.781  0.00  0.00    -0.331 N 
ATOM      8  C   UNL d   1      27.438 -10.870   0.583  0.00  0.00     0.275 C 
ATOM      9  O   UNL d   1      27.895  -9.756   0.363  0.00  0.00    -0.266 OA
ATOM     10  H   UNL d   1      27.245 -14.091  -2.566  0.00  0.00     0.189 HD
ENDROOT
BRANCH   1  11
ATOM     11  C   UNL d   1      26.475 -15.552  -0.240  0.00  0.00     0.026 A 
ATOM     12  C   UNL d   1      27.333 -16.519   0.293  0.00  0.00     0.078 A 
ATOM     13  C   UNL d   1      26.878 -17.816   0.523  0.00  0.00     0.038 A 
ATOM     14  C   UNL d   1      25.550 -18.146   0.239  0.00  0.00     0.009 A 
ATOM     15  C   UNL d   1      24.669 -17.185  -0.267  0.00  0.00    -0.061 A 
ATOM     16  C   UNL d   1      23.226 -17.505  -0.521  0.00  0.00     0.048 C 
ATOM     17  C   UNL d   1      25.144 -15.894  -0.516  0.00  0.00     0.023 A 
BRANCH  12  18
ATOM     18  O   UNL d   1      28.621 -16.176   0.606  0.00  0.00    -0.360 OA
ATOM     19  H   UNL d   1      28.948 -16.771   1.299  0.00  0.00     0.217 HD
ENDBRANCH  12  18
ENDBRANCH   1  11
BRANCH   6  20
ATOM     20  C   UNL d   1      28.043 -13.350   2.589  0.00  0.00     0.008 A 
ATOM     21  C   UNL d   1      29.358 -13.209   2.098  0.00  0.00     0.012 A 
ATOM     22  C   UNL d   1      30.461 -13.577   2.865  0.00  0.00     0.001 A 
ATOM     23  C   UNL d   1      30.273 -14.105   4.137  0.00  0.00     0.003 A 
ATOM     24  C   UNL d   1      28.981 -14.285   4.629  0.00  0.00     0.043 A 
ATOM     25  C   UNL d   1      27.883 -13.915   3.855  0.00  0.00     0.125 A 
ATOM     26  F   UNL d   1      26.653 -14.061   4.370  0.00  0.00    -0.205 F 
ENDBRANCH   6  20
BRANCH   7  27
ATOM     27  C   UNL d   1      26.307 -10.501   2.844  0.00  0.00     0.153 C 
BRANCH  27  28
ATOM     28  C   UNL d   1      25.159  -9.574   2.409  0.00  0.00     0.184 C 
BRANCH  28  29
ATOM     29  O   UNL d   1      25.622  -8.417   1.728  0.00  0.00    -0.399 OA
ATOM     30  H   UNL d   1      26.576  -8.522   1.574  0.00  0.00     0.209 HD
ENDBRANCH  28  29
ENDBRANCH  27  28
ENDBRANCH   7  27
TORSDOF 6
ENDMDL
MODEL 6
REMARK VINA RESULT:    -5.827      2.779      5.035
REMARK INTER + INTRA:          -9.792
REMARK INTER:                  -7.617
REMARK INTRA:                  -2.175
REMARK CONF_INDEPENDENT:        1.790
REMARK UNBOUND:                -2.175
REMARK  6 active torsions:
REMARK  status: ('A' for Active; 'I' for Inactive)
REMARK    1  A    between atoms: C_5  and  O_6 
REMARK    2  A    between atoms: C_7  and  C_8 
REMARK    3  A    between atoms: C_13  and  C_14 
REMARK    4  A    between atoms: N_21  and  C_22 
REMARK    5  A    between atoms: C_22  and  C_23 
REMARK    6  A    between atoms: C_23  and  O_24 
ROOT
ATOM      1  C   UNL d   1      25.875 -13.850  -4.057  0.00  0.00     0.074 A 
ATOM      2  N   UNL d   1      24.574 -13.480  -4.325  0.00  0.00    -0.276 N 
ATOM      3  N   UNL d   1      23.645 -14.075  -3.513  0.00  0.00    -0.168 NA
ATOM      4  C   UNL d   1      24.405 -14.825  -2.714  0.00  0.00     0.155 A 
ATOM      5  C   UNL d   1      25.762 -14.701  -2.998  0.00  0.00     0.035 A 
ATOM      6  C   UNL d   1      26.572 -15.556  -2.125  0.00  0.00     0.162 C 
ATOM      7  N   UNL d   1      25.509 -16.394  -1.522  0.00  0.00    -0.331 N 
ATOM      8  C   UNL d   1      24.227 -15.812  -1.657  0.00  0.00     0.275 C 
ATOM      9  O   UNL d   1      23.219 -16.065  -1.011  0.00  0.00    -0.266 OA
ATOM     10  H   UNL d   1      24.259 -12.864  -5.068  0.00  0.00     0.189 HD
ENDROOT
BRANCH   1  11
ATOM     11  C   UNL d   1      27.045 -13.415  -4.794  0.00  0.00     0.026 A 
ATOM     12  C   UNL d   1      27.749 -14.274  -5.643  0.00  0.00     0.078 A 
ATOM     13  C   UNL d   1      28.842 -13.807  -6.370  0.00  0.00     0.038 A 
ATOM     14  C   UNL d   1      29.223 -12.466  -6.266  0.00  0.00     0.009 A 
ATOM     15  C   UNL d   1      28.513 -11.584  -5.445  0.00  0.00    -0.061 A 
ATOM     16  C   UNL d   1      28.870 -10.130  -5.367  0.00  0.00     0.048 C 
ATOM     17  C   UNL d   1      27.433 -12.072  -4.702  0.00  0.00     0.023 A 
BRANCH  12  18
ATOM     18  O   UNL d   1      27.344 -15.575  -5.770  0.00  0.00    -0.360 OA
ATOM     19  H   UNL d   1      26.410 -15.592  -6.034  0.00  0.00     0.217 HD
ENDBRANCH  12  18
ENDBRANCH   1  11
BRANCH   6  20
ATOM     20  C   UNL d   1      27.207 -14.659  -1.086  0.00  0.00     0.008 A 
ATOM     21  C   UNL d   1      26.664 -14.485   0.204  0.00  0.00     0.012 A 
ATOM     22  C   UNL d   1      27.343 -13.765   1.183  0.00  0.00     0.001 A 
ATOM     23  C   UNL d   1      28.575 -13.193   0.892  0.00  0.00     0.003 A 
ATOM     24  C   UNL d   1      29.115 -13.323  -0.388  0.00  0.00     0.043 A 
ATOM     25  C   UNL d   1      28.429 -14.045  -1.363  0.00  0.00     0.125 A 
ATOM     26  F   UNL d   1      28.991 -14.189  -2.572  0.00  0.00    -0.205 F 
ENDBRANCH   6  20
BRANCH   7  27
ATOM     27  C   UNL d   1      25.788 -17.682  -0.887  0.00  0.00     0.153 C 
BRANCH  27  28
ATOM     28  C   UNL d   1      24.808 -18.083   0.228  0.00  0.00     0.184 C 
BRANCH  28  29
ATOM     29  O   UNL d   1      23.641 -18.719  -0.274  0.00  0.00    -0.399 OA
ATOM     30  H   UNL d   1      22.924 -18.063  -0.285  0.00  0.00     0.209 HD
ENDBRANCH  28  29
ENDBRANCH  27  28
ENDBRANCH   7  27
TORSDOF 6
ENDMDL
MODEL 7
REMARK VINA RESULT:    -5.396      3.014      5.600
REMARK INTER + INTRA:          -9.787
REMARK INTER:                  -7.186
REMARK INTRA:                  -2.602
REMARK CONF_INDEPENDENT:        1.790
REMARK UNBOUND:                -2.602
REMARK  6 active torsions:
REMARK  status: ('A' for Active; 'I' for Inactive)
REMARK    1  A    between atoms: C_5  and  O_6 
REMARK    2  A    between atoms: C_7  and  C_8 
REMARK    3  A    between atoms: C_13  and  C_14 
REMARK    4  A    between atoms: N_21  and  C_22 
REMARK    5  A    between atoms: C_22  and  C_23 
REMARK    6  A    between atoms: C_23  and  O_24 
ROOT
ATOM      1  C   UNL d   1      27.658 -16.455  -0.861  0.00  0.00     0.074 A 
ATOM      2  N   UNL d   1      28.737 -16.390  -0.004  0.00  0.00    -0.276 N 
ATOM      3  N   UNL d   1      29.876 -15.892  -0.576  0.00  0.00    -0.168 NA
ATOM      4  C   UNL d   1      29.478 -15.632  -1.823  0.00  0.00     0.155 A 
ATOM      5  C   UNL d   1      28.137 -15.942  -2.029  0.00  0.00     0.035 A 
ATOM      6  C   UNL d   1      27.733 -15.674  -3.413  0.00  0.00     0.162 C 
ATOM      7  N   UNL d   1      29.061 -15.464  -4.036  0.00  0.00    -0.331 N 
ATOM      8  C   UNL d   1      30.063 -15.181  -3.079  0.00  0.00     0.275 C 
ATOM      9  O   UNL d   1      31.150 -14.652  -3.268  0.00  0.00    -0.266 OA
ATOM     10  H   UNL d   1      28.765 -16.706   0.960  0.00  0.00     0.189 HD
ENDROOT
BRANCH   1  11
ATOM     11  C   UNL d   1      26.351 -16.989  -0.533  0.00  0.00     0.026 A 
ATOM     12  C   UNL d   1      26.191 -18.118   0.275  0.00  0.00     0.078 A 
ATOM     13  C   UNL d   1      24.917 -18.575   0.605  0.00  0.00     0.038 A 
ATOM     14  C   UNL d   1      23.792 -17.886   0.143  0.00  0.00     0.009 A 
ATOM     15  C   UNL d   1      23.932 -16.736  -0.641  0.00  0.00    -0.061 A 
ATOM     16  C   UNL d   1      22.737 -15.950  -1.095  0.00  0.00     0.048 C 
ATOM     17  C   UNL d   1      25.216 -16.303  -0.985  0.00  0.00     0.023 A 
BRANCH  12  18
ATOM     18  O   UNL d   1      27.299 -18.763   0.756  0.00  0.00    -0.360 OA
ATOM     19  H   UNL d   1      28.079 -18.464   0.262  0.00  0.00     0.217 HD
ENDBRANCH  12  18
ENDBRANCH   1  11
BRANCH   6  20
ATOM     20  C   UNL d   1      26.931 -14.392  -3.404  0.00  0.00     0.008 A 
ATOM     21  C   UNL d   1      27.295 -13.272  -2.628  0.00  0.00     0.012 A 
ATOM     22  C   UNL d   1      26.619 -12.060  -2.745  0.00  0.00     0.001 A 
ATOM     23  C   UNL d   1      25.555 -11.945  -3.632  0.00  0.00     0.003 A 
ATOM     24  C   UNL d   1      25.155 -13.050  -4.384  0.00  0.00     0.043 A 
ATOM     25  C   UNL d   1      25.837 -14.259  -4.261  0.00  0.00     0.125 A 
ATOM     26  F   UNL d   1      25.458 -15.293  -5.026  0.00  0.00    -0.205 F 
ENDBRANCH   6  20
BRANCH   7  27
ATOM     27  C   UNL d   1      29.278 -15.566  -5.479  0.00  0.00     0.153 C 
BRANCH  27  28
ATOM     28  C   UNL d   1      29.756 -14.272  -6.158  0.00  0.00     0.184 C 
BRANCH  28  29
ATOM     29  O   UNL d   1      29.586 -13.129  -5.332  0.00  0.00    -0.399 OA
ATOM     30  H   UNL d   1      29.854 -13.369  -4.429  0.00  0.00     0.209 HD
ENDBRANCH  28  29
ENDBRANCH  27  28
ENDBRANCH   7  27
TORSDOF 6
ENDMDL
MODEL 8
REMARK VINA RESULT:    -5.368      5.486      7.604
REMARK INTER + INTRA:          -9.807
REMARK INTER:                  -7.157
REMARK INTRA:                  -2.650
REMARK CONF_INDEPENDENT:        1.790
REMARK UNBOUND:                -2.650
REMARK  6 active torsions:
REMARK  status: ('A' for Active; 'I' for Inactive)
REMARK    1  A    between atoms: C_5  and  O_6 
REMARK    2  A    between atoms: C_7  and  C_8 
REMARK    3  A    between atoms: C_13  and  C_14 
REMARK    4  A    between atoms: N_21  and  C_22 
REMARK    5  A    between atoms: C_22  and  C_23 
REMARK    6  A    between atoms: C_23  and  O_24 
ROOT
ATOM      1  C   UNL d   1      29.696 -15.077  -6.857  0.00  0.00     0.074 A 
ATOM      2  N   UNL d   1      29.602 -13.948  -7.644  0.00  0.00    -0.276 N 
ATOM      3  N   UNL d   1      28.604 -13.088  -7.270  0.00  0.00    -0.168 NA
ATOM      4  C   UNL d   1      28.079 -13.705  -6.211  0.00  0.00     0.155 A 
ATOM      5  C   UNL d   1      28.724 -14.903  -5.917  0.00  0.00     0.035 A 
ATOM      6  C   UNL d   1      28.110 -15.574  -4.768  0.00  0.00     0.162 C 
ATOM      7  N   UNL d   1      26.869 -14.776  -4.633  0.00  0.00    -0.331 N 
ATOM      8  C   UNL d   1      26.958 -13.531  -5.296  0.00  0.00     0.275 C 
ATOM      9  O   UNL d   1      26.270 -12.535  -5.113  0.00  0.00    -0.266 OA
ATOM     10  H   UNL d   1      30.158 -13.734  -8.466  0.00  0.00     0.189 HD
ENDROOT
BRANCH   1  11
ATOM     11  C   UNL d   1      30.623 -16.172  -7.061  0.00  0.00     0.026 A 
ATOM     12  C   UNL d   1      31.759 -16.044  -7.865  0.00  0.00     0.078 A 
ATOM     13  C   UNL d   1      32.651 -17.107  -8.000  0.00  0.00     0.038 A 
ATOM     14  C   UNL d   1      32.419 -18.299  -7.310  0.00  0.00     0.009 A 
ATOM     15  C   UNL d   1      31.304 -18.436  -6.476  0.00  0.00    -0.061 A 
ATOM     16  C   UNL d   1      31.072 -19.687  -5.681  0.00  0.00     0.048 C 
ATOM     17  C   UNL d   1      30.404 -17.371  -6.369  0.00  0.00     0.023 A 
BRANCH  12  18
ATOM     18  O   UNL d   1      31.999 -14.859  -8.506  0.00  0.00    -0.360 OA
ATOM     19  H   UNL d   1      31.578 -14.880  -9.380  0.00  0.00     0.217 HD
ENDBRANCH  12  18
ENDBRANCH   1  11
BRANCH   6  20
ATOM     20  C   UNL d   1      29.023 -15.357  -3.583  0.00  0.00     0.008 A 
ATOM     21  C   UNL d   1      29.124 -14.118  -2.917  0.00  0.00     0.012 A 
ATOM     22  C   UNL d   1      29.866 -13.984  -1.746  0.00  0.00     0.001 A 
ATOM     23  C   UNL d   1      30.534 -15.084  -1.221  0.00  0.00     0.003 A 
ATOM     24  C   UNL d   1      30.476 -16.311  -1.882  0.00  0.00     0.043 A 
ATOM     25  C   UNL d   1      29.732 -16.437  -3.053  0.00  0.00     0.125 A 
ATOM     26  F   UNL d   1      29.660 -17.638  -3.645  0.00  0.00    -0.205 F 
ENDBRANCH   6  20
BRANCH   7  27
ATOM     27  C   UNL d   1      25.695 -15.264  -3.908  0.00  0.00     0.153 C 
BRANCH  27  28
ATOM     28  C   UNL d   1      24.780 -14.166  -3.340  0.00  0.00     0.184 C 
BRANCH  28  29
ATOM     29  O   UNL d   1      23.790 -13.747  -4.269  0.00  0.00    -0.399 OA
ATOM     30  H   UNL d   1      24.242 -13.312  -5.012  0.00  0.00     0.209 HD
ENDBRANCH  28  29
ENDBRANCH  27  28
ENDBRANCH   7  27
TORSDOF 6
ENDMDL
MODEL 9
REMARK VINA RESULT:    -4.971      3.780      6.201
REMARK INTER + INTRA:          -9.697
REMARK INTER:                  -6.761
REMARK INTRA:                  -2.935
REMARK CONF_INDEPENDENT:        1.790
REMARK UNBOUND:                -2.935
REMARK  6 active torsions:
REMARK  status: ('A' for Active; 'I' for Inactive)
REMARK    1  A    between atoms: C_5  and  O_6 
REMARK    2  A    between atoms: C_7  and  C_8 
REMARK    3  A    between atoms: C_13  and  C_14 
REMARK    4  A    between atoms: N_21  and  C_22 
REMARK    5  A    between atoms: C_22  and  C_23 
REMARK    6  A    between atoms: C_23  and  O_24 
ROOT
ATOM      1  C   UNL d   1      25.487 -14.927  -2.595  0.00  0.00     0.074 A 
ATOM      2  N   UNL d   1      24.188 -14.741  -3.019  0.00  0.00    -0.276 N 
ATOM      3  N   UNL d   1      24.029 -13.700  -3.894  0.00  0.00    -0.168 NA
ATOM      4  C   UNL d   1      25.275 -13.241  -4.019  0.00  0.00     0.155 A 
ATOM      5  C   UNL d   1      26.189 -13.969  -3.264  0.00  0.00     0.035 A 
ATOM      6  C   UNL d   1      27.545 -13.427  -3.397  0.00  0.00     0.162 C 
ATOM      7  N   UNL d   1      27.246 -12.141  -4.069  0.00  0.00    -0.331 N 
ATOM      8  C   UNL d   1      25.965 -12.133  -4.667  0.00  0.00     0.275 C 
ATOM      9  O   UNL d   1      25.554 -11.387  -5.546  0.00  0.00    -0.266 OA
ATOM     10  H   UNL d   1      23.371 -15.262  -2.716  0.00  0.00     0.189 HD
ENDROOT
BRANCH   1  11
ATOM     11  C   UNL d   1      25.928 -15.917  -1.633  0.00  0.00     0.026 A 
ATOM     12  C   UNL d   1      25.025 -16.701  -0.908  0.00  0.00     0.078 A 
ATOM     13  C   UNL d   1      25.488 -17.675  -0.025  0.00  0.00     0.038 A 
ATOM     14  C   UNL d   1      26.862 -17.883   0.121  0.00  0.00     0.009 A 
ATOM     15  C   UNL d   1      27.780 -17.129  -0.619  0.00  0.00    -0.061 A 
ATOM     16  C   UNL d   1      29.256 -17.380  -0.520  0.00  0.00     0.048 C 
ATOM     17  C   UNL d   1      27.303 -16.139  -1.483  0.00  0.00     0.023 A 
BRANCH  12  18
ATOM     18  O   UNL d   1      23.681 -16.518  -1.087  0.00  0.00    -0.360 OA
ATOM     19  H   UNL d   1      23.234 -16.588  -0.228  0.00  0.00     0.217 HD
ENDBRANCH  12  18
ENDBRANCH   1  11
BRANCH   6  20
ATOM     20  C   UNL d   1      28.308 -14.353  -4.317  0.00  0.00     0.008 A 
ATOM     21  C   UNL d   1      28.039 -14.445  -5.698  0.00  0.00     0.012 A 
ATOM     22  C   UNL d   1      28.847 -15.200  -6.544  0.00  0.00     0.001 A 
ATOM     23  C   UNL d   1      29.936 -15.890  -6.026  0.00  0.00     0.003 A 
ATOM     24  C   UNL d   1      30.201 -15.842  -4.658  0.00  0.00     0.043 A 
ATOM     25  C   UNL d   1      29.387 -15.083  -3.818  0.00  0.00     0.125 A 
ATOM     26  F   UNL d   1      29.689 -15.021  -2.513  0.00  0.00    -0.205 F 
ENDBRANCH   6  20
BRANCH   7  27
ATOM     27  C   UNL d   1      28.186 -11.018  -4.073  0.00  0.00     0.153 C 
BRANCH  27  28
ATOM     28  C   UNL d   1      29.125 -10.962  -5.289  0.00  0.00     0.184 C 
BRANCH  28  29
ATOM     29  O   UNL d   1      28.513 -11.451  -6.474  0.00  0.00    -0.399 OA
ATOM     30  H   UNL d   1      27.550 -11.452  -6.334  0.00  0.00     0.209 HD
ENDBRANCH  28  29
ENDBRANCH  27  28
ENDBRANCH   7  27
TORSDOF 6
ENDMDL
