MODEL 1
REMARK VINA RESULT:    -8.826      0.000      0.000
REMARK INTER + INTRA:         -11.230
REMARK INTER:                  -9.721
REMARK INTRA:                  -1.509
REMARK CONF_INDEPENDENT:        0.895
REMARK UNBOUND:                -1.509
REMARK  3 active torsions:
REMARK  status: ('A' for Active; 'I' for Inactive)
REMARK       I    between atoms: C_2  and  N_3 
REMARK       I    between atoms: C_2  and  N_13 
REMARK    1  A    between atoms: N_3  and  C_4 
REMARK    2  A    between atoms: N_13  and  C_14 
REMARK    3  A    between atoms: C_17  and  N_18 
ROOT
ATOM      1  C   UNL d   1      26.665 -14.064  -1.597  0.00  0.00     0.070 A 
ATOM      2  C   UNL d   1      27.097 -12.776  -1.249  0.00  0.00     0.034 A 
ATOM      3  C   UNL d   1      26.851 -11.641  -2.047  0.00  0.00     0.034 A 
ATOM      4  C   UNL d   1      26.155 -11.669  -3.277  0.00  0.00     0.064 A 
ATOM      5  C   UNL d   1      25.746 -12.975  -3.667  0.00  0.00     0.146 A 
ATOM      6  N   UNL d   1      25.082 -13.368  -4.766  0.00  0.00    -0.101 NA
ATOM      7  O   UNL d   1      24.957 -14.740  -4.664  0.00  0.00    -0.106 OA
ATOM      8  N   UNL d   1      25.525 -15.229  -3.498  0.00  0.00    -0.101 NA
ATOM      9  C   UNL d   1      26.023 -14.161  -2.857  0.00  0.00     0.146 A 
ENDROOT
BRANCH   1  10
ATOM     10  N   UNL d   1      26.870 -15.154  -0.743  0.00  0.00    -0.306 N 
ATOM     11  C   UNL d   1      25.990 -16.157  -0.413  0.00  0.00     0.325 C 
ATOM     12  O   UNL d   1      26.353 -16.994   0.420  0.00  0.00    -0.247 OA
ATOM     13  N   UNL d   1      24.804 -16.218  -1.121  0.00  0.00    -0.309 N 
ATOM     14  H   UNL d   1      24.773 -15.722  -2.000  0.00  0.00     0.170 HD
ATOM     15  H   UNL d   1      27.813 -15.319  -0.405  0.00  0.00     0.171 HD
BRANCH  13  16
ATOM     16  C   UNL d   1      23.835 -17.234  -0.943  0.00  0.00     0.039 A 
ATOM     17  C   UNL d   1      24.237 -18.561  -0.709  0.00  0.00     0.032 A 
ATOM     18  C   UNL d   1      23.297 -19.579  -0.523  0.00  0.00     0.042 A 
ATOM     19  C   UNL d   1      21.965 -19.245  -0.606  0.00  0.00     0.105 A 
ATOM     20  C   UNL d   1      21.558 -17.952  -0.833  0.00  0.00     0.107 A 
ATOM     21  O   UNL d   1      20.925 -20.112  -0.488  0.00  0.00    -0.323 OA
ATOM     22  C   UNL d   1      22.467 -16.914  -0.973  0.00  0.00     0.069 A 
ATOM     23  O   UNL d   1      20.201 -17.853  -0.910  0.00  0.00    -0.323 OA
ATOM     24  C   UNL d   1      19.815 -19.241  -0.779  0.00  0.00     0.352 C 
ENDBRANCH  13  16
ENDBRANCH   1  10
BRANCH   4  25
ATOM     25  N   UNL d   1      25.942 -10.521  -3.993  0.00  0.00    -0.375 N 
ATOM     26  C   UNL d   1      25.844 -10.518  -5.450  0.00  0.00     0.149 C 
ATOM     27  C   UNL d   1      26.887  -9.553  -6.029  0.00  0.00     0.187 C 
ATOM     28  O   UNL d   1      26.776  -8.242  -5.445  0.00  0.00    -0.388 OA
ATOM     29  C   UNL d   1      26.952  -8.310  -4.016  0.00  0.00     0.187 C 
ATOM     30  C   UNL d   1      25.889  -9.208  -3.354  0.00  0.00     0.149 C 
ENDBRANCH   4  25
TORSDOF 3
ENDMDL
MODEL 2
REMARK VINA RESULT:    -8.284      3.273      3.803
REMARK INTER + INTRA:         -10.576
REMARK INTER:                  -9.179
REMARK INTRA:                  -1.397
REMARK CONF_INDEPENDENT:        0.895
REMARK UNBOUND:                -1.397
REMARK  3 active torsions:
REMARK  status: ('A' for Active; 'I' for Inactive)
REMARK       I    between atoms: C_2  and  N_3 
REMARK       I    between atoms: C_2  and  N_13 
REMARK    1  A    between atoms: N_3  and  C_4 
REMARK    2  A    between atoms: N_13  and  C_14 
REMARK    3  A    between atoms: C_17  and  N_18 
ROOT
ATOM      1  C   UNL d   1      27.586 -14.787  -2.540  0.00  0.00     0.070 A 
ATOM      2  C   UNL d   1      28.958 -14.561  -2.721  0.00  0.00     0.034 A 
ATOM      3  C   UNL d   1      29.580 -14.580  -3.986  0.00  0.00     0.034 A 
ATOM      4  C   UNL d   1      28.905 -14.831  -5.201  0.00  0.00     0.064 A 
ATOM      5  C   UNL d   1      27.518 -15.106  -5.032  0.00  0.00     0.146 A 
ATOM      6  N   UNL d   1      26.587 -15.394  -5.956  0.00  0.00    -0.101 NA
ATOM      7  O   UNL d   1      25.410 -15.591  -5.261  0.00  0.00    -0.106 OA
ATOM      8  N   UNL d   1      25.577 -15.417  -3.895  0.00  0.00    -0.101 NA
ATOM      9  C   UNL d   1      26.872 -15.115  -3.720  0.00  0.00     0.146 A 
ENDROOT
BRANCH   1  10
ATOM     10  N   UNL d   1      26.995 -14.691  -1.275  0.00  0.00    -0.306 N 
ATOM     11  C   UNL d   1      25.918 -15.388  -0.780  0.00  0.00     0.325 C 
ATOM     12  O   UNL d   1      25.512 -15.099   0.350  0.00  0.00    -0.247 OA
ATOM     13  N   UNL d   1      25.438 -16.437  -1.543  0.00  0.00    -0.309 N 
ATOM     14  H   UNL d   1      26.057 -16.804  -2.252  0.00  0.00     0.170 HD
ATOM     15  H   UNL d   1      27.472 -14.136  -0.571  0.00  0.00     0.171 HD
BRANCH  13  16
ATOM     16  C   UNL d   1      24.384 -17.287  -1.132  0.00  0.00     0.039 A 
ATOM     17  C   UNL d   1      24.668 -18.542  -0.564  0.00  0.00     0.032 A 
ATOM     18  C   UNL d   1      23.643 -19.395  -0.145  0.00  0.00     0.042 A 
ATOM     19  C   UNL d   1      22.345 -18.979  -0.333  0.00  0.00     0.105 A 
ATOM     20  C   UNL d   1      22.053 -17.754  -0.886  0.00  0.00     0.107 A 
ATOM     21  O   UNL d   1      21.233 -19.694  -0.020  0.00  0.00    -0.323 OA
ATOM     22  C   UNL d   1      23.050 -16.868  -1.267  0.00  0.00     0.069 A 
ATOM     23  O   UNL d   1      20.710 -17.560  -1.011  0.00  0.00    -0.323 OA
ATOM     24  C   UNL d   1      20.203 -18.832  -0.542  0.00  0.00     0.352 C 
ENDBRANCH  13  16
ENDBRANCH   1  10
BRANCH   4  25
ATOM     25  N   UNL d   1      29.575 -14.821  -6.396  0.00  0.00    -0.375 N 
ATOM     26  C   UNL d   1      30.373 -15.956  -6.851  0.00  0.00     0.149 C 
ATOM     27  C   UNL d   1      31.807 -15.489  -7.132  0.00  0.00     0.187 C 
ATOM     28  O   UNL d   1      31.832 -14.371  -8.038  0.00  0.00    -0.388 OA
ATOM     29  C   UNL d   1      31.084 -13.265  -7.495  0.00  0.00     0.187 C 
ATOM     30  C   UNL d   1      29.608 -13.639  -7.254  0.00  0.00     0.149 C 
ENDBRANCH   4  25
TORSDOF 3
ENDMDL
MODEL 3
REMARK VINA RESULT:    -8.271     10.870     13.952
REMARK INTER + INTRA:         -10.089
REMARK INTER:                  -9.166
REMARK INTRA:                  -0.922
REMARK CONF_INDEPENDENT:        0.895
REMARK UNBOUND:                -0.922
REMARK  3 active torsions:
REMARK  status: ('A' for Active; 'I' for Inactive)
REMARK       I    between atoms: C_2  and  N_3 
REMARK       I    between atoms: C_2  and  N_13 
REMARK    1  A    between atoms: N_3  and  C_4 
REMARK    2  A    between atoms: N_13  and  C_14 
REMARK    3  A    between atoms: C_17  and  N_18 
ROOT
ATOM      1  C   UNL d   1      32.662 -20.845   3.509  0.00  0.00     0.070 A 
ATOM      2  C   UNL d   1      34.061 -20.913   3.451  0.00  0.00     0.034 A 
ATOM      3  C   UNL d   1      34.858 -21.297   4.548  0.00  0.00     0.034 A 
ATOM      4  C   UNL d   1      34.349 -21.647   5.818  0.00  0.00     0.064 A 
ATOM      5  C   UNL d   1      32.932 -21.542   5.909  0.00  0.00     0.146 A 
ATOM      6  N   UNL d   1      32.124 -21.783   6.953  0.00  0.00    -0.101 NA
ATOM      7  O   UNL d   1      30.843 -21.510   6.514  0.00  0.00    -0.106 OA
ATOM      8  N   UNL d   1      30.823 -21.108   5.188  0.00  0.00    -0.101 NA
ATOM      9  C   UNL d   1      32.101 -21.117   4.782  0.00  0.00     0.146 A 
ENDROOT
BRANCH   1  10
ATOM     10  N   UNL d   1      31.903 -20.525   2.377  0.00  0.00    -0.306 N 
ATOM     11  C   UNL d   1      31.490 -21.357   1.364  0.00  0.00     0.325 C 
ATOM     12  O   UNL d   1      30.880 -20.854   0.415  0.00  0.00    -0.247 OA
ATOM     13  N   UNL d   1      31.694 -22.714   1.535  0.00  0.00    -0.309 N 
ATOM     14  H   UNL d   1      31.863 -23.033   2.478  0.00  0.00     0.170 HD
ATOM     15  H   UNL d   1      31.488 -19.600   2.333  0.00  0.00     0.171 HD
BRANCH  13  16
ATOM     16  C   UNL d   1      31.259 -23.695   0.612  0.00  0.00     0.039 A 
ATOM     17  C   UNL d   1      31.929 -24.929   0.523  0.00  0.00     0.032 A 
ATOM     18  C   UNL d   1      31.512 -25.914  -0.377  0.00  0.00     0.042 A 
ATOM     19  C   UNL d   1      30.442 -25.627  -1.192  0.00  0.00     0.105 A 
ATOM     20  C   UNL d   1      29.777 -24.426  -1.114  0.00  0.00     0.107 A 
ATOM     21  O   UNL d   1      29.931 -26.452  -2.144  0.00  0.00    -0.323 OA
ATOM     22  C   UNL d   1      30.139 -23.449  -0.199  0.00  0.00     0.069 A 
ATOM     23  O   UNL d   1      28.774 -24.341  -2.033  0.00  0.00    -0.323 OA
ATOM     24  C   UNL d   1      28.939 -25.594  -2.739  0.00  0.00     0.352 C 
ENDBRANCH  13  16
ENDBRANCH   1  10
BRANCH   4  25
ATOM     25  N   UNL d   1      35.185 -22.023   6.835  0.00  0.00    -0.375 N 
ATOM     26  C   UNL d   1      35.568 -23.415   7.056  0.00  0.00     0.149 C 
ATOM     27  C   UNL d   1      35.199 -23.824   8.487  0.00  0.00     0.187 C 
ATOM     28  O   UNL d   1      35.755 -22.917   9.457  0.00  0.00    -0.388 OA
ATOM     29  C   UNL d   1      35.281 -21.576   9.223  0.00  0.00     0.187 C 
ATOM     30  C   UNL d   1      35.681 -21.067   7.824  0.00  0.00     0.149 C 
ENDBRANCH   4  25
TORSDOF 3
ENDMDL
MODEL 4
REMARK VINA RESULT:    -8.247      3.739      4.859
REMARK INTER + INTRA:         -10.436
REMARK INTER:                  -9.142
REMARK INTRA:                  -1.294
REMARK CONF_INDEPENDENT:        0.895
REMARK UNBOUND:                -1.294
REMARK  3 active torsions:
REMARK  status: ('A' for Active; 'I' for Inactive)
REMARK       I    between atoms: C_2  and  N_3 
REMARK       I    between atoms: C_2  and  N_13 
REMARK    1  A    between atoms: N_3  and  C_4 
REMARK    2  A    between atoms: N_13  and  C_14 
REMARK    3  A    between atoms: C_17  and  N_18 
ROOT
ATOM      1  C   UNL d   1      26.708 -12.904  -5.410  0.00  0.00     0.070 A 
ATOM      2  C   UNL d   1      27.208 -11.655  -5.803  0.00  0.00     0.034 A 
ATOM      3  C   UNL d   1      28.436 -11.495  -6.475  0.00  0.00     0.034 A 
ATOM      4  C   UNL d   1      29.298 -12.560  -6.821  0.00  0.00     0.064 A 
ATOM      5  C   UNL d   1      28.827 -13.833  -6.392  0.00  0.00     0.146 A 
ATOM      6  N   UNL d   1      29.387 -15.043  -6.539  0.00  0.00    -0.101 NA
ATOM      7  O   UNL d   1      28.530 -15.937  -5.926  0.00  0.00    -0.106 OA
ATOM      8  N   UNL d   1      27.413 -15.306  -5.398  0.00  0.00    -0.101 NA
ATOM      9  C   UNL d   1      27.566 -14.002  -5.669  0.00  0.00     0.146 A 
ENDROOT
BRANCH   1  10
ATOM     10  N   UNL d   1      25.450 -13.026  -4.806  0.00  0.00    -0.306 N 
ATOM     11  C   UNL d   1      25.033 -13.955  -3.883  0.00  0.00     0.325 C 
ATOM     12  O   UNL d   1      23.851 -13.925  -3.526  0.00  0.00    -0.247 OA
ATOM     13  N   UNL d   1      25.997 -14.785  -3.340  0.00  0.00    -0.309 N 
ATOM     14  H   UNL d   1      26.957 -14.487  -3.429  0.00  0.00     0.170 HD
ATOM     15  H   UNL d   1      24.780 -12.278  -4.956  0.00  0.00     0.171 HD
BRANCH  13  16
ATOM     16  C   UNL d   1      25.730 -15.740  -2.329  0.00  0.00     0.039 A 
ATOM     17  C   UNL d   1      26.789 -16.326  -1.613  0.00  0.00     0.032 A 
ATOM     18  C   UNL d   1      26.549 -17.266  -0.607  0.00  0.00     0.042 A 
ATOM     19  C   UNL d   1      25.243 -17.619  -0.358  0.00  0.00     0.105 A 
ATOM     20  C   UNL d   1      24.198 -17.053  -1.049  0.00  0.00     0.107 A 
ATOM     21  O   UNL d   1      24.834 -18.539   0.555  0.00  0.00    -0.323 OA
ATOM     22  C   UNL d   1      24.404 -16.084  -2.020  0.00  0.00     0.069 A 
ATOM     23  O   UNL d   1      22.997 -17.571  -0.667  0.00  0.00    -0.323 OA
ATOM     24  C   UNL d   1      23.419 -18.575   0.285  0.00  0.00     0.352 C 
ENDBRANCH  13  16
ENDBRANCH   1  10
BRANCH   4  25
ATOM     25  N   UNL d   1      30.473 -12.329  -7.487  0.00  0.00    -0.375 N 
ATOM     26  C   UNL d   1      30.538 -11.502  -8.688  0.00  0.00     0.149 C 
ATOM     27  C   UNL d   1      31.157 -12.315  -9.833  0.00  0.00     0.187 C 
ATOM     28  O   UNL d   1      32.427 -12.878  -9.455  0.00  0.00    -0.388 OA
ATOM     29  C   UNL d   1      32.276 -13.737  -8.307  0.00  0.00     0.187 C 
ATOM     30  C   UNL d   1      31.726 -12.968  -7.090  0.00  0.00     0.149 C 
ENDBRANCH   4  25
TORSDOF 3
ENDMDL
MODEL 5
REMARK VINA RESULT:    -8.133     10.510     13.334
REMARK INTER + INTRA:          -9.872
REMARK INTER:                  -9.028
REMARK INTRA:                  -0.844
REMARK CONF_INDEPENDENT:        0.895
REMARK UNBOUND:                -0.844
REMARK  3 active torsions:
REMARK  status: ('A' for Active; 'I' for Inactive)
REMARK       I    between atoms: C_2  and  N_3 
REMARK       I    between atoms: C_2  and  N_13 
REMARK    1  A    between atoms: N_3  and  C_4 
REMARK    2  A    between atoms: N_13  and  C_14 
REMARK    3  A    between atoms: C_17  and  N_18 
ROOT
ATOM      1  C   UNL d   1      31.169 -21.172   3.427  0.00  0.00     0.070 A 
ATOM      2  C   UNL d   1      32.426 -20.731   2.993  0.00  0.00     0.034 A 
ATOM      3  C   UNL d   1      32.799 -20.688   1.635  0.00  0.00     0.034 A 
ATOM      4  C   UNL d   1      31.963 -21.083   0.567  0.00  0.00     0.064 A 
ATOM      5  C   UNL d   1      30.696 -21.574   0.991  0.00  0.00     0.146 A 
ATOM      6  N   UNL d   1      29.672 -22.038   0.258  0.00  0.00    -0.101 NA
ATOM      7  O   UNL d   1      28.692 -22.403   1.161  0.00  0.00    -0.106 OA
ATOM      8  N   UNL d   1      29.077 -22.162   2.471  0.00  0.00    -0.101 NA
ATOM      9  C   UNL d   1      30.314 -21.648   2.401  0.00  0.00     0.146 A 
ENDROOT
BRANCH   1  10
ATOM     10  N   UNL d   1      30.813 -21.135   4.780  0.00  0.00    -0.306 N 
ATOM     11  C   UNL d   1      31.533 -21.574   5.865  0.00  0.00     0.325 C 
ATOM     12  O   UNL d   1      31.002 -21.508   6.978  0.00  0.00    -0.247 OA
ATOM     13  N   UNL d   1      32.844 -21.956   5.642  0.00  0.00    -0.309 N 
ATOM     14  H   UNL d   1      33.273 -21.633   4.787  0.00  0.00     0.170 HD
ATOM     15  H   UNL d   1      29.979 -20.614   5.035  0.00  0.00     0.171 HD
BRANCH  13  16
ATOM     16  C   UNL d   1      33.728 -22.362   6.670  0.00  0.00     0.039 A 
ATOM     17  C   UNL d   1      34.199 -23.687   6.716  0.00  0.00     0.032 A 
ATOM     18  C   UNL d   1      35.077 -24.108   7.718  0.00  0.00     0.042 A 
ATOM     19  C   UNL d   1      35.445 -23.190   8.676  0.00  0.00     0.105 A 
ATOM     20  C   UNL d   1      34.994 -21.892   8.642  0.00  0.00     0.107 A 
ATOM     21  O   UNL d   1      36.258 -23.438   9.736  0.00  0.00    -0.323 OA
ATOM     22  C   UNL d   1      34.159 -21.434   7.633  0.00  0.00     0.069 A 
ATOM     23  O   UNL d   1      35.454 -21.167   9.700  0.00  0.00    -0.323 OA
ATOM     24  C   UNL d   1      36.180 -22.181  10.435  0.00  0.00     0.352 C 
ENDBRANCH  13  16
ENDBRANCH   1  10
BRANCH   4  25
ATOM     25  N   UNL d   1      32.390 -21.001  -0.732  0.00  0.00    -0.375 N 
ATOM     26  C   UNL d   1      32.811 -19.739  -1.336  0.00  0.00     0.149 C 
ATOM     27  C   UNL d   1      31.976 -19.474  -2.595  0.00  0.00     0.187 C 
ATOM     28  O   UNL d   1      32.023 -20.588  -3.505  0.00  0.00    -0.388 OA
ATOM     29  C   UNL d   1      31.528 -21.782  -2.867  0.00  0.00     0.187 C 
ATOM     30  C   UNL d   1      32.368 -22.155  -1.629  0.00  0.00     0.149 C 
ENDBRANCH   4  25
TORSDOF 3
ENDMDL
MODEL 6
REMARK VINA RESULT:    -7.988      6.075      8.887
REMARK INTER + INTRA:          -9.739
REMARK INTER:                  -8.883
REMARK INTRA:                  -0.856
REMARK CONF_INDEPENDENT:        0.895
REMARK UNBOUND:                -0.856
REMARK  3 active torsions:
REMARK  status: ('A' for Active; 'I' for Inactive)
REMARK       I    between atoms: C_2  and  N_3 
REMARK       I    between atoms: C_2  and  N_13 
REMARK    1  A    between atoms: N_3  and  C_4 
REMARK    2  A    between atoms: N_13  and  C_14 
REMARK    3  A    between atoms: C_17  and  N_18 
ROOT
ATOM      1  C   UNL d   1      28.688 -15.563  -4.394  0.00  0.00     0.070 A 
ATOM      2  C   UNL d   1      29.123 -16.062  -3.159  0.00  0.00     0.034 A 
ATOM      3  C   UNL d   1      28.249 -16.322  -2.084  0.00  0.00     0.034 A 
ATOM      4  C   UNL d   1      26.853 -16.107  -2.123  0.00  0.00     0.064 A 
ATOM      5  C   UNL d   1      26.399 -15.560  -3.356  0.00  0.00     0.146 A 
ATOM      6  N   UNL d   1      25.155 -15.224  -3.733  0.00  0.00    -0.101 NA
ATOM      7  O   UNL d   1      25.268 -14.723  -5.016  0.00  0.00    -0.106 OA
ATOM      8  N   UNL d   1      26.578 -14.749  -5.470  0.00  0.00    -0.101 NA
ATOM      9  C   UNL d   1      27.305 -15.262  -4.466  0.00  0.00     0.146 A 
ENDROOT
BRANCH   1  10
ATOM     10  N   UNL d   1      29.578 -15.384  -5.460  0.00  0.00    -0.306 N 
ATOM     11  C   UNL d   1      30.309 -16.334  -6.131  0.00  0.00     0.325 C 
ATOM     12  O   UNL d   1      31.093 -15.951  -7.005  0.00  0.00    -0.247 OA
ATOM     13  N   UNL d   1      30.030 -17.660  -5.853  0.00  0.00    -0.309 N 
ATOM     14  H   UNL d   1      29.145 -17.855  -5.407  0.00  0.00     0.170 HD
ATOM     15  H   UNL d   1      29.619 -14.466  -5.892  0.00  0.00     0.171 HD
BRANCH  13  16
ATOM     16  C   UNL d   1      30.649 -18.748  -6.516  0.00  0.00     0.039 A 
ATOM     17  C   UNL d   1      31.110 -19.854  -5.781  0.00  0.00     0.032 A 
ATOM     18  C   UNL d   1      31.718 -20.941  -6.415  0.00  0.00     0.042 A 
ATOM     19  C   UNL d   1      31.876 -20.881  -7.780  0.00  0.00     0.105 A 
ATOM     20  C   UNL d   1      31.429 -19.806  -8.511  0.00  0.00     0.107 A 
ATOM     21  O   UNL d   1      32.476 -21.828  -8.548  0.00  0.00    -0.323 OA
ATOM     22  C   UNL d   1      30.780 -18.735  -7.915  0.00  0.00     0.069 A 
ATOM     23  O   UNL d   1      31.718 -19.938  -9.837  0.00  0.00    -0.323 OA
ATOM     24  C   UNL d   1      32.460 -21.180  -9.835  0.00  0.00     0.352 C 
ENDBRANCH  13  16
ENDBRANCH   1  10
BRANCH   4  25
ATOM     25  N   UNL d   1      26.064 -16.395  -1.041  0.00  0.00    -0.375 N 
ATOM     26  C   UNL d   1      26.620 -16.858   0.227  0.00  0.00     0.149 C 
ATOM     27  C   UNL d   1      25.979 -18.200   0.605  0.00  0.00     0.187 C 
ATOM     28  O   UNL d   1      24.542 -18.118   0.605  0.00  0.00    -0.388 OA
ATOM     29  C   UNL d   1      24.059 -17.725  -0.695  0.00  0.00     0.187 C 
ATOM     30  C   UNL d   1      24.605 -16.345  -1.112  0.00  0.00     0.149 C 
ENDBRANCH   4  25
TORSDOF 3
ENDMDL
MODEL 7
REMARK VINA RESULT:    -7.750      2.341      2.940
REMARK INTER + INTRA:          -9.896
REMARK INTER:                  -8.645
REMARK INTRA:                  -1.251
REMARK CONF_INDEPENDENT:        0.895
REMARK UNBOUND:                -1.251
REMARK  3 active torsions:
REMARK  status: ('A' for Active; 'I' for Inactive)
REMARK       I    between atoms: C_2  and  N_3 
REMARK       I    between atoms: C_2  and  N_13 
REMARK    1  A    between atoms: N_3  and  C_4 
REMARK    2  A    between atoms: N_13  and  C_14 
REMARK    3  A    between atoms: C_17  and  N_18 
ROOT
ATOM      1  C   UNL d   1      26.731 -16.370  -1.686  0.00  0.00     0.070 A 
ATOM      2  C   UNL d   1      27.977 -16.393  -2.327  0.00  0.00     0.034 A 
ATOM      3  C   UNL d   1      28.263 -15.633  -3.480  0.00  0.00     0.034 A 
ATOM      4  C   UNL d   1      27.337 -14.776  -4.117  0.00  0.00     0.064 A 
ATOM      5  C   UNL d   1      26.053 -14.773  -3.504  0.00  0.00     0.146 A 
ATOM      6  N   UNL d   1      24.946 -14.094  -3.846  0.00  0.00    -0.101 NA
ATOM      7  O   UNL d   1      23.976 -14.465  -2.935  0.00  0.00    -0.106 OA
ATOM      8  N   UNL d   1      24.458 -15.368  -2.001  0.00  0.00    -0.101 NA
ATOM      9  C   UNL d   1      25.742 -15.581  -2.324  0.00  0.00     0.146 A 
ENDROOT
BRANCH   1  10
ATOM     10  N   UNL d   1      26.510 -17.086  -0.503  0.00  0.00    -0.306 N 
ATOM     11  C   UNL d   1      25.337 -17.639  -0.046  0.00  0.00     0.325 C 
ATOM     12  O   UNL d   1      25.346 -18.177   1.065  0.00  0.00    -0.247 OA
ATOM     13  N   UNL d   1      24.261 -17.649  -0.915  0.00  0.00    -0.309 N 
ATOM     14  H   UNL d   1      24.467 -17.518  -1.895  0.00  0.00     0.170 HD
ATOM     15  H   UNL d   1      27.321 -17.351   0.047  0.00  0.00     0.171 HD
BRANCH  13  16
ATOM     16  C   UNL d   1      23.014 -18.246  -0.613  0.00  0.00     0.039 A 
ATOM     17  C   UNL d   1      22.190 -18.726  -1.646  0.00  0.00     0.032 A 
ATOM     18  C   UNL d   1      20.958 -19.325  -1.370  0.00  0.00     0.042 A 
ATOM     19  C   UNL d   1      20.564 -19.404  -0.054  0.00  0.00     0.105 A 
ATOM     20  C   UNL d   1      21.361 -18.941   0.966  0.00  0.00     0.107 A 
ATOM     21  O   UNL d   1      19.387 -19.920   0.389  0.00  0.00    -0.323 OA
ATOM     22  C   UNL d   1      22.608 -18.385   0.725  0.00  0.00     0.069 A 
ATOM     23  O   UNL d   1      20.764 -19.088   2.183  0.00  0.00    -0.323 OA
ATOM     24  C   UNL d   1      19.478 -19.627   1.796  0.00  0.00     0.352 C 
ENDBRANCH  13  16
ENDBRANCH   1  10
BRANCH   4  25
ATOM     25  N   UNL d   1      27.691 -14.058  -5.229  0.00  0.00    -0.375 N 
ATOM     26  C   UNL d   1      28.918 -14.328  -5.973  0.00  0.00     0.149 C 
ATOM     27  C   UNL d   1      29.759 -13.047  -6.048  0.00  0.00     0.187 C 
ATOM     28  O   UNL d   1      28.999 -11.945  -6.578  0.00  0.00    -0.388 OA
ATOM     29  C   UNL d   1      27.842 -11.690  -5.756  0.00  0.00     0.187 C 
ATOM     30  C   UNL d   1      26.908 -12.915  -5.693  0.00  0.00     0.149 C 
ENDBRANCH   4  25
TORSDOF 3
ENDMDL
MODEL 8
REMARK VINA RESULT:    -7.249      3.269      4.400
REMARK INTER + INTRA:          -9.581
REMARK INTER:                  -8.144
REMARK INTRA:                  -1.436
REMARK CONF_INDEPENDENT:        0.895
REMARK UNBOUND:                -1.436
REMARK  3 active torsions:
REMARK  status: ('A' for Active; 'I' for Inactive)
REMARK       I    between atoms: C_2  and  N_3 
REMARK       I    between atoms: C_2  and  N_13 
REMARK    1  A    between atoms: N_3  and  C_4 
REMARK    2  A    between atoms: N_13  and  C_14 
REMARK    3  A    between atoms: C_17  and  N_18 
ROOT
ATOM      1  C   UNL d   1      27.256 -13.130  -1.188  0.00  0.00     0.070 A 
ATOM      2  C   UNL d   1      27.492 -11.850  -1.708  0.00  0.00     0.034 A 
ATOM      3  C   UNL d   1      27.565 -10.695  -0.903  0.00  0.00     0.034 A 
ATOM      4  C   UNL d   1      27.404 -10.692   0.500  0.00  0.00     0.064 A 
ATOM      5  C   UNL d   1      27.121 -11.978   1.041  0.00  0.00     0.146 A 
ATOM      6  N   UNL d   1      26.902 -12.337   2.316  0.00  0.00    -0.101 NA
ATOM      7  O   UNL d   1      26.656 -13.697   2.291  0.00  0.00    -0.106 OA
ATOM      8  N   UNL d   1      26.730 -14.215   1.007  0.00  0.00    -0.101 NA
ATOM      9  C   UNL d   1      27.016 -13.176   0.208  0.00  0.00     0.146 A 
ENDROOT
BRANCH   1  10
ATOM     10  N   UNL d   1      27.259 -14.261  -2.014  0.00  0.00    -0.306 N 
ATOM     11  C   UNL d   1      26.521 -15.413  -1.887  0.00  0.00     0.325 C 
ATOM     12  O   UNL d   1      26.727 -16.325  -2.694  0.00  0.00    -0.247 OA
ATOM     13  N   UNL d   1      25.521 -15.423  -0.931  0.00  0.00    -0.309 N 
ATOM     14  H   UNL d   1      25.209 -14.525  -0.590  0.00  0.00     0.170 HD
ATOM     15  H   UNL d   1      27.770 -14.205  -2.889  0.00  0.00     0.171 HD
BRANCH  13  16
ATOM     16  C   UNL d   1      24.635 -16.508  -0.734  0.00  0.00     0.039 A 
ATOM     17  C   UNL d   1      25.132 -17.767  -0.352  0.00  0.00     0.032 A 
ATOM     18  C   UNL d   1      24.274 -18.851  -0.145  0.00  0.00     0.042 A 
ATOM     19  C   UNL d   1      22.929 -18.654  -0.355  0.00  0.00     0.105 A 
ATOM     20  C   UNL d   1      22.429 -17.428  -0.728  0.00  0.00     0.107 A 
ATOM     21  O   UNL d   1      21.963 -19.603  -0.237  0.00  0.00    -0.323 OA
ATOM     22  C   UNL d   1      23.251 -16.324  -0.893  0.00  0.00     0.069 A 
ATOM     23  O   UNL d   1      21.079 -17.466  -0.913  0.00  0.00    -0.323 OA
ATOM     24  C   UNL d   1      20.808 -18.869  -0.687  0.00  0.00     0.352 C 
ENDBRANCH  13  16
ENDBRANCH   1  10
BRANCH   4  25
ATOM     25  N   UNL d   1      27.501  -9.530   1.219  0.00  0.00    -0.375 N 
ATOM     26  C   UNL d   1      28.260  -9.444   2.464  0.00  0.00     0.149 C 
ATOM     27  C   UNL d   1      27.342  -8.942   3.586  0.00  0.00     0.187 C 
ATOM     28  O   UNL d   1      26.691  -7.709   3.226  0.00  0.00    -0.388 OA
ATOM     29  C   UNL d   1      25.905  -7.885   2.030  0.00  0.00     0.187 C 
ATOM     30  C   UNL d   1      26.777  -8.320   0.835  0.00  0.00     0.149 C 
ENDBRANCH   4  25
TORSDOF 3
ENDMDL
MODEL 9
REMARK VINA RESULT:    -7.123      5.052      8.483
REMARK INTER + INTRA:          -9.701
REMARK INTER:                  -8.018
REMARK INTRA:                  -1.683
REMARK CONF_INDEPENDENT:        0.895
REMARK UNBOUND:                -1.683
REMARK  3 active torsions:
REMARK  status: ('A' for Active; 'I' for Inactive)
REMARK       I    between atoms: C_2  and  N_3 
REMARK       I    between atoms: C_2  and  N_13 
REMARK    1  A    between atoms: N_3  and  C_4 
REMARK    2  A    between atoms: N_13  and  C_14 
REMARK    3  A    between atoms: C_17  and  N_18 
ROOT
ATOM      1  C   UNL d   1      28.523 -16.120  -1.701  0.00  0.00     0.070 A 
ATOM      2  C   UNL d   1      28.281 -16.627  -0.417  0.00  0.00     0.034 A 
ATOM      3  C   UNL d   1      26.997 -16.985   0.040  0.00  0.00     0.034 A 
ATOM      4  C   UNL d   1      25.818 -16.870  -0.731  0.00  0.00     0.064 A 
ATOM      5  C   UNL d   1      26.038 -16.317  -2.024  0.00  0.00     0.146 A 
ATOM      6  N   UNL d   1      25.156 -16.060  -3.003  0.00  0.00    -0.101 NA
ATOM      7  O   UNL d   1      25.887 -15.510  -4.038  0.00  0.00    -0.106 OA
ATOM      8  N   UNL d   1      27.237 -15.426  -3.735  0.00  0.00    -0.101 NA
ATOM      9  C   UNL d   1      27.365 -15.918  -2.493  0.00  0.00     0.146 A 
ENDROOT
BRANCH   1  10
ATOM     10  N   UNL d   1      29.823 -15.842  -2.140  0.00  0.00    -0.306 N 
ATOM     11  C   UNL d   1      30.470 -16.321  -3.253  0.00  0.00     0.325 C 
ATOM     12  O   UNL d   1      31.650 -15.999  -3.421  0.00  0.00    -0.247 OA
ATOM     13  N   UNL d   1      29.715 -17.041  -4.163  0.00  0.00    -0.309 N 
ATOM     14  H   UNL d   1      28.713 -16.934  -4.108  0.00  0.00     0.170 HD
ATOM     15  H   UNL d   1      30.334 -15.105  -1.664  0.00  0.00     0.171 HD
BRANCH  13  16
ATOM     16  C   UNL d   1      30.225 -17.535  -5.387  0.00  0.00     0.039 A 
ATOM     17  C   UNL d   1      30.583 -16.645  -6.415  0.00  0.00     0.032 A 
ATOM     18  C   UNL d   1      31.094 -17.111  -7.630  0.00  0.00     0.042 A 
ATOM     19  C   UNL d   1      31.209 -18.472  -7.798  0.00  0.00     0.105 A 
ATOM     20  C   UNL d   1      30.864 -19.353  -6.800  0.00  0.00     0.107 A 
ATOM     21  O   UNL d   1      31.650 -19.094  -8.922  0.00  0.00    -0.323 OA
ATOM     22  C   UNL d   1      30.399 -18.918  -5.569  0.00  0.00     0.069 A 
ATOM     23  O   UNL d   1      31.025 -20.649  -7.191  0.00  0.00    -0.323 OA
ATOM     24  C   UNL d   1      31.438 -20.474  -8.567  0.00  0.00     0.352 C 
ENDBRANCH  13  16
ENDBRANCH   1  10
BRANCH   4  25
ATOM     25  N   UNL d   1      24.604 -17.250  -0.224  0.00  0.00    -0.375 N 
ATOM     26  C   UNL d   1      24.327 -18.624   0.189  0.00  0.00     0.149 C 
ATOM     27  C   UNL d   1      23.102 -19.147  -0.572  0.00  0.00     0.187 C 
ATOM     28  O   UNL d   1      21.973 -18.266  -0.425  0.00  0.00    -0.388 OA
ATOM     29  C   UNL d   1      22.293 -16.949  -0.916  0.00  0.00     0.187 C 
ATOM     30  C   UNL d   1      23.474 -16.327  -0.145  0.00  0.00     0.149 C 
ENDBRANCH   4  25
TORSDOF 3
ENDMDL
