MODEL 1
REMARK VINA RESULT:    -7.698      0.000      0.000
REMARK INTER + INTRA:         -10.661
REMARK INTER:                  -9.190
REMARK INTRA:                  -1.472
REMARK CONF_INDEPENDENT:        1.492
REMARK UNBOUND:                -1.472
REMARK  5 active torsions:
REMARK  status: ('A' for Active; 'I' for Inactive)
REMARK    1  A    between atoms: C_5  and  N_6 
REMARK       I    between atoms: N_6  and  C_7 
REMARK       I    between atoms: C_7  and  N_9 
REMARK       I    between atoms: N_9  and  C_10 
REMARK    2  A    between atoms: C_12  and  C_10 
REMARK    3  A    between atoms: C_12  and  S_14 
REMARK    4  A    between atoms: S_14  and  C_15 
REMARK    5  A    between atoms: C_20  and  C_21 
REMARK       I    between atoms: C_21  and  N_22 
ROOT
ATOM      1  N   UNL d   1      29.363 -14.493   3.569  0.00  0.00    -0.308 N 
ATOM      2  C   UNL d   1      28.556 -14.447   2.435  0.00  0.00     0.327 C 
ATOM      3  O   UNL d   1      27.542 -13.759   2.344  0.00  0.00    -0.247 OA
ATOM      4  N   UNL d   1      28.942 -15.213   1.368  0.00  0.00    -0.278 N 
ATOM      5  C   UNL d   1      28.217 -15.191   0.178  0.00  0.00     0.239 C 
ATOM      6  O   UNL d   1      27.222 -14.484  -0.012  0.00  0.00    -0.272 OA
ATOM      7  H   UNL d   1      30.209 -15.040   3.551  0.00  0.00     0.170 HD
ATOM      8  H   UNL d   1      29.716 -15.847   1.473  0.00  0.00     0.173 HD
ENDROOT
BRANCH   5   9
ATOM      9  C   UNL d   1      28.710 -15.988  -1.026  0.00  0.00     0.141 C 
ATOM     10  C   UNL d   1      29.906 -15.247  -1.647  0.00  0.00     0.031 C 
BRANCH   9  11
ATOM     11  S   UNL d   1      27.515 -16.204  -2.348  0.00  0.00    -0.115 SA
BRANCH  11  12
ATOM     12  C   UNL d   1      25.936 -16.598  -1.595  0.00  0.00     0.017 A 
ATOM     13  C   UNL d   1      25.796 -17.683  -0.702  0.00  0.00     0.019 A 
ATOM     14  C   UNL d   1      24.570 -17.997  -0.121  0.00  0.00     0.001 A 
ATOM     15  C   UNL d   1      23.463 -17.217  -0.402  0.00  0.00     0.001 A 
ATOM     16  C   UNL d   1      23.578 -16.130  -1.270  0.00  0.00     0.018 A 
ATOM     17  C   UNL d   1      24.806 -15.787  -1.869  0.00  0.00     0.048 A 
BRANCH  17  18
ATOM     18  C   UNL d   1      24.893 -14.551  -2.740  0.00  0.00     0.250 C 
ATOM     19  N   UNL d   1      25.591 -13.472  -2.288  0.00  0.00    -0.366 N 
ATOM     20  H   UNL d   1      26.078 -13.390  -1.413  0.00  0.00     0.159 HD
ATOM     21  H   UNL d   1      25.600 -12.679  -2.917  0.00  0.00     0.159 HD
ATOM     22  O   UNL d   1      24.406 -14.438  -3.861  0.00  0.00    -0.268 OA
ENDBRANCH  17  18
ENDBRANCH  11  12
ENDBRANCH   9  11
ENDBRANCH   5   9
BRANCH   1  23
ATOM     23  C   UNL d   1      29.056 -13.784   4.789  0.00  0.00     0.042 A 
ATOM     24  C   UNL d   1      29.091 -14.455   6.022  0.00  0.00     0.030 A 
ATOM     25  C   UNL d   1      28.831 -13.851   7.243  0.00  0.00     0.009 A 
ATOM     26  C   UNL d   1      28.519 -12.508   7.299  0.00  0.00    -0.061 A 
ATOM     27  C   UNL d   1      28.247 -11.893   8.637  0.00  0.00     0.048 C 
ATOM     28  C   UNL d   1      28.469 -11.792   6.093  0.00  0.00     0.015 A 
ATOM     29  C   UNL d   1      28.727 -12.412   4.829  0.00  0.00    -0.035 A 
ATOM     30  C   UNL d   1      28.635 -11.530   3.612  0.00  0.00     0.050 C 
ENDBRANCH   1  23
TORSDOF 5
ENDMDL
MODEL 2
REMARK VINA RESULT:    -7.413      4.951      8.907
REMARK INTER + INTRA:         -11.394
REMARK INTER:                  -8.904
REMARK INTRA:                  -2.489
REMARK CONF_INDEPENDENT:        1.492
REMARK UNBOUND:                -2.489
REMARK  5 active torsions:
REMARK  status: ('A' for Active; 'I' for Inactive)
REMARK    1  A    between atoms: C_5  and  N_6 
REMARK       I    between atoms: N_6  and  C_7 
REMARK       I    between atoms: C_7  and  N_9 
REMARK       I    between atoms: N_9  and  C_10 
REMARK    2  A    between atoms: C_12  and  C_10 
REMARK    3  A    between atoms: C_12  and  S_14 
REMARK    4  A    between atoms: S_14  and  C_15 
REMARK    5  A    between atoms: C_20  and  C_21 
REMARK       I    between atoms: C_21  and  N_22 
ROOT
ATOM      1  N   UNL d   1      29.387 -16.144  -4.649  0.00  0.00    -0.308 N 
ATOM      2  C   UNL d   1      28.140 -15.572  -4.884  0.00  0.00     0.327 C 
ATOM      3  O   UNL d   1      27.581 -15.575  -5.978  0.00  0.00    -0.247 OA
ATOM      4  N   UNL d   1      27.514 -14.987  -3.816  0.00  0.00    -0.278 N 
ATOM      5  C   UNL d   1      26.244 -14.431  -3.952  0.00  0.00     0.239 C 
ATOM      6  O   UNL d   1      25.593 -14.445  -5.003  0.00  0.00    -0.272 OA
ATOM      7  H   UNL d   1      29.759 -16.150  -3.712  0.00  0.00     0.170 HD
ATOM      8  H   UNL d   1      28.009 -14.900  -2.944  0.00  0.00     0.173 HD
ENDROOT
BRANCH   5   9
ATOM      9  C   UNL d   1      25.530 -13.858  -2.731  0.00  0.00     0.141 C 
ATOM     10  C   UNL d   1      25.551 -12.324  -2.828  0.00  0.00     0.031 C 
BRANCH   9  11
ATOM     11  S   UNL d   1      26.265 -14.269  -1.147  0.00  0.00    -0.115 SA
BRANCH  11  12
ATOM     12  C   UNL d   1      25.761 -15.939  -0.731  0.00  0.00     0.017 A 
ATOM     13  C   UNL d   1      24.400 -16.280  -0.571  0.00  0.00     0.019 A 
ATOM     14  C   UNL d   1      24.005 -17.573  -0.240  0.00  0.00     0.001 A 
ATOM     15  C   UNL d   1      24.962 -18.559  -0.085  0.00  0.00     0.001 A 
ATOM     16  C   UNL d   1      26.313 -18.252  -0.251  0.00  0.00     0.018 A 
ATOM     17  C   UNL d   1      26.741 -16.953  -0.589  0.00  0.00     0.048 A 
BRANCH  17  18
ATOM     18  C   UNL d   1      28.213 -16.692  -0.836  0.00  0.00     0.250 C 
ATOM     19  N   UNL d   1      29.053 -16.583   0.231  0.00  0.00    -0.366 N 
ATOM     20  H   UNL d   1      28.810 -16.660   1.203  0.00  0.00     0.159 HD
ATOM     21  H   UNL d   1      30.020 -16.401  -0.007  0.00  0.00     0.159 HD
ATOM     22  O   UNL d   1      28.740 -16.598  -1.940  0.00  0.00    -0.268 OA
ENDBRANCH  17  18
ENDBRANCH  11  12
ENDBRANCH   9  11
ENDBRANCH   5   9
BRANCH   1  23
ATOM     23  C   UNL d   1      30.190 -16.748  -5.687  0.00  0.00     0.042 A 
ATOM     24  C   UNL d   1      30.405 -18.135  -5.693  0.00  0.00     0.030 A 
ATOM     25  C   UNL d   1      31.144 -18.802  -6.660  0.00  0.00     0.009 A 
ATOM     26  C   UNL d   1      31.716 -18.101  -7.700  0.00  0.00    -0.061 A 
ATOM     27  C   UNL d   1      32.505 -18.859  -8.723  0.00  0.00     0.048 C 
ATOM     28  C   UNL d   1      31.532 -16.710  -7.738  0.00  0.00     0.015 A 
ATOM     29  C   UNL d   1      30.779 -16.015  -6.740  0.00  0.00    -0.035 A 
ATOM     30  C   UNL d   1      30.663 -14.522  -6.898  0.00  0.00     0.050 C 
ENDBRANCH   1  23
TORSDOF 5
ENDMDL
MODEL 3
REMARK VINA RESULT:    -7.292      4.944      8.980
REMARK INTER + INTRA:         -11.303
REMARK INTER:                  -8.783
REMARK INTRA:                  -2.520
REMARK CONF_INDEPENDENT:        1.492
REMARK UNBOUND:                -2.520
REMARK  5 active torsions:
REMARK  status: ('A' for Active; 'I' for Inactive)
REMARK    1  A    between atoms: C_5  and  N_6 
REMARK       I    between atoms: N_6  and  C_7 
REMARK       I    between atoms: C_7  and  N_9 
REMARK       I    between atoms: N_9  and  C_10 
REMARK    2  A    between atoms: C_12  and  C_10 
REMARK    3  A    between atoms: C_12  and  S_14 
REMARK    4  A    between atoms: S_14  and  C_15 
REMARK    5  A    between atoms: C_20  and  C_21 
REMARK       I    between atoms: C_21  and  N_22 
ROOT
ATOM      1  N   UNL d   1      29.509 -16.122  -4.665  0.00  0.00    -0.308 N 
ATOM      2  C   UNL d   1      28.252 -15.571  -4.904  0.00  0.00     0.327 C 
ATOM      3  O   UNL d   1      27.703 -15.571  -6.003  0.00  0.00    -0.247 OA
ATOM      4  N   UNL d   1      27.606 -15.012  -3.833  0.00  0.00    -0.278 N 
ATOM      5  C   UNL d   1      26.327 -14.479  -3.974  0.00  0.00     0.239 C 
ATOM      6  O   UNL d   1      25.685 -14.493  -5.030  0.00  0.00    -0.272 OA
ATOM      7  H   UNL d   1      29.873 -16.132  -3.725  0.00  0.00     0.170 HD
ATOM      8  H   UNL d   1      28.093 -14.927  -2.956  0.00  0.00     0.173 HD
ENDROOT
BRANCH   5   9
ATOM      9  C   UNL d   1      25.591 -13.937  -2.752  0.00  0.00     0.141 C 
ATOM     10  C   UNL d   1      25.539 -12.403  -2.855  0.00  0.00     0.031 C 
BRANCH   9  11
ATOM     11  S   UNL d   1      26.351 -14.306  -1.169  0.00  0.00    -0.115 SA
BRANCH  11  12
ATOM     12  C   UNL d   1      25.862 -15.968  -0.707  0.00  0.00     0.017 A 
ATOM     13  C   UNL d   1      24.505 -16.313  -0.522  0.00  0.00     0.019 A 
ATOM     14  C   UNL d   1      24.122 -17.600  -0.155  0.00  0.00     0.001 A 
ATOM     15  C   UNL d   1      25.087 -18.577   0.012  0.00  0.00     0.001 A 
ATOM     16  C   UNL d   1      26.434 -18.266  -0.178  0.00  0.00     0.018 A 
ATOM     17  C   UNL d   1      26.850 -16.973  -0.552  0.00  0.00     0.048 A 
BRANCH  17  18
ATOM     18  C   UNL d   1      28.317 -16.709  -0.823  0.00  0.00     0.250 C 
ATOM     19  N   UNL d   1      29.168 -16.566   0.231  0.00  0.00    -0.366 N 
ATOM     20  H   UNL d   1      28.937 -16.617   1.206  0.00  0.00     0.159 HD
ATOM     21  H   UNL d   1      30.132 -16.384  -0.024  0.00  0.00     0.159 HD
ATOM     22  O   UNL d   1      28.832 -16.643  -1.936  0.00  0.00    -0.268 OA
ENDBRANCH  17  18
ENDBRANCH  11  12
ENDBRANCH   9  11
ENDBRANCH   5   9
BRANCH   1  23
ATOM     23  C   UNL d   1      30.332 -16.696  -5.703  0.00  0.00     0.042 A 
ATOM     24  C   UNL d   1      30.763 -15.904  -6.779  0.00  0.00     0.030 A 
ATOM     25  C   UNL d   1      31.571 -16.365  -7.809  0.00  0.00     0.009 A 
ATOM     26  C   UNL d   1      32.006 -17.674  -7.814  0.00  0.00    -0.061 A 
ATOM     27  C   UNL d   1      32.878 -18.132  -8.943  0.00  0.00     0.048 C 
ATOM     28  C   UNL d   1      31.602 -18.508  -6.761  0.00  0.00     0.015 A 
ATOM     29  C   UNL d   1      30.761 -18.041  -5.701  0.00  0.00    -0.035 A 
ATOM     30  C   UNL d   1      30.398 -19.041  -4.635  0.00  0.00     0.050 C 
ENDBRANCH   1  23
TORSDOF 5
ENDMDL
MODEL 4
REMARK VINA RESULT:    -7.203      5.515      7.598
REMARK INTER + INTRA:         -10.742
REMARK INTER:                  -8.694
REMARK INTRA:                  -2.048
REMARK CONF_INDEPENDENT:        1.492
REMARK UNBOUND:                -2.048
REMARK  5 active torsions:
REMARK  status: ('A' for Active; 'I' for Inactive)
REMARK    1  A    between atoms: C_5  and  N_6 
REMARK       I    between atoms: N_6  and  C_7 
REMARK       I    between atoms: C_7  and  N_9 
REMARK       I    between atoms: N_9  and  C_10 
REMARK    2  A    between atoms: C_12  and  C_10 
REMARK    3  A    between atoms: C_12  and  S_14 
REMARK    4  A    between atoms: S_14  and  C_15 
REMARK    5  A    between atoms: C_20  and  C_21 
REMARK       I    between atoms: C_21  and  N_22 
ROOT
ATOM      1  N   UNL d   1      25.746 -15.621  -1.732  0.00  0.00    -0.308 N 
ATOM      2  C   UNL d   1      26.022 -15.608  -3.097  0.00  0.00     0.327 C 
ATOM      3  O   UNL d   1      25.418 -16.288  -3.923  0.00  0.00    -0.247 OA
ATOM      4  N   UNL d   1      27.022 -14.775  -3.520  0.00  0.00    -0.278 N 
ATOM      5  C   UNL d   1      27.334 -14.667  -4.874  0.00  0.00     0.239 C 
ATOM      6  O   UNL d   1      26.736 -15.272  -5.770  0.00  0.00    -0.272 OA
ATOM      7  H   UNL d   1      26.248 -14.995  -1.121  0.00  0.00     0.170 HD
ATOM      8  H   UNL d   1      27.579 -14.289  -2.836  0.00  0.00     0.173 HD
ENDROOT
BRANCH   5   9
ATOM      9  C   UNL d   1      28.395 -13.671  -5.332  0.00  0.00     0.141 C 
ATOM     10  C   UNL d   1      29.702 -14.437  -5.596  0.00  0.00     0.031 C 
BRANCH   9  11
ATOM     11  S   UNL d   1      28.800 -12.380  -4.154  0.00  0.00    -0.115 SA
BRANCH  11  12
ATOM     12  C   UNL d   1      27.703 -10.997  -4.464  0.00  0.00     0.017 A 
ATOM     13  C   UNL d   1      28.133  -9.863  -5.190  0.00  0.00     0.019 A 
ATOM     14  C   UNL d   1      27.286  -8.783  -5.426  0.00  0.00     0.001 A 
ATOM     15  C   UNL d   1      25.984  -8.824  -4.963  0.00  0.00     0.001 A 
ATOM     16  C   UNL d   1      25.530  -9.938  -4.255  0.00  0.00     0.018 A 
ATOM     17  C   UNL d   1      26.363 -11.046  -4.004  0.00  0.00     0.048 A 
BRANCH  17  18
ATOM     18  C   UNL d   1      25.797 -12.263  -3.301  0.00  0.00     0.250 C 
ATOM     19  N   UNL d   1      24.787 -12.958  -3.894  0.00  0.00    -0.366 N 
ATOM     20  H   UNL d   1      24.353 -12.759  -4.778  0.00  0.00     0.159 HD
ATOM     21  H   UNL d   1      24.452 -13.754  -3.365  0.00  0.00     0.159 HD
ATOM     22  O   UNL d   1      26.196 -12.713  -2.231  0.00  0.00    -0.268 OA
ENDBRANCH  17  18
ENDBRANCH  11  12
ENDBRANCH   9  11
ENDBRANCH   5   9
BRANCH   1  23
ATOM     23  C   UNL d   1      24.758 -16.487  -1.131  0.00  0.00     0.042 A 
ATOM     24  C   UNL d   1      23.391 -16.199  -1.270  0.00  0.00     0.030 A 
ATOM     25  C   UNL d   1      22.375 -16.983  -0.746  0.00  0.00     0.009 A 
ATOM     26  C   UNL d   1      22.679 -18.130  -0.041  0.00  0.00    -0.061 A 
ATOM     27  C   UNL d   1      21.552 -18.950   0.508  0.00  0.00     0.048 C 
ATOM     28  C   UNL d   1      24.032 -18.461   0.128  0.00  0.00     0.015 A 
ATOM     29  C   UNL d   1      25.085 -17.651  -0.403  0.00  0.00    -0.035 A 
ATOM     30  C   UNL d   1      26.493 -18.118  -0.146  0.00  0.00     0.050 C 
ENDBRANCH   1  23
TORSDOF 5
ENDMDL
MODEL 5
REMARK VINA RESULT:    -7.161      5.359      7.549
REMARK INTER + INTRA:         -11.307
REMARK INTER:                  -8.653
REMARK INTRA:                  -2.654
REMARK CONF_INDEPENDENT:        1.492
REMARK UNBOUND:                -2.654
REMARK  5 active torsions:
REMARK  status: ('A' for Active; 'I' for Inactive)
REMARK    1  A    between atoms: C_5  and  N_6 
REMARK       I    between atoms: N_6  and  C_7 
REMARK       I    between atoms: C_7  and  N_9 
REMARK       I    between atoms: N_9  and  C_10 
REMARK    2  A    between atoms: C_12  and  C_10 
REMARK    3  A    between atoms: C_12  and  S_14 
REMARK    4  A    between atoms: S_14  and  C_15 
REMARK    5  A    between atoms: C_20  and  C_21 
REMARK       I    between atoms: C_21  and  N_22 
ROOT
ATOM      1  N   UNL d   1      26.469 -15.944  -1.907  0.00  0.00    -0.308 N 
ATOM      2  C   UNL d   1      26.466 -15.679  -3.274  0.00  0.00     0.327 C 
ATOM      3  O   UNL d   1      25.530 -15.953  -4.021  0.00  0.00    -0.247 OA
ATOM      4  N   UNL d   1      27.577 -15.067  -3.790  0.00  0.00    -0.278 N 
ATOM      5  C   UNL d   1      27.638 -14.724  -5.139  0.00  0.00     0.239 C 
ATOM      6  O   UNL d   1      26.718 -14.913  -5.942  0.00  0.00    -0.272 OA
ATOM      7  H   UNL d   1      27.251 -15.642  -1.347  0.00  0.00     0.170 HD
ATOM      8  H   UNL d   1      28.380 -14.927  -3.199  0.00  0.00     0.173 HD
ENDROOT
BRANCH   5   9
ATOM      9  C   UNL d   1      28.849 -13.968  -5.677  0.00  0.00     0.141 C 
ATOM     10  C   UNL d   1      28.907 -14.158  -7.202  0.00  0.00     0.031 C 
BRANCH   9  11
ATOM     11  S   UNL d   1      30.439 -14.513  -5.045  0.00  0.00    -0.115 SA
BRANCH  11  12
ATOM     12  C   UNL d   1      30.516 -16.295  -5.232  0.00  0.00     0.017 A 
ATOM     13  C   UNL d   1      30.783 -16.894  -6.482  0.00  0.00     0.019 A 
ATOM     14  C   UNL d   1      30.835 -18.278  -6.632  0.00  0.00     0.001 A 
ATOM     15  C   UNL d   1      30.646 -19.090  -5.530  0.00  0.00     0.001 A 
ATOM     16  C   UNL d   1      30.393 -18.523  -4.280  0.00  0.00     0.018 A 
ATOM     17  C   UNL d   1      30.338 -17.127  -4.098  0.00  0.00     0.048 A 
BRANCH  17  18
ATOM     18  C   UNL d   1      30.141 -16.562  -2.706  0.00  0.00     0.250 C 
ATOM     19  N   UNL d   1      31.175 -15.910  -2.105  0.00  0.00    -0.366 N 
ATOM     20  H   UNL d   1      32.090 -15.747  -2.486  0.00  0.00     0.159 HD
ATOM     21  H   UNL d   1      30.975 -15.566  -1.174  0.00  0.00     0.159 HD
ATOM     22  O   UNL d   1      29.096 -16.611  -2.063  0.00  0.00    -0.268 OA
ENDBRANCH  17  18
ENDBRANCH  11  12
ENDBRANCH   9  11
ENDBRANCH   5   9
BRANCH   1  23
ATOM     23  C   UNL d   1      25.394 -16.633  -1.231  0.00  0.00     0.042 A 
ATOM     24  C   UNL d   1      24.060 -16.278  -1.487  0.00  0.00     0.030 A 
ATOM     25  C   UNL d   1      22.966 -16.897  -0.900  0.00  0.00     0.009 A 
ATOM     26  C   UNL d   1      23.152 -17.933  -0.008  0.00  0.00    -0.061 A 
ATOM     27  C   UNL d   1      21.944 -18.575   0.602  0.00  0.00     0.048 C 
ATOM     28  C   UNL d   1      24.468 -18.324   0.283  0.00  0.00     0.015 A 
ATOM     29  C   UNL d   1      25.601 -17.684  -0.312  0.00  0.00    -0.035 A 
ATOM     30  C   UNL d   1      26.957 -18.199   0.091  0.00  0.00     0.050 C 
ENDBRANCH   1  23
TORSDOF 5
ENDMDL
MODEL 6
REMARK VINA RESULT:    -7.076      1.838      2.939
REMARK INTER + INTRA:         -10.970
REMARK INTER:                  -8.567
REMARK INTRA:                  -2.403
REMARK CONF_INDEPENDENT:        1.492
REMARK UNBOUND:                -2.403
REMARK  5 active torsions:
REMARK  status: ('A' for Active; 'I' for Inactive)
REMARK    1  A    between atoms: C_5  and  N_6 
REMARK       I    between atoms: N_6  and  C_7 
REMARK       I    between atoms: C_7  and  N_9 
REMARK       I    between atoms: N_9  and  C_10 
REMARK    2  A    between atoms: C_12  and  C_10 
REMARK    3  A    between atoms: C_12  and  S_14 
REMARK    4  A    between atoms: S_14  and  C_15 
REMARK    5  A    between atoms: C_20  and  C_21 
REMARK       I    between atoms: C_21  and  N_22 
ROOT
ATOM      1  N   UNL d   1      28.128 -14.682   2.284  0.00  0.00    -0.308 N 
ATOM      2  C   UNL d   1      27.476 -13.927   1.312  0.00  0.00     0.327 C 
ATOM      3  O   UNL d   1      27.105 -12.768   1.482  0.00  0.00    -0.247 OA
ATOM      4  N   UNL d   1      27.257 -14.530   0.102  0.00  0.00    -0.278 N 
ATOM      5  C   UNL d   1      26.652 -13.831  -0.941  0.00  0.00     0.239 C 
ATOM      6  O   UNL d   1      26.303 -12.648  -0.869  0.00  0.00    -0.272 OA
ATOM      7  H   UNL d   1      28.451 -15.609   2.055  0.00  0.00     0.170 HD
ATOM      8  H   UNL d   1      27.475 -15.506  -0.007  0.00  0.00     0.173 HD
ENDROOT
BRANCH   5   9
ATOM      9  C   UNL d   1      26.492 -14.493  -2.306  0.00  0.00     0.141 C 
ATOM     10  C   UNL d   1      25.035 -14.320  -2.766  0.00  0.00     0.031 C 
BRANCH   9  11
ATOM     11  S   UNL d   1      26.824 -16.256  -2.351  0.00  0.00    -0.115 SA
BRANCH  11  12
ATOM     12  C   UNL d   1      25.522 -17.077  -1.430  0.00  0.00     0.017 A 
ATOM     13  C   UNL d   1      24.238 -17.275  -1.985  0.00  0.00     0.019 A 
ATOM     14  C   UNL d   1      23.222 -17.904  -1.270  0.00  0.00     0.001 A 
ATOM     15  C   UNL d   1      23.476 -18.371   0.006  0.00  0.00     0.001 A 
ATOM     16  C   UNL d   1      24.740 -18.201   0.573  0.00  0.00     0.018 A 
ATOM     17  C   UNL d   1      25.787 -17.571  -0.128  0.00  0.00     0.048 A 
BRANCH  17  18
ATOM     18  C   UNL d   1      27.162 -17.484   0.502  0.00  0.00     0.250 C 
ATOM     19  N   UNL d   1      28.242 -17.916  -0.206  0.00  0.00    -0.366 N 
ATOM     20  H   UNL d   1      28.243 -18.299  -1.134  0.00  0.00     0.159 HD
ATOM     21  H   UNL d   1      29.128 -17.836   0.280  0.00  0.00     0.159 HD
ATOM     22  O   UNL d   1      27.404 -17.018   1.612  0.00  0.00    -0.268 OA
ENDBRANCH  17  18
ENDBRANCH  11  12
ENDBRANCH   9  11
ENDBRANCH   5   9
BRANCH   1  23
ATOM     23  C   UNL d   1      28.379 -14.203   3.623  0.00  0.00     0.042 A 
ATOM     24  C   UNL d   1      27.310 -13.812   4.444  0.00  0.00     0.030 A 
ATOM     25  C   UNL d   1      27.456 -13.359   5.747  0.00  0.00     0.009 A 
ATOM     26  C   UNL d   1      28.710 -13.275   6.314  0.00  0.00    -0.061 A 
ATOM     27  C   UNL d   1      28.824 -12.783   7.724  0.00  0.00     0.048 C 
ATOM     28  C   UNL d   1      29.813 -13.653   5.534  0.00  0.00     0.015 A 
ATOM     29  C   UNL d   1      29.671 -14.113   4.186  0.00  0.00    -0.035 A 
ATOM     30  C   UNL d   1      30.937 -14.482   3.460  0.00  0.00     0.050 C 
ENDBRANCH   1  23
TORSDOF 5
ENDMDL
MODEL 7
REMARK VINA RESULT:    -6.737      5.247      7.132
REMARK INTER + INTRA:         -10.820
REMARK INTER:                  -8.228
REMARK INTRA:                  -2.592
REMARK CONF_INDEPENDENT:        1.492
REMARK UNBOUND:                -2.592
REMARK  5 active torsions:
REMARK  status: ('A' for Active; 'I' for Inactive)
REMARK    1  A    between atoms: C_5  and  N_6 
REMARK       I    between atoms: N_6  and  C_7 
REMARK       I    between atoms: C_7  and  N_9 
REMARK       I    between atoms: N_9  and  C_10 
REMARK    2  A    between atoms: C_12  and  C_10 
REMARK    3  A    between atoms: C_12  and  S_14 
REMARK    4  A    between atoms: S_14  and  C_15 
REMARK    5  A    between atoms: C_20  and  C_21 
REMARK       I    between atoms: C_21  and  N_22 
ROOT
ATOM      1  N   UNL d   1      25.399 -15.340  -1.213  0.00  0.00    -0.308 N 
ATOM      2  C   UNL d   1      25.294 -14.632  -2.407  0.00  0.00     0.327 C 
ATOM      3  O   UNL d   1      24.390 -14.797  -3.222  0.00  0.00    -0.247 OA
ATOM      4  N   UNL d   1      26.261 -13.697  -2.662  0.00  0.00    -0.278 N 
ATOM      5  C   UNL d   1      26.207 -12.912  -3.812  0.00  0.00     0.239 C 
ATOM      6  O   UNL d   1      25.301 -12.977  -4.650  0.00  0.00    -0.272 OA
ATOM      7  H   UNL d   1      26.140 -15.113  -0.568  0.00  0.00     0.170 HD
ATOM      8  H   UNL d   1      27.052 -13.627  -2.043  0.00  0.00     0.173 HD
ENDROOT
BRANCH   5   9
ATOM      9  C   UNL d   1      27.248 -11.819  -4.036  0.00  0.00     0.141 C 
ATOM     10  C   UNL d   1      26.829 -10.989  -5.260  0.00  0.00     0.031 C 
BRANCH   9  11
ATOM     11  S   UNL d   1      28.913 -12.398  -4.370  0.00  0.00    -0.115 SA
BRANCH  11  12
ATOM     12  C   UNL d   1      29.141 -13.939  -3.481  0.00  0.00     0.017 A 
ATOM     13  C   UNL d   1      29.723 -13.969  -2.195  0.00  0.00     0.019 A 
ATOM     14  C   UNL d   1      29.910 -15.164  -1.505  0.00  0.00     0.001 A 
ATOM     15  C   UNL d   1      29.496 -16.352  -2.077  0.00  0.00     0.001 A 
ATOM     16  C   UNL d   1      28.905 -16.350  -3.342  0.00  0.00     0.018 A 
ATOM     17  C   UNL d   1      28.701 -15.156  -4.061  0.00  0.00     0.048 A 
BRANCH  17  18
ATOM     18  C   UNL d   1      27.983 -15.200  -5.394  0.00  0.00     0.250 C 
ATOM     19  N   UNL d   1      26.622 -15.148  -5.414  0.00  0.00    -0.366 N 
ATOM     20  H   UNL d   1      26.008 -15.079  -4.622  0.00  0.00     0.159 HD
ATOM     21  H   UNL d   1      26.209 -15.191  -6.337  0.00  0.00     0.159 HD
ATOM     22  O   UNL d   1      28.530 -15.247  -6.492  0.00  0.00    -0.268 OA
ENDBRANCH  17  18
ENDBRANCH  11  12
ENDBRANCH   9  11
ENDBRANCH   5   9
BRANCH   1  23
ATOM     23  C   UNL d   1      24.488 -16.394  -0.834  0.00  0.00     0.042 A 
ATOM     24  C   UNL d   1      23.102 -16.204  -0.956  0.00  0.00     0.030 A 
ATOM     25  C   UNL d   1      22.155 -17.166  -0.635  0.00  0.00     0.009 A 
ATOM     26  C   UNL d   1      22.553 -18.401  -0.169  0.00  0.00    -0.061 A 
ATOM     27  C   UNL d   1      21.499 -19.412   0.164  0.00  0.00     0.048 C 
ATOM     28  C   UNL d   1      23.928 -18.641  -0.027  0.00  0.00     0.015 A 
ATOM     29  C   UNL d   1      24.910 -17.650  -0.347  0.00  0.00    -0.035 A 
ATOM     30  C   UNL d   1      26.351 -18.036  -0.145  0.00  0.00     0.050 C 
ENDBRANCH   1  23
TORSDOF 5
ENDMDL
MODEL 8
REMARK VINA RESULT:    -6.709      4.609      6.913
REMARK INTER + INTRA:         -10.846
REMARK INTER:                  -8.200
REMARK INTRA:                  -2.646
REMARK CONF_INDEPENDENT:        1.492
REMARK UNBOUND:                -2.646
REMARK  5 active torsions:
REMARK  status: ('A' for Active; 'I' for Inactive)
REMARK    1  A    between atoms: C_5  and  N_6 
REMARK       I    between atoms: N_6  and  C_7 
REMARK       I    between atoms: C_7  and  N_9 
REMARK       I    between atoms: N_9  and  C_10 
REMARK    2  A    between atoms: C_12  and  C_10 
REMARK    3  A    between atoms: C_12  and  S_14 
REMARK    4  A    between atoms: S_14  and  C_15 
REMARK    5  A    between atoms: C_20  and  C_21 
REMARK       I    between atoms: C_21  and  N_22 
ROOT
ATOM      1  N   UNL d   1      26.237 -16.120  -1.764  0.00  0.00    -0.308 N 
ATOM      2  C   UNL d   1      26.290 -15.836  -3.126  0.00  0.00     0.327 C 
ATOM      3  O   UNL d   1      25.392 -16.111  -3.918  0.00  0.00    -0.247 OA
ATOM      4  N   UNL d   1      27.414 -15.203  -3.584  0.00  0.00    -0.278 N 
ATOM      5  C   UNL d   1      27.530 -14.841  -4.925  0.00  0.00     0.239 C 
ATOM      6  O   UNL d   1      26.649 -15.031  -5.770  0.00  0.00    -0.272 OA
ATOM      7  H   UNL d   1      26.990 -15.816  -1.166  0.00  0.00     0.170 HD
ATOM      8  H   UNL d   1      28.189 -15.062  -2.957  0.00  0.00     0.173 HD
ENDROOT
BRANCH   5   9
ATOM      9  C   UNL d   1      28.754 -14.064  -5.398  0.00  0.00     0.141 C 
ATOM     10  C   UNL d   1      30.006 -14.920  -5.146  0.00  0.00     0.031 C 
BRANCH   9  11
ATOM     11  S   UNL d   1      29.043 -12.500  -4.566  0.00  0.00    -0.115 SA
BRANCH  11  12
ATOM     12  C   UNL d   1      28.455 -12.665  -2.880  0.00  0.00     0.017 A 
ATOM     13  C   UNL d   1      29.333 -12.988  -1.822  0.00  0.00     0.019 A 
ATOM     14  C   UNL d   1      28.879 -13.126  -0.513  0.00  0.00     0.001 A 
ATOM     15  C   UNL d   1      27.542 -12.920  -0.230  0.00  0.00     0.001 A 
ATOM     16  C   UNL d   1      26.655 -12.586  -1.255  0.00  0.00     0.018 A 
ATOM     17  C   UNL d   1      27.087 -12.437  -2.588  0.00  0.00     0.048 A 
BRANCH  17  18
ATOM     18  C   UNL d   1      26.099 -11.996  -3.648  0.00  0.00     0.250 C 
ATOM     19  N   UNL d   1      25.417 -12.942  -4.351  0.00  0.00    -0.366 N 
ATOM     20  H   UNL d   1      25.487 -13.939  -4.248  0.00  0.00     0.159 HD
ATOM     21  H   UNL d   1      24.780 -12.576  -5.048  0.00  0.00     0.159 HD
ATOM     22  O   UNL d   1      25.825 -10.830  -3.920  0.00  0.00    -0.268 OA
ENDBRANCH  17  18
ENDBRANCH  11  12
ENDBRANCH   9  11
ENDBRANCH   5   9
BRANCH   1  23
ATOM     23  C   UNL d   1      25.142 -16.831  -1.145  0.00  0.00     0.042 A 
ATOM     24  C   UNL d   1      23.817 -16.465  -1.427  0.00  0.00     0.030 A 
ATOM     25  C   UNL d   1      22.705 -17.103  -0.895  0.00  0.00     0.009 A 
ATOM     26  C   UNL d   1      22.864 -18.171  -0.036  0.00  0.00    -0.061 A 
ATOM     27  C   UNL d   1      21.639 -18.833   0.514  0.00  0.00     0.048 C 
ATOM     28  C   UNL d   1      24.171 -18.575   0.279  0.00  0.00     0.015 A 
ATOM     29  C   UNL d   1      25.322 -17.915  -0.259  0.00  0.00    -0.035 A 
ATOM     30  C   UNL d   1      26.665 -18.447   0.164  0.00  0.00     0.050 C 
ENDBRANCH   1  23
TORSDOF 5
ENDMDL
MODEL 9
REMARK VINA RESULT:    -6.687      5.372      7.489
REMARK INTER + INTRA:         -10.732
REMARK INTER:                  -8.178
REMARK INTRA:                  -2.553
REMARK CONF_INDEPENDENT:        1.492
REMARK UNBOUND:                -2.553
REMARK  5 active torsions:
REMARK  status: ('A' for Active; 'I' for Inactive)
REMARK    1  A    between atoms: C_5  and  N_6 
REMARK       I    between atoms: N_6  and  C_7 
REMARK       I    between atoms: C_7  and  N_9 
REMARK       I    between atoms: N_9  and  C_10 
REMARK    2  A    between atoms: C_12  and  C_10 
REMARK    3  A    between atoms: C_12  and  S_14 
REMARK    4  A    between atoms: S_14  and  C_15 
REMARK    5  A    between atoms: C_20  and  C_21 
REMARK       I    between atoms: C_21  and  N_22 
ROOT
ATOM      1  N   UNL d   1      25.935 -15.819  -1.588  0.00  0.00    -0.308 N 
ATOM      2  C   UNL d   1      25.844 -15.158  -2.810  0.00  0.00     0.327 C 
ATOM      3  O   UNL d   1      24.839 -15.162  -3.517  0.00  0.00    -0.247 OA
ATOM      4  N   UNL d   1      26.948 -14.460  -3.222  0.00  0.00    -0.278 N 
ATOM      5  C   UNL d   1      26.928 -13.733  -4.410  0.00  0.00     0.239 C 
ATOM      6  O   UNL d   1      25.940 -13.641  -5.146  0.00  0.00    -0.272 OA
ATOM      7  H   UNL d   1      26.775 -15.726  -1.037  0.00  0.00     0.170 HD
ATOM      8  H   UNL d   1      27.801 -14.533  -2.691  0.00  0.00     0.173 HD
ENDROOT
BRANCH   5   9
ATOM      9  C   UNL d   1      28.139 -12.896  -4.809  0.00  0.00     0.141 C 
ATOM     10  C   UNL d   1      28.247 -12.892  -6.343  0.00  0.00     0.031 C 
BRANCH   9  11
ATOM     11  S   UNL d   1      29.720 -13.489  -4.200  0.00  0.00    -0.115 SA
BRANCH  11  12
ATOM     12  C   UNL d   1      29.982 -15.129  -4.877  0.00  0.00     0.017 A 
ATOM     13  C   UNL d   1      30.373 -15.318  -6.222  0.00  0.00     0.019 A 
ATOM     14  C   UNL d   1      30.569 -16.589  -6.753  0.00  0.00     0.001 A 
ATOM     15  C   UNL d   1      30.403 -17.699  -5.946  0.00  0.00     0.001 A 
ATOM     16  C   UNL d   1      30.031 -17.540  -4.610  0.00  0.00     0.018 A 
ATOM     17  C   UNL d   1      29.828 -16.266  -4.044  0.00  0.00     0.048 A 
BRANCH  17  18
ATOM     18  C   UNL d   1      29.504 -16.146  -2.570  0.00  0.00     0.250 C 
ATOM     19  N   UNL d   1      30.404 -15.546  -1.741  0.00  0.00    -0.366 N 
ATOM     20  H   UNL d   1      31.292 -15.154  -1.996  0.00  0.00     0.159 HD
ATOM     21  H   UNL d   1      30.125 -15.508  -0.768  0.00  0.00     0.159 HD
ATOM     22  O   UNL d   1      28.461 -16.521  -2.041  0.00  0.00    -0.268 OA
ENDBRANCH  17  18
ENDBRANCH  11  12
ENDBRANCH   9  11
ENDBRANCH   5   9
BRANCH   1  23
ATOM     23  C   UNL d   1      24.875 -16.639  -1.049  0.00  0.00     0.042 A 
ATOM     24  C   UNL d   1      23.533 -16.286  -1.268  0.00  0.00     0.030 A 
ATOM     25  C   UNL d   1      22.452 -17.023  -0.807  0.00  0.00     0.009 A 
ATOM     26  C   UNL d   1      22.660 -18.183  -0.090  0.00  0.00    -0.061 A 
ATOM     27  C   UNL d   1      21.465 -18.950   0.389  0.00  0.00     0.048 C 
ATOM     28  C   UNL d   1      23.983 -18.578   0.157  0.00  0.00     0.015 A 
ATOM     29  C   UNL d   1      25.103 -17.817  -0.307  0.00  0.00    -0.035 A 
ATOM     30  C   UNL d   1      26.470 -18.351   0.030  0.00  0.00     0.050 C 
ENDBRANCH   1  23
TORSDOF 5
ENDMDL
