MODEL 1
REMARK VINA RESULT:   -26.273      0.000      0.000
REMARK INTER + INTRA:         -29.026
REMARK INTER:                 -27.765
REMARK INTRA:                  -1.261
REMARK CONF_INDEPENDENT:        1.492
REMARK UNBOUND:                -1.261
REMARK  5 active torsions:
REMARK  status: ('A' for Active; 'I' for Inactive)
REMARK       I    between atoms: C_2  and  N_3 
REMARK    1  A    between atoms: C_2  and  C_12 
REMARK    2  A    between atoms: N_3  and  O_4 
REMARK    3  A    between atoms: O_4  and  C_5 
REMARK    4  A    between atoms: C_5  and  C_6 
REMARK       I    between atoms: C_12  and  N_14 
REMARK    5  A    between atoms: N_14  and  C_15 
ROOT
ATOM      1  C   UNL d   1      25.287 -15.716  -2.174  0.00  0.00     0.316 C 
ATOM      2  O   UNL d   1      25.010 -16.444  -3.141  0.00  0.00    -0.262 OA
ATOM      3  N   UNL d   1      24.689 -15.851  -0.925  0.00  0.00    -0.319 N 
ATOM      4  H   UNL d   1      24.755 -15.115  -0.241  0.00  0.00     0.169 HD
ENDROOT
BRANCH   1   5
ATOM      5  C   UNL d   1      26.301 -14.565  -2.376  0.00  0.00     0.333 C 
ATOM      6  O   UNL d   1      26.241 -13.575  -1.626  0.00  0.00    -0.260 OA
ATOM      7  N   UNL d   1      27.216 -14.702  -3.390  0.00  0.00    -0.226 N 
ATOM      8  H   UNL d   1      27.279 -15.471  -4.040  0.00  0.00     0.198 HD
BRANCH   7   9
ATOM      9  O   UNL d   1      28.106 -13.606  -3.570  0.00  0.00    -0.273 OA
BRANCH   9  10
ATOM     10  C   UNL d   1      27.909 -13.030  -4.860  0.00  0.00     0.240 C 
BRANCH  10  11
ATOM     11  C   UNL d   1      26.856 -11.954  -4.853  0.00  0.00    -0.032 A 
ATOM     12  C   UNL d   1      26.331 -11.480  -6.064  0.00  0.00     0.009 A 
ATOM     13  C   UNL d   1      25.545 -10.329  -6.091  0.00  0.00     0.001 A 
ATOM     14  C   UNL d   1      25.192  -9.698  -4.901  0.00  0.00     0.000 A 
ATOM     15  C   UNL d   1      25.657 -10.195  -3.684  0.00  0.00     0.001 A 
ATOM     16  C   UNL d   1      26.492 -11.315  -3.660  0.00  0.00     0.009 A 
ENDBRANCH  10  11
ENDBRANCH   9  10
ENDBRANCH   7   9
ENDBRANCH   1   5
BRANCH   3  17
ATOM     17  C   UNL d   1      23.808 -16.907  -0.598  0.00  0.00     0.036 C 
ATOM     18  C   UNL d   1      24.021 -17.626   0.595  0.00  0.00     0.030 C 
ATOM     19  C   UNL d   1      23.071 -18.574   0.984  0.00  0.00     0.011 C 
ATOM     20  C   UNL d   1      22.012 -18.788   0.107  0.00  0.00    -0.029 C 
ATOM     21  C   UNL d   1      22.090 -18.458  -1.240  0.00  0.00     0.036 C 
ATOM     22  C   UNL d   1      20.562 -19.144   0.312  0.00  0.00     0.135 C 
ATOM     23  C   UNL d   1      22.784 -17.293  -1.490  0.00  0.00     0.046 C 
ATOM     24  C   UNL d   1      20.808 -19.013  -1.831  0.00  0.00     0.232 C 
ATOM     25  O   UNL d   1      20.602 -20.069  -2.402  0.00  0.00    -0.274 OA
ATOM     26  N   UNL d   1      19.905 -18.575  -0.896  0.00  0.00    -0.254 NA
ATOM     27  H   UNL d   1      19.870 -17.563  -1.074  0.00  0.00     0.131 HD
ENDBRANCH   3  17
TORSDOF 5
ENDMDL
MODEL 2
REMARK VINA RESULT:   -26.271      1.215      2.041
REMARK INTER + INTRA:         -28.519
REMARK INTER:                 -27.762
REMARK INTRA:                  -0.757
REMARK CONF_INDEPENDENT:        1.492
REMARK UNBOUND:                -0.757
REMARK  5 active torsions:
REMARK  status: ('A' for Active; 'I' for Inactive)
REMARK       I    between atoms: C_2  and  N_3 
REMARK    1  A    between atoms: C_2  and  C_12 
REMARK    2  A    between atoms: N_3  and  O_4 
REMARK    3  A    between atoms: O_4  and  C_5 
REMARK    4  A    between atoms: C_5  and  C_6 
REMARK       I    between atoms: C_12  and  N_14 
REMARK    5  A    between atoms: N_14  and  C_15 
ROOT
ATOM      1  C   UNL d   1      25.347 -15.784  -2.184  0.00  0.00     0.316 C 
ATOM      2  O   UNL d   1      25.119 -16.558  -3.127  0.00  0.00    -0.262 OA
ATOM      3  N   UNL d   1      24.697 -15.870  -0.956  0.00  0.00    -0.319 N 
ATOM      4  H   UNL d   1      24.727 -15.104  -0.304  0.00  0.00     0.169 HD
ENDROOT
BRANCH   1   5
ATOM      5  C   UNL d   1      26.357 -14.631  -2.393  0.00  0.00     0.333 C 
ATOM      6  O   UNL d   1      27.482 -14.716  -1.870  0.00  0.00    -0.260 OA
ATOM      7  N   UNL d   1      25.945 -13.561  -3.149  0.00  0.00    -0.226 N 
ATOM      8  H   UNL d   1      25.033 -13.437  -3.563  0.00  0.00     0.198 HD
BRANCH   7   9
ATOM      9  O   UNL d   1      26.887 -12.503  -3.286  0.00  0.00    -0.273 OA
BRANCH   9  10
ATOM     10  C   UNL d   1      26.482 -11.629  -4.338  0.00  0.00     0.240 C 
BRANCH  10  11
ATOM     11  C   UNL d   1      27.223 -11.895  -5.621  0.00  0.00    -0.032 A 
ATOM     12  C   UNL d   1      27.655 -13.195  -5.924  0.00  0.00     0.009 A 
ATOM     13  C   UNL d   1      28.545 -13.416  -6.975  0.00  0.00     0.001 A 
ATOM     14  C   UNL d   1      28.932 -12.359  -7.795  0.00  0.00     0.000 A 
ATOM     15  C   UNL d   1      28.461 -11.072  -7.542  0.00  0.00     0.001 A 
ATOM     16  C   UNL d   1      27.615 -10.838  -6.455  0.00  0.00     0.009 A 
ENDBRANCH  10  11
ENDBRANCH   9  10
ENDBRANCH   7   9
ENDBRANCH   1   5
BRANCH   3  17
ATOM     17  C   UNL d   1      23.814 -16.921  -0.619  0.00  0.00     0.036 C 
ATOM     18  C   UNL d   1      24.027 -17.633   0.577  0.00  0.00     0.030 C 
ATOM     19  C   UNL d   1      23.076 -18.575   0.975  0.00  0.00     0.011 C 
ATOM     20  C   UNL d   1      22.014 -18.791   0.102  0.00  0.00    -0.029 C 
ATOM     21  C   UNL d   1      22.088 -18.470  -1.246  0.00  0.00     0.036 C 
ATOM     22  C   UNL d   1      20.563 -19.140   0.314  0.00  0.00     0.135 C 
ATOM     23  C   UNL d   1      22.785 -17.309  -1.506  0.00  0.00     0.046 C 
ATOM     24  C   UNL d   1      20.802 -19.024  -1.830  0.00  0.00     0.232 C 
ATOM     25  O   UNL d   1      20.590 -20.082  -2.393  0.00  0.00    -0.274 OA
ATOM     26  N   UNL d   1      19.904 -18.577  -0.895  0.00  0.00    -0.254 NA
ATOM     27  H   UNL d   1      19.872 -17.566  -1.079  0.00  0.00     0.131 HD
ENDBRANCH   3  17
TORSDOF 5
ENDMDL
MODEL 3
REMARK VINA RESULT:   -26.142      0.852      1.517
REMARK INTER + INTRA:         -28.843
REMARK INTER:                 -27.634
REMARK INTRA:                  -1.209
REMARK CONF_INDEPENDENT:        1.492
REMARK UNBOUND:                -1.209
REMARK  5 active torsions:
REMARK  status: ('A' for Active; 'I' for Inactive)
REMARK       I    between atoms: C_2  and  N_3 
REMARK    1  A    between atoms: C_2  and  C_12 
REMARK    2  A    between atoms: N_3  and  O_4 
REMARK    3  A    between atoms: O_4  and  C_5 
REMARK    4  A    between atoms: C_5  and  C_6 
REMARK       I    between atoms: C_12  and  N_14 
REMARK    5  A    between atoms: N_14  and  C_15 
ROOT
ATOM      1  C   UNL d   1      25.318 -15.770  -2.220  0.00  0.00     0.316 C 
ATOM      2  O   UNL d   1      25.056 -16.520  -3.173  0.00  0.00    -0.262 OA
ATOM      3  N   UNL d   1      24.703 -15.879  -0.976  0.00  0.00    -0.319 N 
ATOM      4  H   UNL d   1      24.759 -15.129  -0.308  0.00  0.00     0.169 HD
ENDROOT
BRANCH   1   5
ATOM      5  C   UNL d   1      26.333 -14.622  -2.432  0.00  0.00     0.333 C 
ATOM      6  O   UNL d   1      26.621 -13.890  -1.469  0.00  0.00    -0.260 OA
ATOM      7  N   UNL d   1      26.860 -14.471  -3.691  0.00  0.00    -0.226 N 
ATOM      8  H   UNL d   1      26.630 -15.020  -4.506  0.00  0.00     0.198 HD
BRANCH   7   9
ATOM      9  O   UNL d   1      27.758 -13.380  -3.857  0.00  0.00    -0.273 OA
BRANCH   9  10
ATOM     10  C   UNL d   1      27.023 -12.170  -4.025  0.00  0.00     0.240 C 
BRANCH  10  11
ATOM     11  C   UNL d   1      27.088 -11.650  -5.436  0.00  0.00    -0.032 A 
ATOM     12  C   UNL d   1      26.171 -10.681  -5.868  0.00  0.00     0.009 A 
ATOM     13  C   UNL d   1      26.059 -10.368  -7.223  0.00  0.00     0.001 A 
ATOM     14  C   UNL d   1      26.930 -10.944  -8.145  0.00  0.00     0.000 A 
ATOM     15  C   UNL d   1      27.888 -11.862  -7.719  0.00  0.00     0.001 A 
ATOM     16  C   UNL d   1      27.964 -12.219  -6.371  0.00  0.00     0.009 A 
ENDBRANCH  10  11
ENDBRANCH   9  10
ENDBRANCH   7   9
ENDBRANCH   1   5
BRANCH   3  17
ATOM     17  C   UNL d   1      23.820 -16.930  -0.638  0.00  0.00     0.036 C 
ATOM     18  C   UNL d   1      24.040 -17.647   0.555  0.00  0.00     0.030 C 
ATOM     19  C   UNL d   1      23.088 -18.588   0.955  0.00  0.00     0.011 C 
ATOM     20  C   UNL d   1      22.020 -18.799   0.088  0.00  0.00    -0.029 C 
ATOM     21  C   UNL d   1      22.087 -18.472  -1.260  0.00  0.00     0.036 C 
ATOM     22  C   UNL d   1      20.570 -19.146   0.308  0.00  0.00     0.135 C 
ATOM     23  C   UNL d   1      22.785 -17.312  -1.519  0.00  0.00     0.046 C 
ATOM     24  C   UNL d   1      20.796 -19.021  -1.838  0.00  0.00     0.232 C 
ATOM     25  O   UNL d   1      20.579 -20.077  -2.404  0.00  0.00    -0.274 OA
ATOM     26  N   UNL d   1      19.905 -18.576  -0.895  0.00  0.00    -0.254 NA
ATOM     27  H   UNL d   1      19.874 -17.564  -1.075  0.00  0.00     0.131 HD
ENDBRANCH   3  17
TORSDOF 5
ENDMDL
MODEL 4
REMARK VINA RESULT:   -26.115      1.506      1.965
REMARK INTER + INTRA:         -28.925
REMARK INTER:                 -27.607
REMARK INTRA:                  -1.318
REMARK CONF_INDEPENDENT:        1.492
REMARK UNBOUND:                -1.318
REMARK  5 active torsions:
REMARK  status: ('A' for Active; 'I' for Inactive)
REMARK       I    between atoms: C_2  and  N_3 
REMARK    1  A    between atoms: C_2  and  C_12 
REMARK    2  A    between atoms: N_3  and  O_4 
REMARK    3  A    between atoms: O_4  and  C_5 
REMARK    4  A    between atoms: C_5  and  C_6 
REMARK       I    between atoms: C_12  and  N_14 
REMARK    5  A    between atoms: N_14  and  C_15 
ROOT
ATOM      1  C   UNL d   1      26.130 -16.068  -0.857  0.00  0.00     0.316 C 
ATOM      2  O   UNL d   1      26.691 -17.087  -0.423  0.00  0.00    -0.262 OA
ATOM      3  N   UNL d   1      24.759 -15.993  -1.080  0.00  0.00    -0.319 N 
ATOM      4  H   UNL d   1      24.369 -15.254  -1.642  0.00  0.00     0.169 HD
ENDROOT
BRANCH   1   5
ATOM      5  C   UNL d   1      26.996 -14.840  -1.224  0.00  0.00     0.333 C 
ATOM      6  O   UNL d   1      26.473 -13.713  -1.218  0.00  0.00    -0.260 OA
ATOM      7  N   UNL d   1      28.311 -15.071  -1.547  0.00  0.00    -0.226 N 
ATOM      8  H   UNL d   1      28.767 -15.969  -1.596  0.00  0.00     0.198 HD
BRANCH   7   9
ATOM      9  O   UNL d   1      29.065 -13.922  -1.918  0.00  0.00    -0.273 OA
BRANCH   9  10
ATOM     10  C   UNL d   1      29.045 -13.768  -3.336  0.00  0.00     0.240 C 
BRANCH  10  11
ATOM     11  C   UNL d   1      27.652 -13.571  -3.871  0.00  0.00    -0.032 A 
ATOM     12  C   UNL d   1      26.978 -12.362  -3.641  0.00  0.00     0.009 A 
ATOM     13  C   UNL d   1      25.615 -12.251  -3.912  0.00  0.00     0.001 A 
ATOM     14  C   UNL d   1      24.934 -13.310  -4.510  0.00  0.00     0.000 A 
ATOM     15  C   UNL d   1      25.608 -14.495  -4.801  0.00  0.00     0.001 A 
ATOM     16  C   UNL d   1      26.960 -14.628  -4.477  0.00  0.00     0.009 A 
ENDBRANCH  10  11
ENDBRANCH   9  10
ENDBRANCH   7   9
ENDBRANCH   1   5
BRANCH   3  17
ATOM     17  C   UNL d   1      23.856 -17.017  -0.714  0.00  0.00     0.036 C 
ATOM     18  C   UNL d   1      24.075 -17.721   0.486  0.00  0.00     0.030 C 
ATOM     19  C   UNL d   1      23.108 -18.634   0.913  0.00  0.00     0.011 C 
ATOM     20  C   UNL d   1      22.023 -18.832   0.064  0.00  0.00    -0.029 C 
ATOM     21  C   UNL d   1      22.080 -18.528  -1.289  0.00  0.00     0.036 C 
ATOM     22  C   UNL d   1      20.569 -19.142   0.308  0.00  0.00     0.135 C 
ATOM     23  C   UNL d   1      22.800 -17.388  -1.576  0.00  0.00     0.046 C 
ATOM     24  C   UNL d   1      20.768 -19.055  -1.842  0.00  0.00     0.232 C 
ATOM     25  O   UNL d   1      20.519 -20.114  -2.388  0.00  0.00    -0.274 OA
ATOM     26  N   UNL d   1      19.901 -18.575  -0.894  0.00  0.00    -0.254 NA
ATOM     27  H   UNL d   1      19.890 -17.565  -1.089  0.00  0.00     0.131 HD
ENDBRANCH   3  17
TORSDOF 5
ENDMDL
MODEL 5
REMARK VINA RESULT:   -26.098      2.239      3.776
REMARK INTER + INTRA:         -28.931
REMARK INTER:                 -27.589
REMARK INTRA:                  -1.342
REMARK CONF_INDEPENDENT:        1.492
REMARK UNBOUND:                -1.342
REMARK  5 active torsions:
REMARK  status: ('A' for Active; 'I' for Inactive)
REMARK       I    between atoms: C_2  and  N_3 
REMARK    1  A    between atoms: C_2  and  C_12 
REMARK    2  A    between atoms: N_3  and  O_4 
REMARK    3  A    between atoms: O_4  and  C_5 
REMARK    4  A    between atoms: C_5  and  C_6 
REMARK       I    between atoms: C_12  and  N_14 
REMARK    5  A    between atoms: N_14  and  C_15 
ROOT
ATOM      1  C   UNL d   1      25.449 -15.829  -2.079  0.00  0.00     0.316 C 
ATOM      2  O   UNL d   1      25.332 -16.670  -2.985  0.00  0.00    -0.262 OA
ATOM      3  N   UNL d   1      24.690 -15.856  -0.914  0.00  0.00    -0.319 N 
ATOM      4  H   UNL d   1      24.638 -15.048  -0.315  0.00  0.00     0.169 HD
ENDROOT
BRANCH   1   5
ATOM      5  C   UNL d   1      26.444 -14.660  -2.273  0.00  0.00     0.333 C 
ATOM      6  O   UNL d   1      26.536 -13.797  -1.384  0.00  0.00    -0.260 OA
ATOM      7  N   UNL d   1      27.172 -14.639  -3.437  0.00  0.00    -0.226 N 
ATOM      8  H   UNL d   1      27.105 -15.299  -4.197  0.00  0.00     0.198 HD
BRANCH   7   9
ATOM      9  O   UNL d   1      28.046 -13.527  -3.598  0.00  0.00    -0.273 OA
BRANCH   9  10
ATOM     10  C   UNL d   1      29.039 -13.831  -4.577  0.00  0.00     0.240 C 
BRANCH  10  11
ATOM     11  C   UNL d   1      29.429 -15.284  -4.566  0.00  0.00    -0.032 A 
ATOM     12  C   UNL d   1      29.840 -15.890  -3.369  0.00  0.00     0.009 A 
ATOM     13  C   UNL d   1      30.432 -17.152  -3.384  0.00  0.00     0.001 A 
ATOM     14  C   UNL d   1      30.528 -17.864  -4.577  0.00  0.00     0.000 A 
ATOM     15  C   UNL d   1      30.066 -17.298  -5.765  0.00  0.00     0.001 A 
ATOM     16  C   UNL d   1      29.525 -16.010  -5.761  0.00  0.00     0.009 A 
ENDBRANCH  10  11
ENDBRANCH   9  10
ENDBRANCH   7   9
ENDBRANCH   1   5
BRANCH   3  17
ATOM     17  C   UNL d   1      23.807 -16.911  -0.588  0.00  0.00     0.036 C 
ATOM     18  C   UNL d   1      24.015 -17.628   0.606  0.00  0.00     0.030 C 
ATOM     19  C   UNL d   1      23.063 -18.575   0.993  0.00  0.00     0.011 C 
ATOM     20  C   UNL d   1      22.007 -18.790   0.112  0.00  0.00    -0.029 C 
ATOM     21  C   UNL d   1      22.090 -18.461  -1.235  0.00  0.00     0.036 C 
ATOM     22  C   UNL d   1      20.556 -19.143   0.312  0.00  0.00     0.135 C 
ATOM     23  C   UNL d   1      22.785 -17.297  -1.484  0.00  0.00     0.046 C 
ATOM     24  C   UNL d   1      20.809 -19.015  -1.830  0.00  0.00     0.232 C 
ATOM     25  O   UNL d   1      20.604 -20.071  -2.400  0.00  0.00    -0.274 OA
ATOM     26  N   UNL d   1      19.903 -18.575  -0.898  0.00  0.00    -0.254 NA
ATOM     27  H   UNL d   1      19.870 -17.563  -1.077  0.00  0.00     0.131 HD
ENDBRANCH   3  17
TORSDOF 5
ENDMDL
MODEL 6
REMARK VINA RESULT:   -26.049      3.078      4.352
REMARK INTER + INTRA:         -29.007
REMARK INTER:                 -27.540
REMARK INTRA:                  -1.467
REMARK CONF_INDEPENDENT:        1.492
REMARK UNBOUND:                -1.467
REMARK  5 active torsions:
REMARK  status: ('A' for Active; 'I' for Inactive)
REMARK       I    between atoms: C_2  and  N_3 
REMARK    1  A    between atoms: C_2  and  C_12 
REMARK    2  A    between atoms: N_3  and  O_4 
REMARK    3  A    between atoms: O_4  and  C_5 
REMARK    4  A    between atoms: C_5  and  C_6 
REMARK       I    between atoms: C_12  and  N_14 
REMARK    5  A    between atoms: N_14  and  C_15 
ROOT
ATOM      1  C   UNL d   1      26.068 -15.927  -0.904  0.00  0.00     0.316 C 
ATOM      2  O   UNL d   1      26.659 -16.955  -0.536  0.00  0.00    -0.262 OA
ATOM      3  N   UNL d   1      24.688 -15.863  -1.071  0.00  0.00    -0.319 N 
ATOM      4  H   UNL d   1      24.267 -15.108  -1.585  0.00  0.00     0.169 HD
ENDROOT
BRANCH   1   5
ATOM      5  C   UNL d   1      26.902 -14.672  -1.253  0.00  0.00     0.333 C 
ATOM      6  O   UNL d   1      26.340 -13.712  -1.806  0.00  0.00    -0.260 OA
ATOM      7  N   UNL d   1      28.238 -14.695  -0.933  0.00  0.00    -0.226 N 
ATOM      8  H   UNL d   1      28.740 -15.463  -0.515  0.00  0.00     0.198 HD
BRANCH   7   9
ATOM      9  O   UNL d   1      28.981 -13.539  -1.305  0.00  0.00    -0.273 OA
BRANCH   9  10
ATOM     10  C   UNL d   1      29.451 -12.870  -0.136  0.00  0.00     0.240 C 
BRANCH  10  11
ATOM     11  C   UNL d   1      28.732 -13.317   1.109  0.00  0.00    -0.032 A 
ATOM     12  C   UNL d   1      27.420 -12.887   1.353  0.00  0.00     0.009 A 
ATOM     13  C   UNL d   1      26.831 -13.087   2.601  0.00  0.00     0.001 A 
ATOM     14  C   UNL d   1      27.507 -13.808   3.583  0.00  0.00     0.000 A 
ATOM     15  C   UNL d   1      28.789 -14.295   3.331  0.00  0.00     0.001 A 
ATOM     16  C   UNL d   1      29.403 -14.046   2.101  0.00  0.00     0.009 A 
ENDBRANCH  10  11
ENDBRANCH   9  10
ENDBRANCH   7   9
ENDBRANCH   1   5
BRANCH   3  17
ATOM     17  C   UNL d   1      23.815 -16.915  -0.713  0.00  0.00     0.036 C 
ATOM     18  C   UNL d   1      24.058 -17.628   0.478  0.00  0.00     0.030 C 
ATOM     19  C   UNL d   1      23.117 -18.571   0.898  0.00  0.00     0.011 C 
ATOM     20  C   UNL d   1      22.034 -18.788   0.051  0.00  0.00    -0.029 C 
ATOM     21  C   UNL d   1      22.076 -18.466  -1.299  0.00  0.00     0.036 C 
ATOM     22  C   UNL d   1      20.589 -19.139   0.298  0.00  0.00     0.135 C 
ATOM     23  C   UNL d   1      22.765 -17.304  -1.575  0.00  0.00     0.046 C 
ATOM     24  C   UNL d   1      20.776 -19.021  -1.852  0.00  0.00     0.232 C 
ATOM     25  O   UNL d   1      20.552 -20.079  -2.410  0.00  0.00    -0.274 OA
ATOM     26  N   UNL d   1      19.901 -18.575  -0.895  0.00  0.00    -0.254 NA
ATOM     27  H   UNL d   1      19.863 -17.564  -1.077  0.00  0.00     0.131 HD
ENDBRANCH   3  17
TORSDOF 5
ENDMDL
MODEL 7
REMARK VINA RESULT:   -25.754      2.432      3.738
REMARK INTER + INTRA:         -28.588
REMARK INTER:                 -27.245
REMARK INTRA:                  -1.343
REMARK CONF_INDEPENDENT:        1.492
REMARK UNBOUND:                -1.343
REMARK  5 active torsions:
REMARK  status: ('A' for Active; 'I' for Inactive)
REMARK       I    between atoms: C_2  and  N_3 
REMARK    1  A    between atoms: C_2  and  C_12 
REMARK    2  A    between atoms: N_3  and  O_4 
REMARK    3  A    between atoms: O_4  and  C_5 
REMARK    4  A    between atoms: C_5  and  C_6 
REMARK       I    between atoms: C_12  and  N_14 
REMARK    5  A    between atoms: N_14  and  C_15 
ROOT
ATOM      1  C   UNL d   1      25.322 -15.770  -2.218  0.00  0.00     0.316 C 
ATOM      2  O   UNL d   1      25.101 -16.550  -3.158  0.00  0.00    -0.262 OA
ATOM      3  N   UNL d   1      24.670 -15.854  -0.992  0.00  0.00    -0.319 N 
ATOM      4  H   UNL d   1      24.693 -15.085  -0.343  0.00  0.00     0.169 HD
ENDROOT
BRANCH   1   5
ATOM      5  C   UNL d   1      26.325 -14.611  -2.431  0.00  0.00     0.333 C 
ATOM      6  O   UNL d   1      26.143 -13.541  -1.826  0.00  0.00    -0.260 OA
ATOM      7  N   UNL d   1      27.369 -14.833  -3.295  0.00  0.00    -0.226 N 
ATOM      8  H   UNL d   1      27.535 -15.672  -3.830  0.00  0.00     0.198 HD
BRANCH   7   9
ATOM      9  O   UNL d   1      28.247 -13.731  -3.497  0.00  0.00    -0.273 OA
BRANCH   9  10
ATOM     10  C   UNL d   1      29.340 -13.811  -2.584  0.00  0.00     0.240 C 
BRANCH  10  11
ATOM     11  C   UNL d   1      29.139 -14.878  -1.541  0.00  0.00    -0.032 A 
ATOM     12  C   UNL d   1      29.189 -16.231  -1.905  0.00  0.00     0.009 A 
ATOM     13  C   UNL d   1      28.768 -17.218  -1.014  0.00  0.00     0.001 A 
ATOM     14  C   UNL d   1      28.391 -16.873   0.281  0.00  0.00     0.000 A 
ATOM     15  C   UNL d   1      28.397 -15.535   0.675  0.00  0.00     0.001 A 
ATOM     16  C   UNL d   1      28.763 -14.540  -0.234  0.00  0.00     0.009 A 
ENDBRANCH  10  11
ENDBRANCH   9  10
ENDBRANCH   7   9
ENDBRANCH   1   5
BRANCH   3  17
ATOM     17  C   UNL d   1      23.794 -16.909  -0.651  0.00  0.00     0.036 C 
ATOM     18  C   UNL d   1      24.021 -17.625   0.541  0.00  0.00     0.030 C 
ATOM     19  C   UNL d   1      23.076 -18.572   0.944  0.00  0.00     0.011 C 
ATOM     20  C   UNL d   1      22.006 -18.789   0.080  0.00  0.00    -0.029 C 
ATOM     21  C   UNL d   1      22.068 -18.461  -1.268  0.00  0.00     0.036 C 
ATOM     22  C   UNL d   1      20.559 -19.143   0.304  0.00  0.00     0.135 C 
ATOM     23  C   UNL d   1      22.758 -17.297  -1.529  0.00  0.00     0.046 C 
ATOM     24  C   UNL d   1      20.778 -19.018  -1.842  0.00  0.00     0.232 C 
ATOM     25  O   UNL d   1      20.565 -20.074  -2.407  0.00  0.00    -0.274 OA
ATOM     26  N   UNL d   1      19.887 -18.577  -0.897  0.00  0.00    -0.254 NA
ATOM     27  H   UNL d   1      19.850 -17.566  -1.077  0.00  0.00     0.131 HD
ENDBRANCH   3  17
TORSDOF 5
ENDMDL
MODEL 8
REMARK VINA RESULT:   -24.767      2.271      2.832
REMARK INTER + INTRA:         -27.191
REMARK INTER:                 -26.259
REMARK INTRA:                  -0.933
REMARK CONF_INDEPENDENT:        1.492
REMARK UNBOUND:                -0.933
REMARK  5 active torsions:
REMARK  status: ('A' for Active; 'I' for Inactive)
REMARK       I    between atoms: C_2  and  N_3 
REMARK    1  A    between atoms: C_2  and  C_12 
REMARK    2  A    between atoms: N_3  and  O_4 
REMARK    3  A    between atoms: O_4  and  C_5 
REMARK    4  A    between atoms: C_5  and  C_6 
REMARK       I    between atoms: C_12  and  N_14 
REMARK    5  A    between atoms: N_14  and  C_15 
ROOT
ATOM      1  C   UNL d   1      26.056 -15.925  -0.933  0.00  0.00     0.316 C 
ATOM      2  O   UNL d   1      26.646 -16.920  -0.482  0.00  0.00    -0.262 OA
ATOM      3  N   UNL d   1      24.684 -15.895  -1.165  0.00  0.00    -0.319 N 
ATOM      4  H   UNL d   1      24.276 -15.176  -1.738  0.00  0.00     0.169 HD
ENDROOT
BRANCH   1   5
ATOM      5  C   UNL d   1      26.885 -14.675  -1.310  0.00  0.00     0.333 C 
ATOM      6  O   UNL d   1      26.625 -14.079  -2.369  0.00  0.00    -0.260 OA
ATOM      7  N   UNL d   1      27.881 -14.295  -0.444  0.00  0.00    -0.226 N 
ATOM      8  H   UNL d   1      28.147 -14.767   0.407  0.00  0.00     0.198 HD
BRANCH   7   9
ATOM      9  O   UNL d   1      28.649 -13.165  -0.845  0.00  0.00    -0.273 OA
BRANCH   9  10
ATOM     10  C   UNL d   1      28.312 -12.040  -0.035  0.00  0.00     0.240 C 
BRANCH  10  11
ATOM     11  C   UNL d   1      28.357 -10.746  -0.802  0.00  0.00    -0.032 A 
ATOM     12  C   UNL d   1      29.008  -9.631  -0.255  0.00  0.00     0.009 A 
ATOM     13  C   UNL d   1      28.853  -8.370  -0.832  0.00  0.00     0.001 A 
ATOM     14  C   UNL d   1      28.133  -8.229  -2.015  0.00  0.00     0.000 A 
ATOM     15  C   UNL d   1      27.533  -9.341  -2.603  0.00  0.00     0.001 A 
ATOM     16  C   UNL d   1      27.639 -10.595  -1.996  0.00  0.00     0.009 A 
ENDBRANCH  10  11
ENDBRANCH   9  10
ENDBRANCH   7   9
ENDBRANCH   1   5
BRANCH   3  17
ATOM     17  C   UNL d   1      23.812 -16.943  -0.791  0.00  0.00     0.036 C 
ATOM     18  C   UNL d   1      24.075 -17.659   0.393  0.00  0.00     0.030 C 
ATOM     19  C   UNL d   1      23.137 -18.597   0.831  0.00  0.00     0.011 C 
ATOM     20  C   UNL d   1      22.036 -18.806   0.006  0.00  0.00    -0.029 C 
ATOM     21  C   UNL d   1      22.052 -18.481  -1.344  0.00  0.00     0.036 C 
ATOM     22  C   UNL d   1      20.595 -19.148   0.282  0.00  0.00     0.135 C 
ATOM     23  C   UNL d   1      22.742 -17.323  -1.632  0.00  0.00     0.046 C 
ATOM     24  C   UNL d   1      20.738 -19.028  -1.871  0.00  0.00     0.232 C 
ATOM     25  O   UNL d   1      20.496 -20.084  -2.426  0.00  0.00    -0.274 OA
ATOM     26  N   UNL d   1      19.885 -18.578  -0.895  0.00  0.00    -0.254 NA
ATOM     27  H   UNL d   1      19.850 -17.567  -1.075  0.00  0.00     0.131 HD
ENDBRANCH   3  17
TORSDOF 5
ENDMDL
MODEL 9
REMARK VINA RESULT:   -23.859      3.212      4.132
REMARK INTER + INTRA:         -26.307
REMARK INTER:                 -25.350
REMARK INTRA:                  -0.956
REMARK CONF_INDEPENDENT:        1.492
REMARK UNBOUND:                -0.956
REMARK  5 active torsions:
REMARK  status: ('A' for Active; 'I' for Inactive)
REMARK       I    between atoms: C_2  and  N_3 
REMARK    1  A    between atoms: C_2  and  C_12 
REMARK    2  A    between atoms: N_3  and  O_4 
REMARK    3  A    between atoms: O_4  and  C_5 
REMARK    4  A    between atoms: C_5  and  C_6 
REMARK       I    between atoms: C_12  and  N_14 
REMARK    5  A    between atoms: N_14  and  C_15 
ROOT
ATOM      1  C   UNL d   1      26.020 -15.981  -0.929  0.00  0.00     0.316 C 
ATOM      2  O   UNL d   1      26.602 -16.993  -0.507  0.00  0.00    -0.262 OA
ATOM      3  N   UNL d   1      24.646 -15.928  -1.143  0.00  0.00    -0.319 N 
ATOM      4  H   UNL d   1      24.240 -15.192  -1.696  0.00  0.00     0.169 HD
ENDROOT
BRANCH   1   5
ATOM      5  C   UNL d   1      26.862 -14.735  -1.292  0.00  0.00     0.333 C 
ATOM      6  O   UNL d   1      26.521 -14.044  -2.267  0.00  0.00    -0.260 OA
ATOM      7  N   UNL d   1      27.957 -14.464  -0.508  0.00  0.00    -0.226 N 
ATOM      8  H   UNL d   1      28.287 -15.015   0.270  0.00  0.00     0.198 HD
BRANCH   7   9
ATOM      9  O   UNL d   1      28.729 -13.333  -0.897  0.00  0.00    -0.273 OA
BRANCH   9  10
ATOM     10  C   UNL d   1      29.619 -13.696  -1.950  0.00  0.00     0.240 C 
BRANCH  10  11
ATOM     11  C   UNL d   1      31.041 -13.291  -1.665  0.00  0.00    -0.032 A 
ATOM     12  C   UNL d   1      31.991 -13.296  -2.697  0.00  0.00     0.009 A 
ATOM     13  C   UNL d   1      33.348 -13.162  -2.407  0.00  0.00     0.001 A 
ATOM     14  C   UNL d   1      33.762 -12.920  -1.100  0.00  0.00     0.000 A 
ATOM     15  C   UNL d   1      32.821 -12.851  -0.073  0.00  0.00     0.001 A 
ATOM     16  C   UNL d   1      31.466 -13.042  -0.353  0.00  0.00     0.009 A 
ENDBRANCH  10  11
ENDBRANCH   9  10
ENDBRANCH   7   9
ENDBRANCH   1   5
BRANCH   3  17
ATOM     17  C   UNL d   1      23.765 -16.971  -0.779  0.00  0.00     0.036 C 
ATOM     18  C   UNL d   1      24.020 -17.700   0.399  0.00  0.00     0.030 C 
ATOM     19  C   UNL d   1      23.074 -18.634   0.827  0.00  0.00     0.011 C 
ATOM     20  C   UNL d   1      21.972 -18.826   0.000  0.00  0.00    -0.029 C 
ATOM     21  C   UNL d   1      21.992 -18.489  -1.347  0.00  0.00     0.036 C 
ATOM     22  C   UNL d   1      20.527 -19.158   0.272  0.00  0.00     0.135 C 
ATOM     23  C   UNL d   1      22.692 -17.335  -1.624  0.00  0.00     0.046 C 
ATOM     24  C   UNL d   1      20.674 -19.019  -1.880  0.00  0.00     0.232 C 
ATOM     25  O   UNL d   1      20.423 -20.068  -2.445  0.00  0.00    -0.274 OA
ATOM     26  N   UNL d   1      19.824 -18.571  -0.901  0.00  0.00    -0.254 NA
ATOM     27  H   UNL d   1      19.797 -17.558  -1.072  0.00  0.00     0.131 HD
ENDBRANCH   3  17
TORSDOF 5
ENDMDL
