MODEL 1
REMARK VINA RESULT:    -7.637      0.000      0.000
REMARK INTER + INTRA:          -9.308
REMARK INTER:                  -8.830
REMARK INTRA:                  -0.478
REMARK CONF_INDEPENDENT:        1.193
REMARK UNBOUND:                -0.478
REMARK  4 active torsions:
REMARK  status: ('A' for Active; 'I' for Inactive)
REMARK    1  A    between atoms: C_4  and  N_5 
REMARK       I    between atoms: N_5  and  C_6 
REMARK    2  A    between atoms: C_6  and  C_8 
REMARK    3  A    between atoms: C_11  and  C_12 
REMARK    4  A    between atoms: C_12  and  N_13 
ROOT
ATOM      1  N   UNL d   1      22.508 -17.764  -0.851  0.00  0.00    -0.323 N 
ATOM      2  C   UNL d   1      23.823 -17.849  -0.402  0.00  0.00     0.256 C 
ATOM      3  O   UNL d   1      24.269 -18.631   0.442  0.00  0.00    -0.267 OA
ATOM      4  H   UNL d   1      22.288 -17.102  -1.585  0.00  0.00     0.169 HD
ENDROOT
BRANCH   2   5
ATOM      5  C   UNL d   1      24.837 -16.925  -0.954  0.00  0.00     0.032 A 
ATOM      6  C   UNL d   1      24.404 -15.945  -1.862  0.00  0.00     0.018 A 
ATOM      7  C   UNL d   1      25.324 -15.191  -2.600  0.00  0.00     0.015 A 
ATOM      8  C   UNL d   1      26.700 -15.344  -2.389  0.00  0.00     0.001 A 
ATOM      9  C   UNL d   1      27.119 -16.348  -1.489  0.00  0.00     0.015 A 
ATOM     10  C   UNL d   1      26.199 -17.137  -0.779  0.00  0.00     0.018 A 
BRANCH   8  11
ATOM     11  C   UNL d   1      27.695 -14.435  -3.059  0.00  0.00     0.104 C 
ATOM     12  S   UNL d   1      27.988 -14.356  -4.709  0.00  0.00    -0.060 SA
BRANCH  11  13
ATOM     13  N   UNL d   1      28.483 -13.629  -2.274  0.00  0.00    -0.390 N 
ATOM     14  H   UNL d   1      28.822 -13.847  -1.348  0.00  0.00     0.157 HD
ATOM     15  H   UNL d   1      28.809 -12.754  -2.671  0.00  0.00     0.157 HD
ENDBRANCH  11  13
ENDBRANCH   8  11
ENDBRANCH   2   5
BRANCH   1  16
ATOM     16  C   UNL d   1      21.440 -18.590  -0.386  0.00  0.00     0.035 A 
ATOM     17  C   UNL d   1      21.320 -18.950   0.960  0.00  0.00     0.037 A 
ATOM     18  C   UNL d   1      20.283 -19.757   1.451  0.00  0.00    -0.043 A 
ATOM     19  C   UNL d   1      20.280 -20.073   2.920  0.00  0.00     0.049 C 
ATOM     20  C   UNL d   1      19.322 -20.221   0.555  0.00  0.00     0.017 A 
ATOM     21  C   UNL d   1      19.413 -19.879  -0.799  0.00  0.00     0.022 A 
ATOM     22 BR   UNL d   1      17.884 -21.318   1.127  0.00  0.00    -0.051 Br
ATOM     23  C   UNL d   1      20.466 -19.070  -1.270  0.00  0.00     0.031 A 
ENDBRANCH   1  16
TORSDOF 4
ENDMDL
MODEL 2
REMARK VINA RESULT:    -7.199      4.884      8.713
REMARK INTER + INTRA:          -8.831
REMARK INTER:                  -8.392
REMARK INTRA:                  -0.439
REMARK CONF_INDEPENDENT:        1.193
REMARK UNBOUND:                -0.439
REMARK  4 active torsions:
REMARK  status: ('A' for Active; 'I' for Inactive)
REMARK    1  A    between atoms: C_4  and  N_5 
REMARK       I    between atoms: N_5  and  C_6 
REMARK    2  A    between atoms: C_6  and  C_8 
REMARK    3  A    between atoms: C_11  and  C_12 
REMARK    4  A    between atoms: C_12  and  N_13 
ROOT
ATOM      1  N   UNL d   1      25.347 -15.417  -2.953  0.00  0.00    -0.323 N 
ATOM      2  C   UNL d   1      25.610 -16.305  -1.913  0.00  0.00     0.256 C 
ATOM      3  O   UNL d   1      26.719 -16.672  -1.516  0.00  0.00    -0.267 OA
ATOM      4  H   UNL d   1      24.384 -15.167  -3.145  0.00  0.00     0.169 HD
ENDROOT
BRANCH   2   5
ATOM      5  C   UNL d   1      24.480 -16.909  -1.174  0.00  0.00     0.032 A 
ATOM      6  C   UNL d   1      24.616 -18.238  -0.744  0.00  0.00     0.018 A 
ATOM      7  C   UNL d   1      23.518 -18.951  -0.249  0.00  0.00     0.015 A 
ATOM      8  C   UNL d   1      22.274 -18.323  -0.098  0.00  0.00     0.001 A 
ATOM      9  C   UNL d   1      22.149 -16.994  -0.555  0.00  0.00     0.015 A 
ATOM     10  C   UNL d   1      23.239 -16.289  -1.093  0.00  0.00     0.018 A 
BRANCH   8  11
ATOM     11  C   UNL d   1      21.126 -19.026   0.575  0.00  0.00     0.104 C 
ATOM     12  S   UNL d   1      19.900 -19.862  -0.207  0.00  0.00    -0.060 SA
BRANCH  11  13
ATOM     13  N   UNL d   1      21.018 -18.949   1.943  0.00  0.00    -0.390 N 
ATOM     14  H   UNL d   1      20.651 -18.168   2.468  0.00  0.00     0.157 HD
ATOM     15  H   UNL d   1      21.274 -19.766   2.485  0.00  0.00     0.157 HD
ENDBRANCH  11  13
ENDBRANCH   8  11
ENDBRANCH   2   5
BRANCH   1  16
ATOM     16  C   UNL d   1      26.349 -14.780  -3.747  0.00  0.00     0.035 A 
ATOM     17  C   UNL d   1      26.127 -13.542  -4.358  0.00  0.00     0.037 A 
ATOM     18  C   UNL d   1      27.089 -12.888  -5.141  0.00  0.00    -0.043 A 
ATOM     19  C   UNL d   1      26.714 -11.564  -5.747  0.00  0.00     0.049 C 
ATOM     20  C   UNL d   1      28.328 -13.499  -5.318  0.00  0.00     0.017 A 
ATOM     21  C   UNL d   1      28.583 -14.738  -4.720  0.00  0.00     0.022 A 
ATOM     22 BR   UNL d   1      29.691 -12.690  -6.361  0.00  0.00    -0.051 Br
ATOM     23  C   UNL d   1      27.600 -15.379  -3.940  0.00  0.00     0.031 A 
ENDBRANCH   1  16
TORSDOF 4
ENDMDL
MODEL 3
REMARK VINA RESULT:    -6.836      5.019      8.453
REMARK INTER + INTRA:          -8.518
REMARK INTER:                  -8.029
REMARK INTRA:                  -0.488
REMARK CONF_INDEPENDENT:        1.193
REMARK UNBOUND:                -0.488
REMARK  4 active torsions:
REMARK  status: ('A' for Active; 'I' for Inactive)
REMARK    1  A    between atoms: C_4  and  N_5 
REMARK       I    between atoms: N_5  and  C_6 
REMARK    2  A    between atoms: C_6  and  C_8 
REMARK    3  A    between atoms: C_11  and  C_12 
REMARK    4  A    between atoms: C_12  and  N_13 
ROOT
ATOM      1  N   UNL d   1      26.545 -17.176   0.049  0.00  0.00    -0.323 N 
ATOM      2  C   UNL d   1      25.513 -16.787  -0.802  0.00  0.00     0.256 C 
ATOM      3  O   UNL d   1      25.594 -16.008  -1.756  0.00  0.00    -0.267 OA
ATOM      4  H   UNL d   1      26.347 -17.862   0.768  0.00  0.00     0.169 HD
ENDROOT
BRANCH   2   5
ATOM      5  C   UNL d   1      24.153 -17.328  -0.585  0.00  0.00     0.032 A 
ATOM      6  C   UNL d   1      24.036 -18.682  -0.234  0.00  0.00     0.018 A 
ATOM      7  C   UNL d   1      22.791 -19.322  -0.240  0.00  0.00     0.015 A 
ATOM      8  C   UNL d   1      21.623 -18.601  -0.520  0.00  0.00     0.001 A 
ATOM      9  C   UNL d   1      21.761 -17.247  -0.892  0.00  0.00     0.015 A 
ATOM     10  C   UNL d   1      23.014 -16.612  -0.931  0.00  0.00     0.018 A 
BRANCH   8  11
ATOM     11  C   UNL d   1      20.266 -19.235  -0.379  0.00  0.00     0.104 C 
ATOM     12  S   UNL d   1      19.954 -20.729   0.318  0.00  0.00    -0.060 SA
BRANCH  11  13
ATOM     13  N   UNL d   1      19.177 -18.582  -0.905  0.00  0.00    -0.390 N 
ATOM     14  H   UNL d   1      19.091 -17.587  -1.049  0.00  0.00     0.157 HD
ATOM     15  H   UNL d   1      18.402 -19.147  -1.237  0.00  0.00     0.157 HD
ENDBRANCH  11  13
ENDBRANCH   8  11
ENDBRANCH   2   5
BRANCH   1  16
ATOM     16  C   UNL d   1      27.892 -16.715  -0.050  0.00  0.00     0.035 A 
ATOM     17  C   UNL d   1      28.327 -15.563   0.614  0.00  0.00     0.037 A 
ATOM     18  C   UNL d   1      29.643 -15.084   0.541  0.00  0.00    -0.043 A 
ATOM     19  C   UNL d   1      29.972 -13.829   1.298  0.00  0.00     0.049 C 
ATOM     20  C   UNL d   1      30.565 -15.791  -0.229  0.00  0.00     0.017 A 
ATOM     21  C   UNL d   1      30.162 -16.948  -0.906  0.00  0.00     0.022 A 
ATOM     22 BR   UNL d   1      32.367 -15.219  -0.388  0.00  0.00    -0.051 Br
ATOM     23  C   UNL d   1      28.833 -17.408  -0.821  0.00  0.00     0.031 A 
ENDBRANCH   1  16
TORSDOF 4
ENDMDL
MODEL 4
REMARK VINA RESULT:    -6.814      4.798      8.613
REMARK INTER + INTRA:          -8.494
REMARK INTER:                  -8.007
REMARK INTRA:                  -0.488
REMARK CONF_INDEPENDENT:        1.193
REMARK UNBOUND:                -0.488
REMARK  4 active torsions:
REMARK  status: ('A' for Active; 'I' for Inactive)
REMARK    1  A    between atoms: C_4  and  N_5 
REMARK       I    between atoms: N_5  and  C_6 
REMARK    2  A    between atoms: C_6  and  C_8 
REMARK    3  A    between atoms: C_11  and  C_12 
REMARK    4  A    between atoms: C_12  and  N_13 
ROOT
ATOM      1  N   UNL d   1      25.922 -16.125  -2.725  0.00  0.00    -0.323 N 
ATOM      2  C   UNL d   1      25.781 -16.372  -1.362  0.00  0.00     0.256 C 
ATOM      3  O   UNL d   1      26.609 -16.137  -0.477  0.00  0.00    -0.267 OA
ATOM      4  H   UNL d   1      25.140 -16.326  -3.337  0.00  0.00     0.169 HD
ENDROOT
BRANCH   2   5
ATOM      5  C   UNL d   1      24.531 -16.986  -0.862  0.00  0.00     0.032 A 
ATOM      6  C   UNL d   1      24.565 -18.344  -0.509  0.00  0.00     0.018 A 
ATOM      7  C   UNL d   1      23.385 -19.051  -0.253  0.00  0.00     0.015 A 
ATOM      8  C   UNL d   1      22.147 -18.395  -0.266  0.00  0.00     0.001 A 
ATOM      9  C   UNL d   1      22.128 -17.036  -0.644  0.00  0.00     0.015 A 
ATOM     10  C   UNL d   1      23.307 -16.333  -0.945  0.00  0.00     0.018 A 
BRANCH   8  11
ATOM     11  C   UNL d   1      20.888 -19.103   0.158  0.00  0.00     0.104 C 
ATOM     12  S   UNL d   1      19.703 -19.689  -0.874  0.00  0.00    -0.060 SA
BRANCH  11  13
ATOM     13  N   UNL d   1      20.635 -19.248   1.501  0.00  0.00    -0.390 N 
ATOM     14  H   UNL d   1      20.060 -18.642   2.068  0.00  0.00     0.157 HD
ATOM     15  H   UNL d   1      21.010 -20.067   1.967  0.00  0.00     0.157 HD
ENDBRANCH  11  13
ENDBRANCH   8  11
ENDBRANCH   2   5
BRANCH   1  16
ATOM     16  C   UNL d   1      27.082 -15.550  -3.327  0.00  0.00     0.035 A 
ATOM     17  C   UNL d   1      28.372 -15.872  -2.895  0.00  0.00     0.037 A 
ATOM     18  C   UNL d   1      29.532 -15.329  -3.466  0.00  0.00    -0.043 A 
ATOM     19  C   UNL d   1      30.856 -15.756  -2.897  0.00  0.00     0.049 C 
ATOM     20  C   UNL d   1      29.394 -14.426  -4.517  0.00  0.00     0.017 A 
ATOM     21  C   UNL d   1      28.117 -14.081  -4.974  0.00  0.00     0.022 A 
ATOM     22 BR   UNL d   1      30.906 -13.638  -5.350  0.00  0.00    -0.051 Br
ATOM     23  C   UNL d   1      26.965 -14.637  -4.382  0.00  0.00     0.031 A 
ENDBRANCH   1  16
TORSDOF 4
ENDMDL
MODEL 5
REMARK VINA RESULT:    -6.682      4.654      8.454
REMARK INTER + INTRA:          -8.371
REMARK INTER:                  -7.876
REMARK INTRA:                  -0.496
REMARK CONF_INDEPENDENT:        1.193
REMARK UNBOUND:                -0.496
REMARK  4 active torsions:
REMARK  status: ('A' for Active; 'I' for Inactive)
REMARK    1  A    between atoms: C_4  and  N_5 
REMARK       I    between atoms: N_5  and  C_6 
REMARK    2  A    between atoms: C_6  and  C_8 
REMARK    3  A    between atoms: C_11  and  C_12 
REMARK    4  A    between atoms: C_12  and  N_13 
ROOT
ATOM      1  N   UNL d   1      23.919 -17.052  -0.547  0.00  0.00    -0.323 N 
ATOM      2  C   UNL d   1      23.260 -18.071  -1.228  0.00  0.00     0.256 C 
ATOM      3  O   UNL d   1      23.646 -18.651  -2.247  0.00  0.00    -0.267 OA
ATOM      4  H   UNL d   1      23.508 -16.695   0.307  0.00  0.00     0.169 HD
ENDROOT
BRANCH   2   5
ATOM      5  C   UNL d   1      21.951 -18.547  -0.729  0.00  0.00     0.032 A 
ATOM      6  C   UNL d   1      21.785 -18.664   0.660  0.00  0.00     0.018 A 
ATOM      7  C   UNL d   1      20.672 -19.321   1.198  0.00  0.00     0.015 A 
ATOM      8  C   UNL d   1      19.659 -19.806   0.361  0.00  0.00     0.001 A 
ATOM      9  C   UNL d   1      19.853 -19.700  -1.033  0.00  0.00     0.015 A 
ATOM     10  C   UNL d   1      20.990 -19.081  -1.579  0.00  0.00     0.018 A 
BRANCH   8  11
ATOM     11  C   UNL d   1      18.387 -20.375   0.929  0.00  0.00     0.104 C 
ATOM     12  S   UNL d   1      17.806 -20.109   2.479  0.00  0.00    -0.060 SA
BRANCH  11  13
ATOM     13  N   UNL d   1      17.645 -21.233   0.151  0.00  0.00    -0.390 N 
ATOM     14  H   UNL d   1      17.521 -22.222   0.308  0.00  0.00     0.157 HD
ATOM     15  H   UNL d   1      17.123 -20.837  -0.623  0.00  0.00     0.157 HD
ENDBRANCH  11  13
ENDBRANCH   8  11
ENDBRANCH   2   5
BRANCH   1  16
ATOM     16  C   UNL d   1      25.178 -16.500  -0.936  0.00  0.00     0.035 A 
ATOM     17  C   UNL d   1      25.320 -15.744  -2.105  0.00  0.00     0.037 A 
ATOM     18  C   UNL d   1      26.539 -15.186  -2.516  0.00  0.00    -0.043 A 
ATOM     19  C   UNL d   1      26.551 -14.403  -3.798  0.00  0.00     0.049 C 
ATOM     20  C   UNL d   1      27.664 -15.391  -1.720  0.00  0.00     0.017 A 
ATOM     21  C   UNL d   1      27.556 -16.142  -0.544  0.00  0.00     0.022 A 
ATOM     22 BR   UNL d   1      29.356 -14.675  -2.195  0.00  0.00    -0.051 Br
ATOM     23  C   UNL d   1      26.321 -16.697  -0.154  0.00  0.00     0.031 A 
ENDBRANCH   1  16
TORSDOF 4
ENDMDL
MODEL 6
REMARK VINA RESULT:    -6.623      7.144      8.956
REMARK INTER + INTRA:          -8.300
REMARK INTER:                  -7.816
REMARK INTRA:                  -0.484
REMARK CONF_INDEPENDENT:        1.193
REMARK UNBOUND:                -0.484
REMARK  4 active torsions:
REMARK  status: ('A' for Active; 'I' for Inactive)
REMARK    1  A    between atoms: C_4  and  N_5 
REMARK       I    between atoms: N_5  and  C_6 
REMARK    2  A    between atoms: C_6  and  C_8 
REMARK    3  A    between atoms: C_11  and  C_12 
REMARK    4  A    between atoms: C_12  and  N_13 
ROOT
ATOM      1  N   UNL d   1      27.851 -14.608   1.914  0.00  0.00    -0.323 N 
ATOM      2  C   UNL d   1      27.451 -13.590   2.776  0.00  0.00     0.256 C 
ATOM      3  O   UNL d   1      26.661 -12.676   2.526  0.00  0.00    -0.267 OA
ATOM      4  H   UNL d   1      28.475 -15.324   2.267  0.00  0.00     0.169 HD
ENDROOT
BRANCH   2   5
ATOM      5  C   UNL d   1      28.005 -13.543   4.147  0.00  0.00     0.032 A 
ATOM      6  C   UNL d   1      28.554 -14.724   4.672  0.00  0.00     0.018 A 
ATOM      7  C   UNL d   1      28.882 -14.825   6.028  0.00  0.00     0.015 A 
ATOM      8  C   UNL d   1      28.743 -13.718   6.877  0.00  0.00     0.001 A 
ATOM      9  C   UNL d   1      28.169 -12.547   6.339  0.00  0.00     0.015 A 
ATOM     10  C   UNL d   1      27.797 -12.456   4.987  0.00  0.00     0.018 A 
BRANCH   8  11
ATOM     11  C   UNL d   1      29.235 -13.763   8.299  0.00  0.00     0.104 C 
ATOM     12  S   UNL d   1      28.538 -12.963   9.598  0.00  0.00    -0.060 SA
BRANCH  11  13
ATOM     13  N   UNL d   1      30.382 -14.468   8.576  0.00  0.00    -0.390 N 
ATOM     14  H   UNL d   1      31.321 -14.097   8.588  0.00  0.00     0.157 HD
ATOM     15  H   UNL d   1      30.285 -15.439   8.851  0.00  0.00     0.157 HD
ENDBRANCH  11  13
ENDBRANCH   8  11
ENDBRANCH   2   5
BRANCH   1  16
ATOM     16  C   UNL d   1      27.398 -14.753   0.568  0.00  0.00     0.035 A 
ATOM     17  C   UNL d   1      26.540 -15.789   0.187  0.00  0.00     0.037 A 
ATOM     18  C   UNL d   1      26.074 -15.960  -1.124  0.00  0.00    -0.043 A 
ATOM     19  C   UNL d   1      25.162 -17.123  -1.396  0.00  0.00     0.049 C 
ATOM     20  C   UNL d   1      26.483 -15.050  -2.097  0.00  0.00     0.017 A 
ATOM     21  C   UNL d   1      27.342 -14.001  -1.750  0.00  0.00     0.022 A 
ATOM     22 BR   UNL d   1      25.905 -15.200  -3.898  0.00  0.00    -0.051 Br
ATOM     23  C   UNL d   1      27.800 -13.852  -0.426  0.00  0.00     0.031 A 
ENDBRANCH   1  16
TORSDOF 4
ENDMDL
MODEL 7
REMARK VINA RESULT:    -6.542      6.311      8.283
REMARK INTER + INTRA:          -8.196
REMARK INTER:                  -7.735
REMARK INTRA:                  -0.461
REMARK CONF_INDEPENDENT:        1.193
REMARK UNBOUND:                -0.461
REMARK  4 active torsions:
REMARK  status: ('A' for Active; 'I' for Inactive)
REMARK    1  A    between atoms: C_4  and  N_5 
REMARK       I    between atoms: N_5  and  C_6 
REMARK    2  A    between atoms: C_6  and  C_8 
REMARK    3  A    between atoms: C_11  and  C_12 
REMARK    4  A    between atoms: C_12  and  N_13 
ROOT
ATOM      1  N   UNL d   1      27.818 -14.133   2.396  0.00  0.00    -0.323 N 
ATOM      2  C   UNL d   1      27.079 -13.250   1.612  0.00  0.00     0.256 C 
ATOM      3  O   UNL d   1      26.560 -12.192   1.978  0.00  0.00    -0.267 OA
ATOM      4  H   UNL d   1      28.228 -14.947   1.954  0.00  0.00     0.169 HD
ENDROOT
BRANCH   2   5
ATOM      5  C   UNL d   1      26.854 -13.565   0.184  0.00  0.00     0.032 A 
ATOM      6  C   UNL d   1      27.020 -12.528  -0.748  0.00  0.00     0.018 A 
ATOM      7  C   UNL d   1      26.604 -12.680  -2.075  0.00  0.00     0.015 A 
ATOM      8  C   UNL d   1      26.085 -13.903  -2.521  0.00  0.00     0.001 A 
ATOM      9  C   UNL d   1      25.904 -14.927  -1.567  0.00  0.00     0.015 A 
ATOM     10  C   UNL d   1      26.280 -14.763  -0.223  0.00  0.00     0.018 A 
BRANCH   8  11
ATOM     11  C   UNL d   1      25.778 -14.132  -3.977  0.00  0.00     0.104 C 
ATOM     12  S   UNL d   1      26.585 -15.199  -4.988  0.00  0.00    -0.060 SA
BRANCH  11  13
ATOM     13  N   UNL d   1      24.793 -13.378  -4.568  0.00  0.00    -0.390 N 
ATOM     14  H   UNL d   1      24.780 -12.371  -4.647  0.00  0.00     0.157 HD
ATOM     15  H   UNL d   1      24.029 -13.868  -5.020  0.00  0.00     0.157 HD
ENDBRANCH  11  13
ENDBRANCH   8  11
ENDBRANCH   2   5
BRANCH   1  16
ATOM     16  C   UNL d   1      28.093 -13.946   3.785  0.00  0.00     0.035 A 
ATOM     17  C   UNL d   1      28.159 -12.672   4.357  0.00  0.00     0.037 A 
ATOM     18  C   UNL d   1      28.424 -12.452   5.717  0.00  0.00    -0.043 A 
ATOM     19  C   UNL d   1      28.476 -11.030   6.197  0.00  0.00     0.049 C 
ATOM     20  C   UNL d   1      28.627 -13.558   6.540  0.00  0.00     0.017 A 
ATOM     21  C   UNL d   1      28.567 -14.848   5.999  0.00  0.00     0.022 A 
ATOM     22 BR   UNL d   1      28.992 -13.360   8.391  0.00  0.00    -0.051 Br
ATOM     23  C   UNL d   1      28.304 -15.043   4.628  0.00  0.00     0.031 A 
ENDBRANCH   1  16
TORSDOF 4
ENDMDL
MODEL 8
REMARK VINA RESULT:    -6.534      4.972      8.764
REMARK INTER + INTRA:          -8.204
REMARK INTER:                  -7.727
REMARK INTRA:                  -0.477
REMARK CONF_INDEPENDENT:        1.193
REMARK UNBOUND:                -0.477
REMARK  4 active torsions:
REMARK  status: ('A' for Active; 'I' for Inactive)
REMARK    1  A    between atoms: C_4  and  N_5 
REMARK       I    between atoms: N_5  and  C_6 
REMARK    2  A    between atoms: C_6  and  C_8 
REMARK    3  A    between atoms: C_11  and  C_12 
REMARK    4  A    between atoms: C_12  and  N_13 
ROOT
ATOM      1  N   UNL d   1      27.050 -16.845  -0.548  0.00  0.00    -0.323 N 
ATOM      2  C   UNL d   1      25.889 -16.652  -1.292  0.00  0.00     0.256 C 
ATOM      3  O   UNL d   1      25.787 -16.041  -2.359  0.00  0.00    -0.267 OA
ATOM      4  H   UNL d   1      26.998 -17.409   0.293  0.00  0.00     0.169 HD
ENDROOT
BRANCH   2   5
ATOM      5  C   UNL d   1      24.610 -17.208  -0.797  0.00  0.00     0.032 A 
ATOM      6  C   UNL d   1      24.579 -18.570  -0.455  0.00  0.00     0.018 A 
ATOM      7  C   UNL d   1      23.365 -19.220  -0.205  0.00  0.00     0.015 A 
ATOM      8  C   UNL d   1      22.161 -18.505  -0.212  0.00  0.00     0.001 A 
ATOM      9  C   UNL d   1      22.208 -17.143  -0.579  0.00  0.00     0.015 A 
ATOM     10  C   UNL d   1      23.420 -16.496  -0.875  0.00  0.00     0.018 A 
BRANCH   8  11
ATOM     11  C   UNL d   1      20.869 -19.154   0.206  0.00  0.00     0.104 C 
ATOM     12  S   UNL d   1      19.642 -19.641  -0.828  0.00  0.00    -0.060 SA
BRANCH  11  13
ATOM     13  N   UNL d   1      20.623 -19.326   1.548  0.00  0.00    -0.390 N 
ATOM     14  H   UNL d   1      20.663 -20.200   2.053  0.00  0.00     0.157 HD
ATOM     15  H   UNL d   1      20.439 -18.499   2.104  0.00  0.00     0.157 HD
ENDBRANCH  11  13
ENDBRANCH   8  11
ENDBRANCH   2   5
BRANCH   1  16
ATOM     16  C   UNL d   1      28.337 -16.348  -0.913  0.00  0.00     0.035 A 
ATOM     17  C   UNL d   1      28.760 -16.309  -2.246  0.00  0.00     0.037 A 
ATOM     18  C   UNL d   1      30.016 -15.825  -2.640  0.00  0.00    -0.043 A 
ATOM     19  C   UNL d   1      30.345 -15.850  -4.106  0.00  0.00     0.049 C 
ATOM     20  C   UNL d   1      30.885 -15.357  -1.657  0.00  0.00     0.017 A 
ATOM     21  C   UNL d   1      30.493 -15.381  -0.314  0.00  0.00     0.022 A 
ATOM     22 BR   UNL d   1      32.605 -14.685  -2.095  0.00  0.00    -0.051 Br
ATOM     23  C   UNL d   1      29.227 -15.876   0.059  0.00  0.00     0.031 A 
ENDBRANCH   1  16
TORSDOF 4
ENDMDL
MODEL 9
REMARK VINA RESULT:    -6.111      4.305      6.452
REMARK INTER + INTRA:          -7.782
REMARK INTER:                  -7.304
REMARK INTRA:                  -0.478
REMARK CONF_INDEPENDENT:        1.193
REMARK UNBOUND:                -0.478
REMARK  4 active torsions:
REMARK  status: ('A' for Active; 'I' for Inactive)
REMARK    1  A    between atoms: C_4  and  N_5 
REMARK       I    between atoms: N_5  and  C_6 
REMARK    2  A    between atoms: C_6  and  C_8 
REMARK    3  A    between atoms: C_11  and  C_12 
REMARK    4  A    between atoms: C_12  and  N_13 
ROOT
ATOM      1  N   UNL d   1      27.375 -15.179  -3.429  0.00  0.00    -0.323 N 
ATOM      2  C   UNL d   1      27.301 -15.152  -4.819  0.00  0.00     0.256 C 
ATOM      3  O   UNL d   1      26.416 -15.645  -5.523  0.00  0.00    -0.267 OA
ATOM      4  H   UNL d   1      28.138 -14.691  -2.975  0.00  0.00     0.169 HD
ENDROOT
BRANCH   2   5
ATOM      5  C   UNL d   1      28.372 -14.481  -5.588  0.00  0.00     0.032 A 
ATOM      6  C   UNL d   1      27.993 -13.499  -6.517  0.00  0.00     0.018 A 
ATOM      7  C   UNL d   1      28.912 -12.988  -7.440  0.00  0.00     0.015 A 
ATOM      8  C   UNL d   1      30.254 -13.390  -7.403  0.00  0.00     0.001 A 
ATOM      9  C   UNL d   1      30.613 -14.394  -6.479  0.00  0.00     0.015 A 
ATOM     10  C   UNL d   1      29.683 -14.941  -5.579  0.00  0.00     0.018 A 
BRANCH   8  11
ATOM     11  C   UNL d   1      31.285 -12.739  -8.285  0.00  0.00     0.104 C 
ATOM     12  S   UNL d   1      32.132 -11.337  -7.925  0.00  0.00    -0.060 SA
BRANCH  11  13
ATOM     13  N   UNL d   1      31.536 -13.288  -9.520  0.00  0.00    -0.390 N 
ATOM     14  H   UNL d   1      30.861 -13.425 -10.259  0.00  0.00     0.157 HD
ATOM     15  H   UNL d   1      32.495 -13.531  -9.744  0.00  0.00     0.157 HD
ENDBRANCH  11  13
ENDBRANCH   8  11
ENDBRANCH   2   5
BRANCH   1  16
ATOM     16  C   UNL d   1      26.413 -15.804  -2.579  0.00  0.00     0.035 A 
ATOM     17  C   UNL d   1      26.781 -16.766  -1.633  0.00  0.00     0.037 A 
ATOM     18  C   UNL d   1      25.864 -17.398  -0.781  0.00  0.00    -0.043 A 
ATOM     19  C   UNL d   1      26.396 -18.420   0.184  0.00  0.00     0.049 C 
ATOM     20  C   UNL d   1      24.519 -17.049  -0.879  0.00  0.00     0.017 A 
ATOM     21  C   UNL d   1      24.116 -16.090  -1.816  0.00  0.00     0.022 A 
ATOM     22 BR   UNL d   1      23.205 -17.851   0.230  0.00  0.00    -0.051 Br
ATOM     23  C   UNL d   1      25.056 -15.471  -2.664  0.00  0.00     0.031 A 
ENDBRANCH   1  16
TORSDOF 4
ENDMDL
