MODEL 1
REMARK VINA RESULT:   -10.134      0.000      0.000
REMARK INTER + INTRA:         -13.876
REMARK INTER:                 -12.222
REMARK INTRA:                  -1.654
REMARK CONF_INDEPENDENT:        2.088
REMARK UNBOUND:                -1.654
REMARK  7 active torsions:
REMARK  status: ('A' for Active; 'I' for Inactive)
REMARK       I    between atoms: C_2  and  N_4 
REMARK    1  A    between atoms: N_4  and  C_5 
REMARK    2  A    between atoms: C_8  and  C_9 
REMARK       I    between atoms: C_9  and  N_11 
REMARK    3  A    between atoms: N_11  and  C_12 
REMARK    4  A    between atoms: C_15  and  C_16 
REMARK    5  A    between atoms: C_16  and  C_17 
REMARK    6  A    between atoms: C_17  and  N_18 
REMARK       I    between atoms: N_18  and  C_19 
REMARK    7  A    between atoms: C_19  and  C_21 
ROOT
ATOM      1  C   UNL d   1      26.305 -15.204  -4.293  0.00  0.00     0.196 A 
ATOM      2  N   UNL d   1      26.581 -15.575  -5.523  0.00  0.00    -0.123 NA
ATOM      3  N   UNL d   1      27.614 -14.825  -6.077  0.00  0.00    -0.145 NA
ATOM      4  C   UNL d   1      28.167 -14.005  -5.201  0.00  0.00     0.102 A 
ATOM      5  S   UNL d   1      27.392 -14.052  -3.660  0.00  0.00    -0.033 SA
ENDROOT
BRANCH   1   6
ATOM      6  N   UNL d   1      25.357 -15.795  -3.480  0.00  0.00    -0.300 N 
ATOM      7  C   UNL d   1      25.700 -16.480  -2.322  0.00  0.00     0.257 C 
ATOM      8  O   UNL d   1      26.857 -16.651  -1.933  0.00  0.00    -0.267 OA
ATOM      9  H   UNL d   1      24.429 -15.421  -3.600  0.00  0.00     0.171 HD
BRANCH   7  10
ATOM     10  C   UNL d   1      24.589 -17.025  -1.457  0.00  0.00     0.032 A 
ATOM     11  C   UNL d   1      24.738 -18.303  -0.878  0.00  0.00     0.019 A 
ATOM     12  C   UNL d   1      23.685 -18.924  -0.171  0.00  0.00     0.030 A 
ATOM     13  C   UNL d   1      22.471 -18.258  -0.002  0.00  0.00     0.034 A 
ATOM     14  C   UNL d   1      22.341 -16.970  -0.531  0.00  0.00     0.030 A 
ATOM     15  C   UNL d   1      23.384 -16.353  -1.240  0.00  0.00     0.019 A 
BRANCH  13  16
ATOM     16  N   UNL d   1      21.407 -18.846   0.728  0.00  0.00    -0.328 N 
ATOM     17  C   UNL d   1      20.345 -19.495   0.111  0.00  0.00     0.218 C 
ATOM     18  C   UNL d   1      19.262 -19.995   1.035  0.00  0.00     0.117 C 
ATOM     19  O   UNL d   1      20.260 -19.702  -1.100  0.00  0.00    -0.274 OA
ATOM     20  H   UNL d   1      21.501 -18.909   1.735  0.00  0.00     0.169 HD
ENDBRANCH  13  16
ENDBRANCH   7  10
ENDBRANCH   1   6
BRANCH   4  21
ATOM     21  C   UNL d   1      29.362 -13.130  -5.502  0.00  0.00     0.088 C 
BRANCH  21  22
ATOM     22  C   UNL d   1      30.315 -13.690  -6.561  0.00  0.00     0.129 C 
BRANCH  22  23
ATOM     23  N   UNL d   1      30.141 -15.105  -6.853  0.00  0.00    -0.356 N 
ATOM     24  C   UNL d   1      31.044 -16.021  -6.348  0.00  0.00     0.251 C 
ATOM     25  O   UNL d   1      32.006 -15.704  -5.644  0.00  0.00    -0.268 OA
ATOM     26  H   UNL d   1      29.320 -15.427  -7.349  0.00  0.00     0.162 HD
BRANCH  24  27
ATOM     27  C   UNL d   1      30.835 -17.451  -6.684  0.00  0.00     0.033 A 
ATOM     28  C   UNL d   1      30.443 -18.340  -5.672  0.00  0.00     0.017 A 
ATOM     29  C   UNL d   1      30.409 -19.716  -5.919  0.00  0.00     0.002 A 
ATOM     30  C   UNL d   1      30.711 -20.202  -7.191  0.00  0.00     0.019 A 
ATOM     31  C   UNL d   1      31.088 -19.313  -8.198  0.00  0.00     0.011 A 
ATOM     32 BR   UNL d   1      31.583 -19.984  -9.895  0.00  0.00    -0.051 Br
ATOM     33  C   UNL d   1      31.156 -17.939  -7.954  0.00  0.00     0.036 A 
ENDBRANCH  24  27
ENDBRANCH  22  23
ENDBRANCH  21  22
ENDBRANCH   4  21
TORSDOF 7
ENDMDL
MODEL 2
REMARK VINA RESULT:   -10.065      1.410      1.848
REMARK INTER + INTRA:         -13.403
REMARK INTER:                 -12.153
REMARK INTRA:                  -1.250
REMARK CONF_INDEPENDENT:        2.088
REMARK UNBOUND:                -1.250
REMARK  7 active torsions:
REMARK  status: ('A' for Active; 'I' for Inactive)
REMARK       I    between atoms: C_2  and  N_4 
REMARK    1  A    between atoms: N_4  and  C_5 
REMARK    2  A    between atoms: C_8  and  C_9 
REMARK       I    between atoms: C_9  and  N_11 
REMARK    3  A    between atoms: N_11  and  C_12 
REMARK    4  A    between atoms: C_15  and  C_16 
REMARK    5  A    between atoms: C_16  and  C_17 
REMARK    6  A    between atoms: C_17  and  N_18 
REMARK       I    between atoms: N_18  and  C_19 
REMARK    7  A    between atoms: C_19  and  C_21 
ROOT
ATOM      1  C   UNL d   1      26.323 -15.223  -4.618  0.00  0.00     0.196 A 
ATOM      2  N   UNL d   1      27.257 -15.727  -5.393  0.00  0.00    -0.123 NA
ATOM      3  N   UNL d   1      27.935 -14.742  -6.105  0.00  0.00    -0.145 NA
ATOM      4  C   UNL d   1      27.576 -13.523  -5.743  0.00  0.00     0.102 A 
ATOM      5  S   UNL d   1      26.322 -13.519  -4.558  0.00  0.00    -0.033 SA
ENDROOT
BRANCH   1   6
ATOM      6  N   UNL d   1      25.519 -15.956  -3.766  0.00  0.00    -0.300 N 
ATOM      7  C   UNL d   1      25.340 -15.605  -2.434  0.00  0.00     0.257 C 
ATOM      8  O   UNL d   1      25.894 -14.648  -1.888  0.00  0.00    -0.267 OA
ATOM      9  H   UNL d   1      24.842 -16.531  -4.240  0.00  0.00     0.171 HD
BRANCH   7  10
ATOM     10  C   UNL d   1      24.382 -16.422  -1.602  0.00  0.00     0.032 A 
ATOM     11  C   UNL d   1      24.728 -17.747  -1.264  0.00  0.00     0.019 A 
ATOM     12  C   UNL d   1      23.822 -18.604  -0.603  0.00  0.00     0.030 A 
ATOM     13  C   UNL d   1      22.559 -18.137  -0.238  0.00  0.00     0.034 A 
ATOM     14  C   UNL d   1      22.236 -16.808  -0.526  0.00  0.00     0.030 A 
ATOM     15  C   UNL d   1      23.133 -15.955  -1.189  0.00  0.00     0.019 A 
BRANCH  13  16
ATOM     16  N   UNL d   1      21.640 -18.967   0.453  0.00  0.00    -0.328 N 
ATOM     17  C   UNL d   1      20.592 -19.616  -0.188  0.00  0.00     0.218 C 
ATOM     18  C   UNL d   1      19.665 -20.398   0.710  0.00  0.00     0.117 C 
ATOM     19  O   UNL d   1      20.405 -19.612  -1.405  0.00  0.00    -0.274 OA
ATOM     20  H   UNL d   1      21.842 -19.197   1.418  0.00  0.00     0.169 HD
ENDBRANCH  13  16
ENDBRANCH   7  10
ENDBRANCH   1   6
BRANCH   4  21
ATOM     21  C   UNL d   1      28.205 -12.261  -6.290  0.00  0.00     0.088 C 
BRANCH  21  22
ATOM     22  C   UNL d   1      29.117 -12.474  -7.500  0.00  0.00     0.129 C 
BRANCH  22  23
ATOM     23  N   UNL d   1      29.650 -13.822  -7.636  0.00  0.00    -0.356 N 
ATOM     24  C   UNL d   1      30.758 -14.194  -6.900  0.00  0.00     0.251 C 
ATOM     25  O   UNL d   1      31.331 -13.437  -6.112  0.00  0.00    -0.268 OA
ATOM     26  H   UNL d   1      29.164 -14.508  -8.199  0.00  0.00     0.162 HD
BRANCH  24  27
ATOM     27  C   UNL d   1      31.274 -15.572  -7.082  0.00  0.00     0.033 A 
ATOM     28  C   UNL d   1      32.161 -15.837  -8.136  0.00  0.00     0.017 A 
ATOM     29  C   UNL d   1      32.525 -17.152  -8.438  0.00  0.00     0.002 A 
ATOM     30  C   UNL d   1      32.047 -18.202  -7.653  0.00  0.00     0.019 A 
ATOM     31  C   UNL d   1      31.175 -17.934  -6.598  0.00  0.00     0.011 A 
ATOM     32 BR   UNL d   1      30.461 -19.369  -5.594  0.00  0.00    -0.051 Br
ATOM     33  C   UNL d   1      30.781 -16.626  -6.307  0.00  0.00     0.036 A 
ENDBRANCH  24  27
ENDBRANCH  22  23
ENDBRANCH  21  22
ENDBRANCH   4  21
TORSDOF 7
ENDMDL
MODEL 3
REMARK VINA RESULT:    -9.719      1.104      1.405
REMARK INTER + INTRA:         -13.415
REMARK INTER:                 -11.807
REMARK INTRA:                  -1.608
REMARK CONF_INDEPENDENT:        2.088
REMARK UNBOUND:                -1.608
REMARK  7 active torsions:
REMARK  status: ('A' for Active; 'I' for Inactive)
REMARK       I    between atoms: C_2  and  N_4 
REMARK    1  A    between atoms: N_4  and  C_5 
REMARK    2  A    between atoms: C_8  and  C_9 
REMARK       I    between atoms: C_9  and  N_11 
REMARK    3  A    between atoms: N_11  and  C_12 
REMARK    4  A    between atoms: C_15  and  C_16 
REMARK    5  A    between atoms: C_16  and  C_17 
REMARK    6  A    between atoms: C_17  and  N_18 
REMARK       I    between atoms: N_18  and  C_19 
REMARK    7  A    between atoms: C_19  and  C_21 
ROOT
ATOM      1  C   UNL d   1      26.507 -15.313  -4.160  0.00  0.00     0.196 A 
ATOM      2  N   UNL d   1      26.735 -15.564  -5.430  0.00  0.00    -0.123 NA
ATOM      3  N   UNL d   1      27.808 -14.830  -5.926  0.00  0.00    -0.145 NA
ATOM      4  C   UNL d   1      28.433 -14.151  -4.980  0.00  0.00     0.102 A 
ATOM      5  S   UNL d   1      27.683 -14.314  -3.434  0.00  0.00    -0.033 SA
ENDROOT
BRANCH   1   6
ATOM      6  N   UNL d   1      25.534 -15.924  -3.393  0.00  0.00    -0.300 N 
ATOM      7  C   UNL d   1      25.806 -16.453  -2.138  0.00  0.00     0.257 C 
ATOM      8  O   UNL d   1      26.922 -16.457  -1.614  0.00  0.00    -0.267 OA
ATOM      9  H   UNL d   1      24.594 -15.668  -3.649  0.00  0.00     0.171 HD
BRANCH   7  10
ATOM     10  C   UNL d   1      24.661 -17.031  -1.342  0.00  0.00     0.032 A 
ATOM     11  C   UNL d   1      24.829 -18.285  -0.717  0.00  0.00     0.019 A 
ATOM     12  C   UNL d   1      23.757 -18.940  -0.072  0.00  0.00     0.030 A 
ATOM     13  C   UNL d   1      22.503 -18.332  -0.011  0.00  0.00     0.034 A 
ATOM     14  C   UNL d   1      22.351 -17.066  -0.584  0.00  0.00     0.030 A 
ATOM     15  C   UNL d   1      23.413 -16.415  -1.232  0.00  0.00     0.019 A 
BRANCH  13  16
ATOM     16  N   UNL d   1      21.417 -18.954   0.657  0.00  0.00    -0.328 N 
ATOM     17  C   UNL d   1      20.369 -19.560  -0.025  0.00  0.00     0.218 C 
ATOM     18  C   UNL d   1      19.260 -20.105   0.840  0.00  0.00     0.117 C 
ATOM     19  O   UNL d   1      20.315 -19.696  -1.247  0.00  0.00    -0.274 OA
ATOM     20  H   UNL d   1      21.485 -19.075   1.660  0.00  0.00     0.169 HD
ENDBRANCH  13  16
ENDBRANCH   7  10
ENDBRANCH   1   6
BRANCH   4  21
ATOM     21  C   UNL d   1      29.681 -13.331  -5.214  0.00  0.00     0.088 C 
BRANCH  21  22
ATOM     22  C   UNL d   1      30.630 -13.899  -6.271  0.00  0.00     0.129 C 
BRANCH  22  23
ATOM     23  N   UNL d   1      30.556 -15.342  -6.448  0.00  0.00    -0.356 N 
ATOM     24  C   UNL d   1      31.684 -16.041  -6.834  0.00  0.00     0.251 C 
ATOM     25  O   UNL d   1      32.776 -15.503  -7.035  0.00  0.00    -0.268 OA
ATOM     26  H   UNL d   1      29.709 -15.843  -6.208  0.00  0.00     0.162 HD
BRANCH  24  27
ATOM     27  C   UNL d   1      31.557 -17.507  -7.015  0.00  0.00     0.033 A 
ATOM     28  C   UNL d   1      31.477 -18.031  -8.315  0.00  0.00     0.017 A 
ATOM     29  C   UNL d   1      31.182 -19.383  -8.512  0.00  0.00     0.002 A 
ATOM     30  C   UNL d   1      31.021 -20.227  -7.413  0.00  0.00     0.019 A 
ATOM     31  C   UNL d   1      31.114 -19.705  -6.122  0.00  0.00     0.011 A 
ATOM     32 BR   UNL d   1      30.806 -20.835  -4.637  0.00  0.00    -0.051 Br
ATOM     33  C   UNL d   1      31.378 -18.349  -5.913  0.00  0.00     0.036 A 
ENDBRANCH  24  27
ENDBRANCH  22  23
ENDBRANCH  21  22
ENDBRANCH   4  21
TORSDOF 7
ENDMDL
MODEL 4
REMARK VINA RESULT:    -9.219      2.354      2.752
REMARK INTER + INTRA:         -13.044
REMARK INTER:                 -11.308
REMARK INTRA:                  -1.736
REMARK CONF_INDEPENDENT:        2.088
REMARK UNBOUND:                -1.736
REMARK  7 active torsions:
REMARK  status: ('A' for Active; 'I' for Inactive)
REMARK       I    between atoms: C_2  and  N_4 
REMARK    1  A    between atoms: N_4  and  C_5 
REMARK    2  A    between atoms: C_8  and  C_9 
REMARK       I    between atoms: C_9  and  N_11 
REMARK    3  A    between atoms: N_11  and  C_12 
REMARK    4  A    between atoms: C_15  and  C_16 
REMARK    5  A    between atoms: C_16  and  C_17 
REMARK    6  A    between atoms: C_17  and  N_18 
REMARK       I    between atoms: N_18  and  C_19 
REMARK    7  A    between atoms: C_19  and  C_21 
ROOT
ATOM      1  C   UNL d   1      26.183 -14.111  -3.144  0.00  0.00     0.196 A 
ATOM      2  N   UNL d   1      27.170 -13.495  -2.533  0.00  0.00    -0.123 NA
ATOM      3  N   UNL d   1      27.943 -12.744  -3.412  0.00  0.00    -0.145 NA
ATOM      4  C   UNL d   1      27.435 -12.715  -4.631  0.00  0.00     0.102 A 
ATOM      5  S   UNL d   1      26.013 -13.681  -4.785  0.00  0.00    -0.033 SA
ENDROOT
BRANCH   1   6
ATOM      6  N   UNL d   1      25.229 -14.894  -2.520  0.00  0.00    -0.300 N 
ATOM      7  C   UNL d   1      25.529 -16.139  -1.986  0.00  0.00     0.257 C 
ATOM      8  O   UNL d   1      26.640 -16.670  -2.043  0.00  0.00    -0.267 OA
ATOM      9  H   UNL d   1      24.427 -14.376  -2.198  0.00  0.00     0.171 HD
BRANCH   7  10
ATOM     10  C   UNL d   1      24.439 -16.886  -1.255  0.00  0.00     0.032 A 
ATOM     11  C   UNL d   1      24.716 -18.173  -0.746  0.00  0.00     0.019 A 
ATOM     12  C   UNL d   1      23.706 -18.975  -0.172  0.00  0.00     0.030 A 
ATOM     13  C   UNL d   1      22.403 -18.487  -0.068  0.00  0.00     0.034 A 
ATOM     14  C   UNL d   1      22.141 -17.192  -0.524  0.00  0.00     0.030 A 
ATOM     15  C   UNL d   1      23.142 -16.395  -1.102  0.00  0.00     0.019 A 
BRANCH  13  16
ATOM     16  N   UNL d   1      21.375 -19.260   0.531  0.00  0.00    -0.328 N 
ATOM     17  C   UNL d   1      20.309 -19.776  -0.195  0.00  0.00     0.218 C 
ATOM     18  C   UNL d   1      19.267 -20.510   0.613  0.00  0.00     0.117 C 
ATOM     19  O   UNL d   1      20.189 -19.694  -1.417  0.00  0.00    -0.274 OA
ATOM     20  H   UNL d   1      21.504 -19.556   1.492  0.00  0.00     0.169 HD
ENDBRANCH  13  16
ENDBRANCH   7  10
ENDBRANCH   1   6
BRANCH   4  21
ATOM     21  C   UNL d   1      28.019 -11.912  -5.770  0.00  0.00     0.088 C 
BRANCH  21  22
ATOM     22  C   UNL d   1      29.134 -12.617  -6.545  0.00  0.00     0.129 C 
BRANCH  22  23
ATOM     23  N   UNL d   1      29.742 -13.744  -5.852  0.00  0.00    -0.356 N 
ATOM     24  C   UNL d   1      29.143 -14.987  -5.915  0.00  0.00     0.251 C 
ATOM     25  O   UNL d   1      28.104 -15.205  -6.543  0.00  0.00    -0.268 OA
ATOM     26  H   UNL d   1      30.641 -13.639  -5.398  0.00  0.00     0.162 HD
BRANCH  24  27
ATOM     27  C   UNL d   1      29.791 -16.101  -5.181  0.00  0.00     0.033 A 
ATOM     28  C   UNL d   1      30.355 -17.162  -5.907  0.00  0.00     0.017 A 
ATOM     29  C   UNL d   1      30.814 -18.303  -5.244  0.00  0.00     0.002 A 
ATOM     30  C   UNL d   1      30.763 -18.366  -3.851  0.00  0.00     0.019 A 
ATOM     31  C   UNL d   1      30.214 -17.304  -3.132  0.00  0.00     0.011 A 
ATOM     32 BR   UNL d   1      30.064 -17.432  -1.251  0.00  0.00    -0.051 Br
ATOM     33  C   UNL d   1      29.723 -16.172  -3.786  0.00  0.00     0.036 A 
ENDBRANCH  24  27
ENDBRANCH  22  23
ENDBRANCH  21  22
ENDBRANCH   4  21
TORSDOF 7
ENDMDL
MODEL 5
REMARK VINA RESULT:    -8.945      3.032      3.407
REMARK INTER + INTRA:         -12.726
REMARK INTER:                 -11.033
REMARK INTRA:                  -1.693
REMARK CONF_INDEPENDENT:        2.088
REMARK UNBOUND:                -1.693
REMARK  7 active torsions:
REMARK  status: ('A' for Active; 'I' for Inactive)
REMARK       I    between atoms: C_2  and  N_4 
REMARK    1  A    between atoms: N_4  and  C_5 
REMARK    2  A    between atoms: C_8  and  C_9 
REMARK       I    between atoms: C_9  and  N_11 
REMARK    3  A    between atoms: N_11  and  C_12 
REMARK    4  A    between atoms: C_15  and  C_16 
REMARK    5  A    between atoms: C_16  and  C_17 
REMARK    6  A    between atoms: C_17  and  N_18 
REMARK       I    between atoms: N_18  and  C_19 
REMARK    7  A    between atoms: C_19  and  C_21 
ROOT
ATOM      1  C   UNL d   1      26.416 -15.236  -4.451  0.00  0.00     0.196 A 
ATOM      2  N   UNL d   1      26.807 -15.574  -5.659  0.00  0.00    -0.123 NA
ATOM      3  N   UNL d   1      27.720 -14.667  -6.188  0.00  0.00    -0.145 NA
ATOM      4  C   UNL d   1      28.085 -13.750  -5.310  0.00  0.00     0.102 A 
ATOM      5  S   UNL d   1      27.260 -13.903  -3.802  0.00  0.00    -0.033 SA
ENDROOT
BRANCH   1   6
ATOM      6  N   UNL d   1      25.547 -15.968  -3.665  0.00  0.00    -0.300 N 
ATOM      7  C   UNL d   1      25.463 -15.786  -2.291  0.00  0.00     0.257 C 
ATOM      8  O   UNL d   1      26.161 -14.997  -1.651  0.00  0.00    -0.267 OA
ATOM      9  H   UNL d   1      24.781 -16.376  -4.177  0.00  0.00     0.171 HD
BRANCH   7  10
ATOM     10  C   UNL d   1      24.428 -16.577  -1.527  0.00  0.00     0.032 A 
ATOM     11  C   UNL d   1      24.744 -17.886  -1.104  0.00  0.00     0.019 A 
ATOM     12  C   UNL d   1      23.778 -18.723  -0.504  0.00  0.00     0.030 A 
ATOM     13  C   UNL d   1      22.484 -18.251  -0.286  0.00  0.00     0.034 A 
ATOM     14  C   UNL d   1      22.186 -16.936  -0.657  0.00  0.00     0.030 A 
ATOM     15  C   UNL d   1      23.142 -16.103  -1.260  0.00  0.00     0.019 A 
BRANCH  13  16
ATOM     16  N   UNL d   1      21.503 -19.060   0.341  0.00  0.00    -0.328 N 
ATOM     17  C   UNL d   1      20.469 -19.662  -0.365  0.00  0.00     0.218 C 
ATOM     18  C   UNL d   1      19.470 -20.427   0.470  0.00  0.00     0.117 C 
ATOM     19  O   UNL d   1      20.345 -19.632  -1.589  0.00  0.00    -0.274 OA
ATOM     20  H   UNL d   1      21.647 -19.314   1.311  0.00  0.00     0.169 HD
ENDBRANCH  13  16
ENDBRANCH   7  10
ENDBRANCH   1   6
BRANCH   4  21
ATOM     21  C   UNL d   1      29.124 -12.687  -5.582  0.00  0.00     0.088 C 
BRANCH  21  22
ATOM     22  C   UNL d   1      30.494 -12.957  -4.956  0.00  0.00     0.129 C 
BRANCH  22  23
ATOM     23  N   UNL d   1      30.483 -13.889  -3.837  0.00  0.00    -0.356 N 
ATOM     24  C   UNL d   1      30.393 -15.246  -4.081  0.00  0.00     0.251 C 
ATOM     25  O   UNL d   1      30.327 -15.726  -5.215  0.00  0.00    -0.268 OA
ATOM     26  H   UNL d   1      30.625 -13.554  -2.892  0.00  0.00     0.162 HD
BRANCH  24  27
ATOM     27  C   UNL d   1      30.370 -16.155  -2.909  0.00  0.00     0.033 A 
ATOM     28  C   UNL d   1      31.356 -17.148  -2.795  0.00  0.00     0.017 A 
ATOM     29  C   UNL d   1      31.258 -18.125  -1.800  0.00  0.00     0.002 A 
ATOM     30  C   UNL d   1      30.208 -18.082  -0.884  0.00  0.00     0.019 A 
ATOM     31  C   UNL d   1      29.237 -17.086  -0.993  0.00  0.00     0.011 A 
ATOM     32 BR   UNL d   1      27.767 -17.085   0.196  0.00  0.00    -0.051 Br
ATOM     33  C   UNL d   1      29.307 -16.123  -2.002  0.00  0.00     0.036 A 
ENDBRANCH  24  27
ENDBRANCH  22  23
ENDBRANCH  21  22
ENDBRANCH   4  21
TORSDOF 7
ENDMDL
MODEL 6
REMARK VINA RESULT:    -8.888      6.565      8.991
REMARK INTER + INTRA:         -12.105
REMARK INTER:                 -10.976
REMARK INTRA:                  -1.130
REMARK CONF_INDEPENDENT:        2.088
REMARK UNBOUND:                -1.130
REMARK  7 active torsions:
REMARK  status: ('A' for Active; 'I' for Inactive)
REMARK       I    between atoms: C_2  and  N_4 
REMARK    1  A    between atoms: N_4  and  C_5 
REMARK    2  A    between atoms: C_8  and  C_9 
REMARK       I    between atoms: C_9  and  N_11 
REMARK    3  A    between atoms: N_11  and  C_12 
REMARK    4  A    between atoms: C_15  and  C_16 
REMARK    5  A    between atoms: C_16  and  C_17 
REMARK    6  A    between atoms: C_17  and  N_18 
REMARK       I    between atoms: N_18  and  C_19 
REMARK    7  A    between atoms: C_19  and  C_21 
ROOT
ATOM      1  C   UNL d   1      30.236 -17.777  -1.790  0.00  0.00     0.196 A 
ATOM      2  N   UNL d   1      30.595 -18.020  -3.031  0.00  0.00    -0.123 NA
ATOM      3  N   UNL d   1      30.029 -17.118  -3.927  0.00  0.00    -0.145 NA
ATOM      4  C   UNL d   1      29.370 -16.149  -3.317  0.00  0.00     0.102 A 
ATOM      5  S   UNL d   1      29.341 -16.337  -1.602  0.00  0.00    -0.033 SA
ENDROOT
BRANCH   1   6
ATOM      6  N   UNL d   1      30.675 -18.481  -0.685  0.00  0.00    -0.300 N 
ATOM      7  C   UNL d   1      31.995 -18.887  -0.544  0.00  0.00     0.257 C 
ATOM      8  O   UNL d   1      32.875 -18.693  -1.386  0.00  0.00    -0.267 OA
ATOM      9  H   UNL d   1      30.079 -18.384   0.121  0.00  0.00     0.171 HD
BRANCH   7  10
ATOM     10  C   UNL d   1      32.397 -19.583   0.734  0.00  0.00     0.032 A 
ATOM     11  C   UNL d   1      31.909 -20.882   0.987  0.00  0.00     0.019 A 
ATOM     12  C   UNL d   1      32.138 -21.533   2.219  0.00  0.00     0.030 A 
ATOM     13  C   UNL d   1      32.892 -20.904   3.210  0.00  0.00     0.034 A 
ATOM     14  C   UNL d   1      33.421 -19.638   2.939  0.00  0.00     0.030 A 
ATOM     15  C   UNL d   1      33.188 -18.986   1.717  0.00  0.00     0.019 A 
BRANCH  13  16
ATOM     16  N   UNL d   1      33.163 -21.546   4.446  0.00  0.00    -0.328 N 
ATOM     17  C   UNL d   1      32.479 -21.236   5.614  0.00  0.00     0.218 C 
ATOM     18  C   UNL d   1      32.946 -21.961   6.853  0.00  0.00     0.117 C 
ATOM     19  O   UNL d   1      31.530 -20.456   5.684  0.00  0.00    -0.274 OA
ATOM     20  H   UNL d   1      33.780 -22.350   4.436  0.00  0.00     0.169 HD
ENDBRANCH  13  16
ENDBRANCH   7  10
ENDBRANCH   1   6
BRANCH   4  21
ATOM     21  C   UNL d   1      28.722 -14.987  -4.034  0.00  0.00     0.088 C 
BRANCH  21  22
ATOM     22  C   UNL d   1      27.202 -14.907  -3.880  0.00  0.00     0.129 C 
BRANCH  22  23
ATOM     23  N   UNL d   1      26.640 -15.806  -2.882  0.00  0.00    -0.356 N 
ATOM     24  C   UNL d   1      25.314 -15.674  -2.515  0.00  0.00     0.251 C 
ATOM     25  O   UNL d   1      24.561 -14.826  -2.999  0.00  0.00    -0.268 OA
ATOM     26  H   UNL d   1      27.190 -16.575  -2.520  0.00  0.00     0.162 HD
BRANCH  24  27
ATOM     27  C   UNL d   1      24.790 -16.602  -1.483  0.00  0.00     0.033 A 
ATOM     28  C   UNL d   1      25.644 -17.035  -0.457  0.00  0.00     0.017 A 
ATOM     29  C   UNL d   1      25.232 -18.040   0.423  0.00  0.00     0.002 A 
ATOM     30  C   UNL d   1      23.948 -18.575   0.316  0.00  0.00     0.019 A 
ATOM     31  C   UNL d   1      23.098 -18.132  -0.698  0.00  0.00     0.011 A 
ATOM     32 BR   UNL d   1      21.392 -18.924  -0.894  0.00  0.00    -0.051 Br
ATOM     33  C   UNL d   1      23.510 -17.150  -1.602  0.00  0.00     0.036 A 
ENDBRANCH  24  27
ENDBRANCH  22  23
ENDBRANCH  21  22
ENDBRANCH   4  21
TORSDOF 7
ENDMDL
MODEL 7
REMARK VINA RESULT:    -8.839      4.501      6.601
REMARK INTER + INTRA:         -12.622
REMARK INTER:                 -10.927
REMARK INTRA:                  -1.696
REMARK CONF_INDEPENDENT:        2.088
REMARK UNBOUND:                -1.696
REMARK  7 active torsions:
REMARK  status: ('A' for Active; 'I' for Inactive)
REMARK       I    between atoms: C_2  and  N_4 
REMARK    1  A    between atoms: N_4  and  C_5 
REMARK    2  A    between atoms: C_8  and  C_9 
REMARK       I    between atoms: C_9  and  N_11 
REMARK    3  A    between atoms: N_11  and  C_12 
REMARK    4  A    between atoms: C_15  and  C_16 
REMARK    5  A    between atoms: C_16  and  C_17 
REMARK    6  A    between atoms: C_17  and  N_18 
REMARK       I    between atoms: N_18  and  C_19 
REMARK    7  A    between atoms: C_19  and  C_21 
ROOT
ATOM      1  C   UNL d   1      26.190 -14.634  -3.727  0.00  0.00     0.196 A 
ATOM      2  N   UNL d   1      26.647 -13.454  -3.374  0.00  0.00    -0.123 NA
ATOM      3  N   UNL d   1      27.566 -12.952  -4.290  0.00  0.00    -0.145 NA
ATOM      4  C   UNL d   1      27.671 -13.712  -5.366  0.00  0.00     0.102 A 
ATOM      5  S   UNL d   1      26.699 -15.136  -5.275  0.00  0.00    -0.033 SA
ENDROOT
BRANCH   1   6
ATOM      6  N   UNL d   1      25.236 -15.355  -3.033  0.00  0.00    -0.300 N 
ATOM      7  C   UNL d   1      25.575 -16.256  -2.032  0.00  0.00     0.257 C 
ATOM      8  O   UNL d   1      26.731 -16.518  -1.696  0.00  0.00    -0.267 OA
ATOM      9  H   UNL d   1      24.315 -14.950  -3.069  0.00  0.00     0.171 HD
BRANCH   7  10
ATOM     10  C   UNL d   1      24.460 -16.939  -1.278  0.00  0.00     0.032 A 
ATOM     11  C   UNL d   1      24.684 -18.227  -0.746  0.00  0.00     0.019 A 
ATOM     12  C   UNL d   1      23.644 -18.972  -0.147  0.00  0.00     0.030 A 
ATOM     13  C   UNL d   1      22.366 -18.424  -0.041  0.00  0.00     0.034 A 
ATOM     14  C   UNL d   1      22.157 -17.128  -0.520  0.00  0.00     0.030 A 
ATOM     15  C   UNL d   1      23.187 -16.387  -1.122  0.00  0.00     0.019 A 
BRANCH  13  16
ATOM     16  N   UNL d   1      21.310 -19.138   0.582  0.00  0.00    -0.328 N 
ATOM     17  C   UNL d   1      20.264 -19.702  -0.136  0.00  0.00     0.218 C 
ATOM     18  C   UNL d   1      19.187 -20.361   0.691  0.00  0.00     0.117 C 
ATOM     19  O   UNL d   1      20.186 -19.719  -1.364  0.00  0.00    -0.274 OA
ATOM     20  H   UNL d   1      21.403 -19.357   1.568  0.00  0.00     0.169 HD
ENDBRANCH  13  16
ENDBRANCH   7  10
ENDBRANCH   1   6
BRANCH   4  21
ATOM     21  C   UNL d   1      28.532 -13.371  -6.560  0.00  0.00     0.088 C 
BRANCH  21  22
ATOM     22  C   UNL d   1      28.213 -12.026  -7.216  0.00  0.00     0.129 C 
BRANCH  22  23
ATOM     23  N   UNL d   1      27.518 -11.077  -6.358  0.00  0.00    -0.356 N 
ATOM     24  C   UNL d   1      26.489 -10.315  -6.877  0.00  0.00     0.251 C 
ATOM     25  O   UNL d   1      26.111 -10.398  -8.048  0.00  0.00    -0.268 OA
ATOM     26  H   UNL d   1      27.728 -11.035  -5.368  0.00  0.00     0.162 HD
BRANCH  24  27
ATOM     27  C   UNL d   1      25.820  -9.352  -5.969  0.00  0.00     0.033 A 
ATOM     28  C   UNL d   1      25.055  -8.312  -6.519  0.00  0.00     0.017 A 
ATOM     29  C   UNL d   1      24.560  -7.293  -5.700  0.00  0.00     0.002 A 
ATOM     30  C   UNL d   1      24.781  -7.338  -4.323  0.00  0.00     0.019 A 
ATOM     31  C   UNL d   1      25.532  -8.381  -3.779  0.00  0.00     0.011 A 
ATOM     32 BR   UNL d   1      25.904  -8.389  -1.924  0.00  0.00    -0.051 Br
ATOM     33  C   UNL d   1      26.057  -9.388  -4.591  0.00  0.00     0.036 A 
ENDBRANCH  24  27
ENDBRANCH  22  23
ENDBRANCH  21  22
ENDBRANCH   4  21
TORSDOF 7
ENDMDL
MODEL 8
REMARK VINA RESULT:    -8.460      6.303      8.209
REMARK INTER + INTRA:         -12.280
REMARK INTER:                 -10.548
REMARK INTRA:                  -1.732
REMARK CONF_INDEPENDENT:        2.088
REMARK UNBOUND:                -1.732
REMARK  7 active torsions:
REMARK  status: ('A' for Active; 'I' for Inactive)
REMARK       I    between atoms: C_2  and  N_4 
REMARK    1  A    between atoms: N_4  and  C_5 
REMARK    2  A    between atoms: C_8  and  C_9 
REMARK       I    between atoms: C_9  and  N_11 
REMARK    3  A    between atoms: N_11  and  C_12 
REMARK    4  A    between atoms: C_15  and  C_16 
REMARK    5  A    between atoms: C_16  and  C_17 
REMARK    6  A    between atoms: C_17  and  N_18 
REMARK       I    between atoms: N_18  and  C_19 
REMARK    7  A    between atoms: C_19  and  C_21 
ROOT
ATOM      1  C   UNL d   1      27.965 -12.641  -0.755  0.00  0.00     0.196 A 
ATOM      2  N   UNL d   1      27.137 -11.704  -1.159  0.00  0.00    -0.123 NA
ATOM      3  N   UNL d   1      26.962 -11.718  -2.539  0.00  0.00    -0.145 NA
ATOM      4  C   UNL d   1      27.560 -12.747  -3.112  0.00  0.00     0.102 A 
ATOM      5  S   UNL d   1      28.444 -13.716  -1.990  0.00  0.00    -0.033 SA
ENDROOT
BRANCH   1   6
ATOM      6  N   UNL d   1      28.297 -12.892   0.563  0.00  0.00    -0.300 N 
ATOM      7  C   UNL d   1      27.437 -13.555   1.428  0.00  0.00     0.257 C 
ATOM      8  O   UNL d   1      26.309 -13.945   1.121  0.00  0.00    -0.267 OA
ATOM      9  H   UNL d   1      29.288 -12.866   0.744  0.00  0.00     0.171 HD
BRANCH   7  10
ATOM     10  C   UNL d   1      27.919 -13.853   2.827  0.00  0.00     0.032 A 
ATOM     11  C   UNL d   1      27.026 -13.691   3.907  0.00  0.00     0.019 A 
ATOM     12  C   UNL d   1      27.450 -13.824   5.246  0.00  0.00     0.030 A 
ATOM     13  C   UNL d   1      28.776 -14.156   5.528  0.00  0.00     0.034 A 
ATOM     14  C   UNL d   1      29.648 -14.369   4.457  0.00  0.00     0.030 A 
ATOM     15  C   UNL d   1      29.230 -14.231   3.124  0.00  0.00     0.019 A 
BRANCH  13  16
ATOM     16  N   UNL d   1      29.222 -14.325   6.864  0.00  0.00    -0.328 N 
ATOM     17  C   UNL d   1      28.915 -13.423   7.874  0.00  0.00     0.218 C 
ATOM     18  C   UNL d   1      29.535 -13.716   9.219  0.00  0.00     0.117 C 
ATOM     19  O   UNL d   1      28.169 -12.453   7.744  0.00  0.00    -0.274 OA
ATOM     20  H   UNL d   1      29.663 -15.205   7.108  0.00  0.00     0.169 HD
ENDBRANCH  13  16
ENDBRANCH   7  10
ENDBRANCH   1   6
BRANCH   4  21
ATOM     21  C   UNL d   1      27.471 -13.061  -4.588  0.00  0.00     0.088 C 
BRANCH  21  22
ATOM     22  C   UNL d   1      26.859 -14.425  -4.916  0.00  0.00     0.129 C 
BRANCH  22  23
ATOM     23  N   UNL d   1      26.631 -15.286  -3.764  0.00  0.00    -0.356 N 
ATOM     24  C   UNL d   1      25.437 -15.200  -3.074  0.00  0.00     0.251 C 
ATOM     25  O   UNL d   1      24.531 -14.424  -3.386  0.00  0.00    -0.268 OA
ATOM     26  H   UNL d   1      27.305 -16.002  -3.521  0.00  0.00     0.162 HD
BRANCH  24  27
ATOM     27  C   UNL d   1      25.256 -16.087  -1.899  0.00  0.00     0.033 A 
ATOM     28  C   UNL d   1      26.364 -16.387  -1.091  0.00  0.00     0.017 A 
ATOM     29  C   UNL d   1      26.262 -17.353  -0.087  0.00  0.00     0.002 A 
ATOM     30  C   UNL d   1      25.040 -17.982   0.151  0.00  0.00     0.019 A 
ATOM     31  C   UNL d   1      23.938 -17.672  -0.646  0.00  0.00     0.011 A 
ATOM     32 BR   UNL d   1      22.308 -18.593  -0.378  0.00  0.00    -0.051 Br
ATOM     33  C   UNL d   1      24.036 -16.731  -1.673  0.00  0.00     0.036 A 
ENDBRANCH  24  27
ENDBRANCH  22  23
ENDBRANCH  21  22
ENDBRANCH   4  21
TORSDOF 7
ENDMDL
MODEL 9
REMARK VINA RESULT:    -8.455      4.088      5.682
REMARK INTER + INTRA:         -12.234
REMARK INTER:                 -10.543
REMARK INTRA:                  -1.690
REMARK CONF_INDEPENDENT:        2.088
REMARK UNBOUND:                -1.690
REMARK  7 active torsions:
REMARK  status: ('A' for Active; 'I' for Inactive)
REMARK       I    between atoms: C_2  and  N_4 
REMARK    1  A    between atoms: N_4  and  C_5 
REMARK    2  A    between atoms: C_8  and  C_9 
REMARK       I    between atoms: C_9  and  N_11 
REMARK    3  A    between atoms: N_11  and  C_12 
REMARK    4  A    between atoms: C_15  and  C_16 
REMARK    5  A    between atoms: C_16  and  C_17 
REMARK    6  A    between atoms: C_17  and  N_18 
REMARK       I    between atoms: N_18  and  C_19 
REMARK    7  A    between atoms: C_19  and  C_21 
ROOT
ATOM      1  C   UNL d   1      26.309 -15.146  -4.491  0.00  0.00     0.196 A 
ATOM      2  N   UNL d   1      27.262 -15.575  -5.288  0.00  0.00    -0.123 NA
ATOM      3  N   UNL d   1      27.904 -14.531  -5.947  0.00  0.00    -0.145 NA
ATOM      4  C   UNL d   1      27.501 -13.346  -5.524  0.00  0.00     0.102 A 
ATOM      5  S   UNL d   1      26.246 -13.448  -4.344  0.00  0.00    -0.033 SA
ENDROOT
BRANCH   1   6
ATOM      6  N   UNL d   1      25.531 -15.951  -3.680  0.00  0.00    -0.300 N 
ATOM      7  C   UNL d   1      25.174 -15.575  -2.392  0.00  0.00     0.257 C 
ATOM      8  O   UNL d   1      25.533 -14.529  -1.848  0.00  0.00    -0.267 OA
ATOM      9  H   UNL d   1      24.990 -16.634  -4.185  0.00  0.00     0.171 HD
BRANCH   7  10
ATOM     10  C   UNL d   1      24.257 -16.485  -1.610  0.00  0.00     0.032 A 
ATOM     11  C   UNL d   1      24.644 -17.825  -1.396  0.00  0.00     0.019 A 
ATOM     12  C   UNL d   1      23.776 -18.760  -0.791  0.00  0.00     0.030 A 
ATOM     13  C   UNL d   1      22.512 -18.358  -0.357  0.00  0.00     0.034 A 
ATOM     14  C   UNL d   1      22.149 -17.018  -0.521  0.00  0.00     0.030 A 
ATOM     15  C   UNL d   1      23.008 -16.088  -1.129  0.00  0.00     0.019 A 
BRANCH  13  16
ATOM     16  N   UNL d   1      21.631 -19.269   0.281  0.00  0.00    -0.328 N 
ATOM     17  C   UNL d   1      20.275 -19.325  -0.012  0.00  0.00     0.218 C 
ATOM     18  C   UNL d   1      19.471 -20.299   0.814  0.00  0.00     0.117 C 
ATOM     19  O   UNL d   1      19.721 -18.670  -0.895  0.00  0.00    -0.274 OA
ATOM     20  H   UNL d   1      22.037 -19.989   0.867  0.00  0.00     0.169 HD
ENDBRANCH  13  16
ENDBRANCH   7  10
ENDBRANCH   1   6
BRANCH   4  21
ATOM     21  C   UNL d   1      28.083 -12.036  -6.003  0.00  0.00     0.088 C 
BRANCH  21  22
ATOM     22  C   UNL d   1      28.655 -11.147  -4.896  0.00  0.00     0.129 C 
BRANCH  22  23
ATOM     23  N   UNL d   1      28.468 -11.656  -3.545  0.00  0.00    -0.356 N 
ATOM     24  C   UNL d   1      27.626 -10.990  -2.675  0.00  0.00     0.251 C 
ATOM     25  O   UNL d   1      27.004  -9.971  -2.985  0.00  0.00    -0.268 OA
ATOM     26  H   UNL d   1      28.884 -12.537  -3.269  0.00  0.00     0.162 HD
BRANCH  24  27
ATOM     27  C   UNL d   1      27.478 -11.538  -1.305  0.00  0.00     0.033 A 
ATOM     28  C   UNL d   1      27.406 -10.652  -0.219  0.00  0.00     0.017 A 
ATOM     29  C   UNL d   1      27.443 -11.140   1.091  0.00  0.00     0.002 A 
ATOM     30  C   UNL d   1      27.496 -12.515   1.319  0.00  0.00     0.019 A 
ATOM     31  C   UNL d   1      27.556 -13.393   0.237  0.00  0.00     0.011 A 
ATOM     32 BR   UNL d   1      27.719 -15.250   0.552  0.00  0.00    -0.051 Br
ATOM     33  C   UNL d   1      27.551 -12.915  -1.076  0.00  0.00     0.036 A 
ENDBRANCH  24  27
ENDBRANCH  22  23
ENDBRANCH  21  22
ENDBRANCH   4  21
TORSDOF 7
ENDMDL
