MODEL 1
REMARK VINA RESULT:    -7.557      0.000      0.000
REMARK INTER + INTRA:          -9.453
REMARK INTER:                  -8.751
REMARK INTRA:                  -0.702
REMARK CONF_INDEPENDENT:        1.193
REMARK UNBOUND:                -0.702
REMARK  4 active torsions:
REMARK  status: ('A' for Active; 'I' for Inactive)
REMARK    1  A    between atoms: O_2  and  C_3 
REMARK    2  A    between atoms: C_6  and  N_7 
REMARK       I    between atoms: N_7  and  C_8 
REMARK       I    between atoms: C_8  and  N_10 
REMARK    3  A    between atoms: N_10  and  N_11 
REMARK       I    between atoms: N_11  and  C_12 
REMARK    4  A    between atoms: C_12  and  C_14 
ROOT
ATOM      1  N   UNL d   1      26.412 -16.236  -1.542  0.00  0.00    -0.308 N 
ATOM      2  C   UNL d   1      25.299 -17.045  -1.308  0.00  0.00     0.339 C 
ATOM      3  O   UNL d   1      24.539 -17.501  -2.167  0.00  0.00    -0.245 OA
ATOM      4  N   UNL d   1      25.030 -17.365   0.016  0.00  0.00    -0.248 N 
ATOM      5  H   UNL d   1      26.936 -15.893  -0.748  0.00  0.00     0.170 HD
ATOM      6  H   UNL d   1      25.536 -17.038   0.833  0.00  0.00     0.192 HD
ENDROOT
BRANCH   4   7
ATOM      7  N   UNL d   1      23.893 -18.224   0.255  0.00  0.00    -0.262 N 
ATOM      8  C   UNL d   1      22.609 -17.820  -0.064  0.00  0.00     0.270 C 
ATOM      9  O   UNL d   1      22.365 -16.717  -0.565  0.00  0.00    -0.266 OA
ATOM     10  H   UNL d   1      24.130 -19.164   0.581  0.00  0.00     0.190 HD
BRANCH   8  11
ATOM     11  C   UNL d   1      21.473 -18.762   0.233  0.00  0.00     0.033 A 
ATOM     12  C   UNL d   1      20.738 -19.328  -0.827  0.00  0.00     0.019 A 
ATOM     13  C   UNL d   1      19.573 -20.075  -0.583  0.00  0.00     0.025 A 
ATOM     14  C   UNL d   1      19.164 -20.312   0.726  0.00  0.00     0.034 A 
ATOM     15 CL   UNL d   1      17.791 -21.306   1.034  0.00  0.00    -0.084 Cl
ATOM     16  C   UNL d   1      19.882 -19.764   1.788  0.00  0.00     0.025 A 
ATOM     17  C   UNL d   1      21.030 -18.988   1.546  0.00  0.00     0.019 A 
ENDBRANCH   8  11
ENDBRANCH   4   7
BRANCH   1  18
ATOM     18  C   UNL d   1      26.824 -15.761  -2.838  0.00  0.00     0.036 A 
ATOM     19  C   UNL d   1      28.175 -15.739  -3.231  0.00  0.00     0.032 A 
ATOM     20  C   UNL d   1      28.560 -15.174  -4.476  0.00  0.00     0.039 A 
ATOM     21  C   UNL d   1      27.607 -14.682  -5.374  0.00  0.00     0.068 A 
ATOM     22  C   UNL d   1      26.276 -14.740  -5.003  0.00  0.00     0.039 A 
ATOM     23  C   UNL d   1      25.901 -15.274  -3.765  0.00  0.00     0.032 A 
BRANCH  21  24
ATOM     24  O   UNL d   1      28.045 -14.265  -6.601  0.00  0.00    -0.356 OA
ATOM     25  C   UNL d   1      29.458 -14.107  -6.753  0.00  0.00     0.210 C 
ENDBRANCH  21  24
ENDBRANCH   1  18
TORSDOF 4
ENDMDL
MODEL 2
REMARK VINA RESULT:    -6.925      4.193      9.476
REMARK INTER + INTRA:          -9.340
REMARK INTER:                  -8.119
REMARK INTRA:                  -1.222
REMARK CONF_INDEPENDENT:        1.193
REMARK UNBOUND:                -1.222
REMARK  4 active torsions:
REMARK  status: ('A' for Active; 'I' for Inactive)
REMARK    1  A    between atoms: O_2  and  C_3 
REMARK    2  A    between atoms: C_6  and  N_7 
REMARK       I    between atoms: N_7  and  C_8 
REMARK       I    between atoms: C_8  and  N_10 
REMARK    3  A    between atoms: N_10  and  N_11 
REMARK       I    between atoms: N_11  and  C_12 
REMARK    4  A    between atoms: C_12  and  C_14 
ROOT
ATOM      1  N   UNL d   1      22.846 -18.378  -1.152  0.00  0.00    -0.308 N 
ATOM      2  C   UNL d   1      23.234 -17.042  -1.268  0.00  0.00     0.339 C 
ATOM      3  O   UNL d   1      22.625 -16.068  -0.818  0.00  0.00    -0.245 OA
ATOM      4  N   UNL d   1      24.417 -16.796  -1.952  0.00  0.00    -0.248 N 
ATOM      5  H   UNL d   1      23.412 -19.087  -1.598  0.00  0.00     0.170 HD
ATOM      6  H   UNL d   1      25.007 -17.483  -2.409  0.00  0.00     0.192 HD
ENDROOT
BRANCH   4   7
ATOM      7  N   UNL d   1      24.831 -15.415  -2.048  0.00  0.00    -0.262 N 
ATOM      8  C   UNL d   1      25.356 -14.903  -3.221  0.00  0.00     0.270 C 
ATOM      9  O   UNL d   1      25.497 -15.589  -4.240  0.00  0.00    -0.266 OA
ATOM     10  H   UNL d   1      24.617 -14.847  -1.224  0.00  0.00     0.190 HD
BRANCH   8  11
ATOM     11  C   UNL d   1      25.785 -13.460  -3.238  0.00  0.00     0.033 A 
ATOM     12  C   UNL d   1      25.540 -12.672  -4.379  0.00  0.00     0.019 A 
ATOM     13  C   UNL d   1      26.074 -11.376  -4.493  0.00  0.00     0.025 A 
ATOM     14  C   UNL d   1      26.808 -10.836  -3.441  0.00  0.00     0.034 A 
ATOM     15 CL   UNL d   1      27.382  -9.214  -3.534  0.00  0.00    -0.084 Cl
ATOM     16  C   UNL d   1      27.056 -11.600  -2.301  0.00  0.00     0.025 A 
ATOM     17  C   UNL d   1      26.551 -12.909  -2.199  0.00  0.00     0.019 A 
ENDBRANCH   8  11
ENDBRANCH   4   7
BRANCH   1  18
ATOM     18  C   UNL d   1      21.631 -18.829  -0.521  0.00  0.00     0.036 A 
ATOM     19  C   UNL d   1      21.516 -18.949   0.876  0.00  0.00     0.032 A 
ATOM     20  C   UNL d   1      20.341 -19.489   1.464  0.00  0.00     0.039 A 
ATOM     21  C   UNL d   1      19.243 -19.857   0.680  0.00  0.00     0.068 A 
ATOM     22  C   UNL d   1      19.343 -19.702  -0.691  0.00  0.00     0.039 A 
ATOM     23  C   UNL d   1      20.511 -19.194  -1.269  0.00  0.00     0.032 A 
BRANCH  21  24
ATOM     24  O   UNL d   1      18.105 -20.255   1.326  0.00  0.00    -0.356 OA
ATOM     25  C   UNL d   1      17.655 -21.587   1.062  0.00  0.00     0.210 C 
ENDBRANCH  21  24
ENDBRANCH   1  18
TORSDOF 4
ENDMDL
MODEL 3
REMARK VINA RESULT:    -6.804      4.384      9.665
REMARK INTER + INTRA:          -8.788
REMARK INTER:                  -7.997
REMARK INTRA:                  -0.792
REMARK CONF_INDEPENDENT:        1.193
REMARK UNBOUND:                -0.792
REMARK  4 active torsions:
REMARK  status: ('A' for Active; 'I' for Inactive)
REMARK    1  A    between atoms: O_2  and  C_3 
REMARK    2  A    between atoms: C_6  and  N_7 
REMARK       I    between atoms: N_7  and  C_8 
REMARK       I    between atoms: C_8  and  N_10 
REMARK    3  A    between atoms: N_10  and  N_11 
REMARK       I    between atoms: N_11  and  C_12 
REMARK    4  A    between atoms: C_12  and  C_14 
ROOT
ATOM      1  N   UNL d   1      25.817 -16.312  -1.411  0.00  0.00    -0.308 N 
ATOM      2  C   UNL d   1      25.963 -15.411  -2.467  0.00  0.00     0.339 C 
ATOM      3  O   UNL d   1      25.063 -15.013  -3.211  0.00  0.00    -0.245 OA
ATOM      4  N   UNL d   1      27.242 -14.920  -2.693  0.00  0.00    -0.248 N 
ATOM      5  H   UNL d   1      26.641 -16.592  -0.896  0.00  0.00     0.170 HD
ATOM      6  H   UNL d   1      28.087 -15.180  -2.194  0.00  0.00     0.192 HD
ENDROOT
BRANCH   4   7
ATOM      7  N   UNL d   1      27.387 -13.967  -3.769  0.00  0.00    -0.262 N 
ATOM      8  C   UNL d   1      27.605 -14.383  -5.071  0.00  0.00     0.270 C 
ATOM      9  O   UNL d   1      27.684 -15.576  -5.382  0.00  0.00    -0.266 OA
ATOM     10  H   UNL d   1      27.224 -12.994  -3.502  0.00  0.00     0.190 HD
BRANCH   8  11
ATOM     11  C   UNL d   1      27.767 -13.331  -6.135  0.00  0.00     0.033 A 
ATOM     12  C   UNL d   1      27.029 -12.134  -6.053  0.00  0.00     0.019 A 
ATOM     13  C   UNL d   1      27.030 -11.208  -7.111  0.00  0.00     0.025 A 
ATOM     14  C   UNL d   1      27.815 -11.444  -8.236  0.00  0.00     0.034 A 
ATOM     15 CL   UNL d   1      27.896 -10.268  -9.492  0.00  0.00    -0.084 Cl
ATOM     16  C   UNL d   1      28.556 -12.621  -8.332  0.00  0.00     0.025 A 
ATOM     17  C   UNL d   1      28.530 -13.565  -7.289  0.00  0.00     0.019 A 
ENDBRANCH   8  11
ENDBRANCH   4   7
BRANCH   1  18
ATOM     18  C   UNL d   1      24.582 -16.963  -1.052  0.00  0.00     0.036 A 
ATOM     19  C   UNL d   1      23.355 -16.277  -1.032  0.00  0.00     0.032 A 
ATOM     20  C   UNL d   1      22.171 -16.918  -0.580  0.00  0.00     0.039 A 
ATOM     21  C   UNL d   1      22.177 -18.264  -0.201  0.00  0.00     0.068 A 
ATOM     22  C   UNL d   1      23.377 -18.949  -0.258  0.00  0.00     0.039 A 
ATOM     23  C   UNL d   1      24.546 -18.308  -0.681  0.00  0.00     0.032 A 
BRANCH  21  24
ATOM     24  O   UNL d   1      20.976 -18.843   0.107  0.00  0.00    -0.356 OA
ATOM     25  C   UNL d   1      20.201 -19.328  -0.992  0.00  0.00     0.210 C 
ENDBRANCH  21  24
ENDBRANCH   1  18
TORSDOF 4
ENDMDL
MODEL 4
REMARK VINA RESULT:    -6.600      3.808      9.382
REMARK INTER + INTRA:          -9.318
REMARK INTER:                  -7.793
REMARK INTRA:                  -1.526
REMARK CONF_INDEPENDENT:        1.193
REMARK UNBOUND:                -1.526
REMARK  4 active torsions:
REMARK  status: ('A' for Active; 'I' for Inactive)
REMARK    1  A    between atoms: O_2  and  C_3 
REMARK    2  A    between atoms: C_6  and  N_7 
REMARK       I    between atoms: N_7  and  C_8 
REMARK       I    between atoms: C_8  and  N_10 
REMARK    3  A    between atoms: N_10  and  N_11 
REMARK       I    between atoms: N_11  and  C_12 
REMARK    4  A    between atoms: C_12  and  C_14 
ROOT
ATOM      1  N   UNL d   1      22.549 -17.815   0.065  0.00  0.00    -0.308 N 
ATOM      2  C   UNL d   1      23.493 -17.691  -0.955  0.00  0.00     0.339 C 
ATOM      3  O   UNL d   1      23.459 -18.260  -2.049  0.00  0.00    -0.245 OA
ATOM      4  N   UNL d   1      24.565 -16.843  -0.710  0.00  0.00    -0.248 N 
ATOM      5  H   UNL d   1      22.709 -17.325   0.935  0.00  0.00     0.170 HD
ATOM      6  H   UNL d   1      24.753 -16.337   0.149  0.00  0.00     0.192 HD
ENDROOT
BRANCH   4   7
ATOM      7  N   UNL d   1      25.527 -16.694  -1.778  0.00  0.00    -0.262 N 
ATOM      8  C   UNL d   1      26.636 -15.878  -1.636  0.00  0.00     0.270 C 
ATOM      9  O   UNL d   1      26.863 -15.242  -0.602  0.00  0.00    -0.266 OA
ATOM     10  H   UNL d   1      25.367 -17.302  -2.585  0.00  0.00     0.190 HD
BRANCH   8  11
ATOM     11  C   UNL d   1      27.582 -15.756  -2.800  0.00  0.00     0.033 A 
ATOM     12  C   UNL d   1      27.138 -15.179  -4.005  0.00  0.00     0.019 A 
ATOM     13  C   UNL d   1      27.941 -15.202  -5.159  0.00  0.00     0.025 A 
ATOM     14  C   UNL d   1      29.218 -15.751  -5.102  0.00  0.00     0.034 A 
ATOM     15 CL   UNL d   1      30.243 -15.696  -6.486  0.00  0.00    -0.084 Cl
ATOM     16  C   UNL d   1      29.677 -16.323  -3.916  0.00  0.00     0.025 A 
ATOM     17  C   UNL d   1      28.862 -16.331  -2.769  0.00  0.00     0.019 A 
ENDBRANCH   8  11
ENDBRANCH   4   7
BRANCH   1  18
ATOM     18  C   UNL d   1      21.397 -18.679   0.017  0.00  0.00     0.036 A 
ATOM     19  C   UNL d   1      20.679 -18.901  -1.173  0.00  0.00     0.032 A 
ATOM     20  C   UNL d   1      19.491 -19.679  -1.171  0.00  0.00     0.039 A 
ATOM     21  C   UNL d   1      19.033 -20.297  -0.003  0.00  0.00     0.068 A 
ATOM     22  C   UNL d   1      19.761 -20.110   1.158  0.00  0.00     0.039 A 
ATOM     23  C   UNL d   1      20.918 -19.323   1.158  0.00  0.00     0.032 A 
BRANCH  21  24
ATOM     24  O   UNL d   1      17.950 -21.127  -0.105  0.00  0.00    -0.356 OA
ATOM     25  C   UNL d   1      17.660 -21.939   1.035  0.00  0.00     0.210 C 
ENDBRANCH  21  24
ENDBRANCH   1  18
TORSDOF 4
ENDMDL
MODEL 5
REMARK VINA RESULT:    -6.482      2.796      3.290
REMARK INTER + INTRA:          -9.211
REMARK INTER:                  -7.675
REMARK INTRA:                  -1.536
REMARK CONF_INDEPENDENT:        1.193
REMARK UNBOUND:                -1.536
REMARK  4 active torsions:
REMARK  status: ('A' for Active; 'I' for Inactive)
REMARK    1  A    between atoms: O_2  and  C_3 
REMARK    2  A    between atoms: C_6  and  N_7 
REMARK       I    between atoms: N_7  and  C_8 
REMARK       I    between atoms: C_8  and  N_10 
REMARK    3  A    between atoms: N_10  and  N_11 
REMARK       I    between atoms: N_11  and  C_12 
REMARK    4  A    between atoms: C_12  and  C_14 
ROOT
ATOM      1  N   UNL d   1      25.991 -14.161  -2.792  0.00  0.00    -0.308 N 
ATOM      2  C   UNL d   1      24.788 -14.801  -2.490  0.00  0.00     0.339 C 
ATOM      3  O   UNL d   1      23.670 -14.470  -2.892  0.00  0.00    -0.245 OA
ATOM      4  N   UNL d   1      24.866 -15.912  -1.661  0.00  0.00    -0.248 N 
ATOM      5  H   UNL d   1      26.842 -14.506  -2.368  0.00  0.00     0.170 HD
ATOM      6  H   UNL d   1      25.702 -16.282  -1.221  0.00  0.00     0.192 HD
ENDROOT
BRANCH   4   7
ATOM      7  N   UNL d   1      23.623 -16.588  -1.370  0.00  0.00    -0.262 N 
ATOM      8  C   UNL d   1      23.592 -17.723  -0.579  0.00  0.00     0.270 C 
ATOM      9  O   UNL d   1      24.611 -18.213  -0.081  0.00  0.00    -0.266 OA
ATOM     10  H   UNL d   1      22.786 -16.111  -1.714  0.00  0.00     0.190 HD
BRANCH   8  11
ATOM     11  C   UNL d   1      22.261 -18.385  -0.338  0.00  0.00     0.033 A 
ATOM     12  C   UNL d   1      21.804 -18.575   0.980  0.00  0.00     0.019 A 
ATOM     13  C   UNL d   1      20.651 -19.336   1.244  0.00  0.00     0.025 A 
ATOM     14  C   UNL d   1      19.914 -19.864   0.189  0.00  0.00     0.034 A 
ATOM     15 CL   UNL d   1      18.449 -20.715   0.501  0.00  0.00    -0.084 Cl
ATOM     16  C   UNL d   1      20.350 -19.683  -1.123  0.00  0.00     0.025 A 
ATOM     17  C   UNL d   1      21.521 -18.950  -1.389  0.00  0.00     0.019 A 
ENDBRANCH   8  11
ENDBRANCH   4   7
BRANCH   1  18
ATOM     18  C   UNL d   1      26.109 -12.970  -3.595  0.00  0.00     0.036 A 
ATOM     19  C   UNL d   1      26.092 -13.012  -5.001  0.00  0.00     0.032 A 
ATOM     20  C   UNL d   1      26.309 -11.835  -5.766  0.00  0.00     0.039 A 
ATOM     21  C   UNL d   1      26.482 -10.593  -5.148  0.00  0.00     0.068 A 
ATOM     22  C   UNL d   1      26.460 -10.546  -3.766  0.00  0.00     0.039 A 
ATOM     23  C   UNL d   1      26.272 -11.711  -3.015  0.00  0.00     0.032 A 
BRANCH  21  24
ATOM     24  O   UNL d   1      26.565  -9.489  -5.952  0.00  0.00    -0.356 OA
ATOM     25  C   UNL d   1      26.107  -8.256  -5.391  0.00  0.00     0.210 C 
ENDBRANCH  21  24
ENDBRANCH   1  18
TORSDOF 4
ENDMDL
MODEL 6
REMARK VINA RESULT:    -6.399      3.069      4.253
REMARK INTER + INTRA:          -9.133
REMARK INTER:                  -7.592
REMARK INTRA:                  -1.541
REMARK CONF_INDEPENDENT:        1.193
REMARK UNBOUND:                -1.541
REMARK  4 active torsions:
REMARK  status: ('A' for Active; 'I' for Inactive)
REMARK    1  A    between atoms: O_2  and  C_3 
REMARK    2  A    between atoms: C_6  and  N_7 
REMARK       I    between atoms: N_7  and  C_8 
REMARK       I    between atoms: C_8  and  N_10 
REMARK    3  A    between atoms: N_10  and  N_11 
REMARK       I    between atoms: N_11  and  C_12 
REMARK    4  A    between atoms: C_12  and  C_14 
ROOT
ATOM      1  N   UNL d   1      27.099 -13.168  -4.473  0.00  0.00    -0.308 N 
ATOM      2  C   UNL d   1      26.044 -13.945  -3.990  0.00  0.00     0.339 C 
ATOM      3  O   UNL d   1      24.935 -14.069  -4.516  0.00  0.00    -0.245 OA
ATOM      4  N   UNL d   1      26.274 -14.642  -2.812  0.00  0.00    -0.248 N 
ATOM      5  H   UNL d   1      27.950 -13.117  -3.930  0.00  0.00     0.170 HD
ATOM      6  H   UNL d   1      27.115 -14.613  -2.246  0.00  0.00     0.192 HD
ENDROOT
BRANCH   4   7
ATOM      7  N   UNL d   1      25.191 -15.468  -2.329  0.00  0.00    -0.262 N 
ATOM      8  C   UNL d   1      25.348 -16.279  -1.220  0.00  0.00     0.270 C 
ATOM      9  O   UNL d   1      26.407 -16.342  -0.587  0.00  0.00    -0.266 OA
ATOM     10  H   UNL d   1      24.300 -15.327  -2.811  0.00  0.00     0.190 HD
BRANCH   8  11
ATOM     11  C   UNL d   1      24.181 -17.127  -0.788  0.00  0.00     0.033 A 
ATOM     12  C   UNL d   1      24.392 -18.467  -0.410  0.00  0.00     0.019 A 
ATOM     13  C   UNL d   1      23.310 -19.330  -0.164  0.00  0.00     0.025 A 
ATOM     14  C   UNL d   1      22.008 -18.844  -0.238  0.00  0.00     0.034 A 
ATOM     15 CL   UNL d   1      20.681 -19.871   0.155  0.00  0.00    -0.084 Cl
ATOM     16  C   UNL d   1      21.779 -17.519  -0.607  0.00  0.00     0.025 A 
ATOM     17  C   UNL d   1      22.860 -16.663  -0.886  0.00  0.00     0.019 A 
ENDBRANCH   8  11
ENDBRANCH   4   7
BRANCH   1  18
ATOM     18  C   UNL d   1      27.037 -12.340  -5.650  0.00  0.00     0.036 A 
ATOM     19  C   UNL d   1      28.043 -12.363  -6.633  0.00  0.00     0.032 A 
ATOM     20  C   UNL d   1      28.005 -11.466  -7.734  0.00  0.00     0.039 A 
ATOM     21  C   UNL d   1      26.938 -10.577  -7.906  0.00  0.00     0.068 A 
ATOM     22  C   UNL d   1      25.930 -10.582  -6.960  0.00  0.00     0.039 A 
ATOM     23  C   UNL d   1      25.983 -11.450  -5.864  0.00  0.00     0.032 A 
BRANCH  21  24
ATOM     24  O   UNL d   1      26.913  -9.830  -9.052  0.00  0.00    -0.356 OA
ATOM     25  C   UNL d   1      26.433 -10.485 -10.229  0.00  0.00     0.210 C 
ENDBRANCH  21  24
ENDBRANCH   1  18
TORSDOF 4
ENDMDL
MODEL 7
REMARK VINA RESULT:    -6.202      3.342      4.030
REMARK INTER + INTRA:          -8.922
REMARK INTER:                  -7.395
REMARK INTRA:                  -1.527
REMARK CONF_INDEPENDENT:        1.193
REMARK UNBOUND:                -1.527
REMARK  4 active torsions:
REMARK  status: ('A' for Active; 'I' for Inactive)
REMARK    1  A    between atoms: O_2  and  C_3 
REMARK    2  A    between atoms: C_6  and  N_7 
REMARK       I    between atoms: N_7  and  C_8 
REMARK       I    between atoms: C_8  and  N_10 
REMARK    3  A    between atoms: N_10  and  N_11 
REMARK       I    between atoms: N_11  and  C_12 
REMARK    4  A    between atoms: C_12  and  C_14 
ROOT
ATOM      1  N   UNL d   1      27.292 -16.304  -0.384  0.00  0.00    -0.308 N 
ATOM      2  C   UNL d   1      26.266 -17.230  -0.195  0.00  0.00     0.339 C 
ATOM      3  O   UNL d   1      26.406 -18.412   0.132  0.00  0.00    -0.245 OA
ATOM      4  N   UNL d   1      24.970 -16.771  -0.392  0.00  0.00    -0.248 N 
ATOM      5  H   UNL d   1      27.052 -15.371  -0.691  0.00  0.00     0.170 HD
ATOM      6  H   UNL d   1      24.696 -15.843  -0.698  0.00  0.00     0.192 HD
ENDROOT
BRANCH   4   7
ATOM      7  N   UNL d   1      23.907 -17.724  -0.169  0.00  0.00    -0.262 N 
ATOM      8  C   UNL d   1      22.599 -17.432  -0.512  0.00  0.00     0.270 C 
ATOM      9  O   UNL d   1      22.271 -16.356  -1.023  0.00  0.00    -0.266 OA
ATOM     10  H   UNL d   1      24.218 -18.639   0.166  0.00  0.00     0.190 HD
BRANCH   8  11
ATOM     11  C   UNL d   1      21.542 -18.467  -0.230  0.00  0.00     0.033 A 
ATOM     12  C   UNL d   1      20.662 -18.864  -1.255  0.00  0.00     0.019 A 
ATOM     13  C   UNL d   1      19.563 -19.698  -0.983  0.00  0.00     0.025 A 
ATOM     14  C   UNL d   1      19.370 -20.191   0.305  0.00  0.00     0.034 A 
ATOM     15 CL   UNL d   1      18.083 -21.290   0.623  0.00  0.00    -0.084 Cl
ATOM     16  C   UNL d   1      20.235 -19.812   1.331  0.00  0.00     0.025 A 
ATOM     17  C   UNL d   1      21.316 -18.950   1.068  0.00  0.00     0.019 A 
ENDBRANCH   8  11
ENDBRANCH   4   7
BRANCH   1  18
ATOM     18  C   UNL d   1      28.698 -16.601  -0.272  0.00  0.00     0.036 A 
ATOM     19  C   UNL d   1      29.608 -15.699   0.308  0.00  0.00     0.032 A 
ATOM     20  C   UNL d   1      31.001 -15.977   0.316  0.00  0.00     0.039 A 
ATOM     21  C   UNL d   1      31.502 -17.179  -0.194  0.00  0.00     0.068 A 
ATOM     22  C   UNL d   1      30.602 -18.082  -0.729  0.00  0.00     0.039 A 
ATOM     23  C   UNL d   1      29.233 -17.795  -0.758  0.00  0.00     0.032 A 
BRANCH  21  24
ATOM     24  O   UNL d   1      32.839 -17.426  -0.042  0.00  0.00    -0.356 OA
ATOM     25  C   UNL d   1      33.459 -16.881   1.125  0.00  0.00     0.210 C 
ENDBRANCH  21  24
ENDBRANCH   1  18
TORSDOF 4
ENDMDL
MODEL 8
REMARK VINA RESULT:    -6.170      1.919      2.784
REMARK INTER + INTRA:          -8.867
REMARK INTER:                  -7.363
REMARK INTRA:                  -1.503
REMARK CONF_INDEPENDENT:        1.193
REMARK UNBOUND:                -1.503
REMARK  4 active torsions:
REMARK  status: ('A' for Active; 'I' for Inactive)
REMARK    1  A    between atoms: O_2  and  C_3 
REMARK    2  A    between atoms: C_6  and  N_7 
REMARK       I    between atoms: N_7  and  C_8 
REMARK       I    between atoms: C_8  and  N_10 
REMARK    3  A    between atoms: N_10  and  N_11 
REMARK       I    between atoms: N_11  and  C_12 
REMARK    4  A    between atoms: C_12  and  C_14 
ROOT
ATOM      1  N   UNL d   1      27.407 -14.952  -3.622  0.00  0.00    -0.308 N 
ATOM      2  C   UNL d   1      26.170 -15.534  -3.338  0.00  0.00     0.339 C 
ATOM      3  O   UNL d   1      25.155 -15.456  -4.036  0.00  0.00    -0.245 OA
ATOM      4  N   UNL d   1      26.083 -16.268  -2.163  0.00  0.00    -0.248 N 
ATOM      5  H   UNL d   1      28.156 -15.056  -2.950  0.00  0.00     0.170 HD
ATOM      6  H   UNL d   1      26.815 -16.392  -1.471  0.00  0.00     0.192 HD
ENDROOT
BRANCH   4   7
ATOM      7  N   UNL d   1      24.810 -16.892  -1.885  0.00  0.00    -0.262 N 
ATOM      8  C   UNL d   1      24.677 -17.833  -0.879  0.00  0.00     0.270 C 
ATOM      9  O   UNL d   1      25.626 -18.185  -0.170  0.00  0.00    -0.266 OA
ATOM     10  H   UNL d   1      24.024 -16.515  -2.420  0.00  0.00     0.190 HD
BRANCH   8  11
ATOM     11  C   UNL d   1      23.323 -18.455  -0.662  0.00  0.00     0.033 A 
ATOM     12  C   UNL d   1      22.572 -18.895  -1.769  0.00  0.00     0.019 A 
ATOM     13  C   UNL d   1      21.242 -19.325  -1.616  0.00  0.00     0.025 A 
ATOM     14  C   UNL d   1      20.671 -19.372  -0.347  0.00  0.00     0.034 A 
ATOM     15 CL   UNL d   1      19.075 -19.988  -0.142  0.00  0.00    -0.084 Cl
ATOM     16  C   UNL d   1      21.402 -18.944   0.760  0.00  0.00     0.025 A 
ATOM     17  C   UNL d   1      22.722 -18.483   0.606  0.00  0.00     0.019 A 
ENDBRANCH   8  11
ENDBRANCH   4   7
BRANCH   1  18
ATOM     18  C   UNL d   1      27.680 -14.118  -4.765  0.00  0.00     0.036 A 
ATOM     19  C   UNL d   1      27.291 -12.767  -4.814  0.00  0.00     0.032 A 
ATOM     20  C   UNL d   1      27.485 -11.997  -5.991  0.00  0.00     0.039 A 
ATOM     21  C   UNL d   1      28.123 -12.538  -7.112  0.00  0.00     0.068 A 
ATOM     22  C   UNL d   1      28.540 -13.855  -7.049  0.00  0.00     0.039 A 
ATOM     23  C   UNL d   1      28.325 -14.618  -5.897  0.00  0.00     0.032 A 
BRANCH  21  24
ATOM     24  O   UNL d   1      28.381 -11.700  -8.162  0.00  0.00    -0.356 OA
ATOM     25  C   UNL d   1      27.588 -11.888  -9.338  0.00  0.00     0.210 C 
ENDBRANCH  21  24
ENDBRANCH   1  18
TORSDOF 4
ENDMDL
MODEL 9
REMARK VINA RESULT:    -6.126      2.362      3.847
REMARK INTER + INTRA:          -8.873
REMARK INTER:                  -7.319
REMARK INTRA:                  -1.553
REMARK CONF_INDEPENDENT:        1.193
REMARK UNBOUND:                -1.553
REMARK  4 active torsions:
REMARK  status: ('A' for Active; 'I' for Inactive)
REMARK    1  A    between atoms: O_2  and  C_3 
REMARK    2  A    between atoms: C_6  and  N_7 
REMARK       I    between atoms: N_7  and  C_8 
REMARK       I    between atoms: C_8  and  N_10 
REMARK    3  A    between atoms: N_10  and  N_11 
REMARK       I    between atoms: N_11  and  C_12 
REMARK    4  A    between atoms: C_12  and  C_14 
ROOT
ATOM      1  N   UNL d   1      28.259 -14.132  -4.391  0.00  0.00    -0.308 N 
ATOM      2  C   UNL d   1      27.114 -14.862  -4.067  0.00  0.00     0.339 C 
ATOM      3  O   UNL d   1      26.269 -15.279  -4.864  0.00  0.00    -0.245 OA
ATOM      4  N   UNL d   1      26.917 -15.144  -2.722  0.00  0.00    -0.248 N 
ATOM      5  H   UNL d   1      28.857 -13.812  -3.642  0.00  0.00     0.170 HD
ATOM      6  H   UNL d   1      27.498 -14.840  -1.948  0.00  0.00     0.192 HD
ENDROOT
BRANCH   4   7
ATOM      7  N   UNL d   1      25.746 -15.923  -2.391  0.00  0.00    -0.262 N 
ATOM      8  C   UNL d   1      25.427 -16.215  -1.076  0.00  0.00     0.270 C 
ATOM      9  O   UNL d   1      26.114 -15.828  -0.125  0.00  0.00    -0.266 OA
ATOM     10  H   UNL d   1      25.145 -16.150  -3.187  0.00  0.00     0.190 HD
BRANCH   8  11
ATOM     11  C   UNL d   1      24.203 -17.050  -0.811  0.00  0.00     0.033 A 
ATOM     12  C   UNL d   1      24.335 -18.438  -0.610  0.00  0.00     0.019 A 
ATOM     13  C   UNL d   1      23.203 -19.268  -0.526  0.00  0.00     0.025 A 
ATOM     14  C   UNL d   1      21.929 -18.710  -0.585  0.00  0.00     0.034 A 
ATOM     15 CL   UNL d   1      20.540 -19.709  -0.387  0.00  0.00    -0.084 Cl
ATOM     16  C   UNL d   1      21.780 -17.337  -0.779  0.00  0.00     0.025 A 
ATOM     17  C   UNL d   1      22.911 -16.509  -0.896  0.00  0.00     0.019 A 
ENDBRANCH   8  11
ENDBRANCH   4   7
BRANCH   1  18
ATOM     18  C   UNL d   1      28.610 -13.704  -5.722  0.00  0.00     0.036 A 
ATOM     19  C   UNL d   1      29.772 -14.160  -6.370  0.00  0.00     0.032 A 
ATOM     20  C   UNL d   1      30.144 -13.646  -7.641  0.00  0.00     0.039 A 
ATOM     21  C   UNL d   1      29.337 -12.721  -8.312  0.00  0.00     0.068 A 
ATOM     22  C   UNL d   1      28.175 -12.303  -7.690  0.00  0.00     0.039 A 
ATOM     23  C   UNL d   1      27.824 -12.792  -6.428  0.00  0.00     0.032 A 
BRANCH  21  24
ATOM     24  O   UNL d   1      29.700 -12.365  -9.582  0.00  0.00    -0.356 OA
ATOM     25  C   UNL d   1      31.104 -12.275  -9.842  0.00  0.00     0.210 C 
ENDBRANCH  21  24
ENDBRANCH   1  18
TORSDOF 4
ENDMDL
