MODEL 1
REMARK VINA RESULT:    -7.421      0.000      0.000
REMARK INTER + INTRA:         -10.297
REMARK INTER:                  -8.614
REMARK INTRA:                  -1.683
REMARK CONF_INDEPENDENT:        1.193
REMARK UNBOUND:                -1.683
REMARK  4 active torsions:
REMARK  status: ('A' for Active; 'I' for Inactive)
REMARK    1  A    between atoms: C_6  and  N_7 
REMARK    2  A    between atoms: N_7  and  N_8 
REMARK       I    between atoms: N_8  and  C_9 
REMARK    3  A    between atoms: C_9  and  C_11 
REMARK    4  A    between atoms: C_20  and  O_21 
ROOT
ATOM      1  N   UNL d   1      27.755 -13.867   1.172  0.00  0.00    -0.187 NA
ATOM      2  C   UNL d   1      27.547 -14.475  -0.078  0.00  0.00     0.247 C 
ATOM      3  O   UNL d   1      27.933 -13.933  -1.088  0.00  0.00    -0.273 OA
ATOM      4  H   UNL d   1      28.112 -12.925   1.047  0.00  0.00     0.150 HD
ENDROOT
BRANCH   2   5
ATOM      5  C   UNL d   1      26.704 -15.737  -0.155  0.00  0.00     0.061 A 
ATOM      6  C   UNL d   1      25.346 -15.580  -0.445  0.00  0.00     0.031 A 
ATOM      7  C   UNL d   1      24.427 -16.655  -0.408  0.00  0.00    -0.028 A 
ATOM      8  C   UNL d   1      23.110 -16.363  -0.719  0.00  0.00    -0.005 C 
ATOM      9  C   UNL d   1      24.783 -17.980  -0.094  0.00  0.00    -0.024 A 
ATOM     10  C   UNL d   1      22.183 -17.381  -0.895  0.00  0.00     0.043 C 
ATOM     11  C   UNL d   1      22.294 -18.565  -0.231  0.00  0.00    -0.016 C 
ATOM     12  C   UNL d   1      23.640 -18.951  -0.025  0.00  0.00     0.009 C 
ATOM     13  C   UNL d   1      26.216 -18.132   0.137  0.00  0.00     0.049 A 
ATOM     14  C   UNL d   1      27.127 -17.029   0.146  0.00  0.00     0.081 A 
BRANCH  14  15
ATOM     15  O   UNL d   1      28.436 -17.205   0.507  0.00  0.00    -0.360 OA
ATOM     16  H   UNL d   1      28.831 -16.478   1.004  0.00  0.00     0.217 HD
ENDBRANCH  14  15
ENDBRANCH   2   5
BRANCH   1  17
ATOM     17  N   UNL d   1      28.552 -14.598   2.127  0.00  0.00    -0.220 NA
ATOM     18  H   UNL d   1      28.409 -15.604   2.012  0.00  0.00     0.147 HD
BRANCH  17  19
ATOM     19  C   UNL d   1      28.323 -14.242   3.491  0.00  0.00     0.023 A 
ATOM     20  C   UNL d   1      28.543 -15.194   4.504  0.00  0.00     0.025 A 
ATOM     21  C   UNL d   1      28.529 -14.831   5.859  0.00  0.00     0.002 A 
ATOM     22  C   UNL d   1      28.311 -13.505   6.227  0.00  0.00     0.007 A 
ATOM     23  C   UNL d   1      28.078 -12.544   5.244  0.00  0.00    -0.060 A 
ATOM     24  C   UNL d   1      27.873 -11.101   5.594  0.00  0.00     0.048 C 
ATOM     25  C   UNL d   1      28.079 -12.922   3.891  0.00  0.00     0.031 A 
ENDBRANCH  17  19
ENDBRANCH   1  17
TORSDOF 4
ENDMDL
MODEL 2
REMARK VINA RESULT:    -7.036      5.424      8.044
REMARK INTER + INTRA:         -10.373
REMARK INTER:                  -8.230
REMARK INTRA:                  -2.143
REMARK CONF_INDEPENDENT:        1.193
REMARK UNBOUND:                -2.143
REMARK  4 active torsions:
REMARK  status: ('A' for Active; 'I' for Inactive)
REMARK    1  A    between atoms: C_6  and  N_7 
REMARK    2  A    between atoms: N_7  and  N_8 
REMARK       I    between atoms: N_8  and  C_9 
REMARK    3  A    between atoms: C_9  and  C_11 
REMARK    4  A    between atoms: C_20  and  O_21 
ROOT
ATOM      1  N   UNL d   1      25.347 -15.558  -3.697  0.00  0.00    -0.187 NA
ATOM      2  C   UNL d   1      25.156 -14.253  -4.181  0.00  0.00     0.247 C 
ATOM      3  O   UNL d   1      24.089 -13.700  -4.030  0.00  0.00    -0.273 OA
ATOM      4  H   UNL d   1      24.465 -15.945  -3.377  0.00  0.00     0.150 HD
ENDROOT
BRANCH   2   5
ATOM      5  C   UNL d   1      26.245 -13.607  -5.020  0.00  0.00     0.061 A 
ATOM      6  C   UNL d   1      26.057 -12.273  -5.392  0.00  0.00     0.031 A 
ATOM      7  C   UNL d   1      26.923 -11.600  -6.285  0.00  0.00    -0.028 A 
ATOM      8  C   UNL d   1      26.624 -10.278  -6.569  0.00  0.00    -0.005 C 
ATOM      9  C   UNL d   1      28.057 -12.191  -6.874  0.00  0.00    -0.024 A 
ATOM     10  C   UNL d   1      27.518  -9.487  -7.276  0.00  0.00     0.043 C 
ATOM     11  C   UNL d   1      28.361 -10.023  -8.204  0.00  0.00    -0.016 C 
ATOM     12  C   UNL d   1      28.789 -11.328  -7.861  0.00  0.00     0.009 C 
ATOM     13  C   UNL d   1      28.271 -13.560  -6.418  0.00  0.00     0.049 A 
ATOM     14  C   UNL d   1      27.361 -14.247  -5.553  0.00  0.00     0.081 A 
BRANCH  14  15
ATOM     15  O   UNL d   1      27.533 -15.575  -5.268  0.00  0.00    -0.360 OA
ATOM     16  H   UNL d   1      26.834 -15.980  -4.740  0.00  0.00     0.217 HD
ENDBRANCH  14  15
ENDBRANCH   2   5
BRANCH   1  17
ATOM     17  N   UNL d   1      26.380 -15.740  -2.707  0.00  0.00    -0.220 NA
ATOM     18  H   UNL d   1      27.258 -16.011  -3.155  0.00  0.00     0.147 HD
BRANCH  17  19
ATOM     19  C   UNL d   1      26.064 -16.683  -1.682  0.00  0.00     0.023 A 
ATOM     20  C   UNL d   1      27.024 -16.991  -0.699  0.00  0.00     0.025 A 
ATOM     21  C   UNL d   1      26.689 -17.748   0.433  0.00  0.00     0.002 A 
ATOM     22  C   UNL d   1      25.384 -18.200   0.613  0.00  0.00     0.007 A 
ATOM     23  C   UNL d   1      24.417 -17.921  -0.351  0.00  0.00    -0.060 A 
ATOM     24  C   UNL d   1      22.993 -18.359  -0.180  0.00  0.00     0.048 C 
ATOM     25  C   UNL d   1      24.766 -17.174  -1.488  0.00  0.00     0.031 A 
ENDBRANCH  17  19
ENDBRANCH   1  17
TORSDOF 4
ENDMDL
MODEL 3
REMARK VINA RESULT:    -6.857      5.156      8.019
REMARK INTER + INTRA:         -10.219
REMARK INTER:                  -8.050
REMARK INTRA:                  -2.169
REMARK CONF_INDEPENDENT:        1.193
REMARK UNBOUND:                -2.169
REMARK  4 active torsions:
REMARK  status: ('A' for Active; 'I' for Inactive)
REMARK    1  A    between atoms: C_6  and  N_7 
REMARK    2  A    between atoms: N_7  and  N_8 
REMARK       I    between atoms: N_8  and  C_9 
REMARK    3  A    between atoms: C_9  and  C_11 
REMARK    4  A    between atoms: C_20  and  O_21 
ROOT
ATOM      1  N   UNL d   1      26.613 -15.508  -3.457  0.00  0.00    -0.187 NA
ATOM      2  C   UNL d   1      26.766 -14.738  -4.623  0.00  0.00     0.247 C 
ATOM      3  O   UNL d   1      27.336 -15.200  -5.585  0.00  0.00    -0.273 OA
ATOM      4  H   UNL d   1      27.153 -16.364  -3.531  0.00  0.00     0.150 HD
ENDROOT
BRANCH   2   5
ATOM      5  C   UNL d   1      26.342 -13.279  -4.608  0.00  0.00     0.061 A 
ATOM      6  C   UNL d   1      26.629 -12.519  -5.745  0.00  0.00     0.031 A 
ATOM      7  C   UNL d   1      26.417 -11.122  -5.805  0.00  0.00    -0.028 A 
ATOM      8  C   UNL d   1      26.742 -10.490  -6.993  0.00  0.00    -0.005 C 
ATOM      9  C   UNL d   1      25.887 -10.364  -4.744  0.00  0.00    -0.024 A 
ATOM     10  C   UNL d   1      26.389  -9.166  -7.208  0.00  0.00     0.043 C 
ATOM     11  C   UNL d   1      26.290  -8.280  -6.178  0.00  0.00    -0.016 C 
ATOM     12  C   UNL d   1      25.825  -8.883  -4.984  0.00  0.00     0.009 C 
ATOM     13  C   UNL d   1      25.531 -11.188  -3.594  0.00  0.00     0.049 A 
ATOM     14  C   UNL d   1      25.797 -12.592  -3.526  0.00  0.00     0.081 A 
BRANCH  14  15
ATOM     15  O   UNL d   1      25.573 -13.292  -2.371  0.00  0.00    -0.360 OA
ATOM     16  H   UNL d   1      26.181 -14.023  -2.204  0.00  0.00     0.217 HD
ENDBRANCH  14  15
ENDBRANCH   2   5
BRANCH   1  17
ATOM     17  N   UNL d   1      25.264 -15.783  -3.031  0.00  0.00    -0.220 NA
ATOM     18  H   UNL d   1      24.787 -14.914  -2.776  0.00  0.00     0.147 HD
BRANCH  17  19
ATOM     19  C   UNL d   1      25.157 -16.712  -1.951  0.00  0.00     0.023 A 
ATOM     20  C   UNL d   1      26.216 -16.835  -1.031  0.00  0.00     0.025 A 
ATOM     21  C   UNL d   1      26.072 -17.578   0.149  0.00  0.00     0.002 A 
ATOM     22  C   UNL d   1      24.861 -18.200   0.442  0.00  0.00     0.007 A 
ATOM     23  C   UNL d   1      23.800 -18.106  -0.458  0.00  0.00    -0.060 A 
ATOM     24  C   UNL d   1      22.469 -18.732  -0.167  0.00  0.00     0.048 C 
ATOM     25  C   UNL d   1      23.960 -17.372  -1.645  0.00  0.00     0.031 A 
ENDBRANCH  17  19
ENDBRANCH   1  17
TORSDOF 4
ENDMDL
MODEL 4
REMARK VINA RESULT:    -6.840      5.539      7.950
REMARK INTER + INTRA:         -10.139
REMARK INTER:                  -8.033
REMARK INTRA:                  -2.106
REMARK CONF_INDEPENDENT:        1.193
REMARK UNBOUND:                -2.106
REMARK  4 active torsions:
REMARK  status: ('A' for Active; 'I' for Inactive)
REMARK    1  A    between atoms: C_6  and  N_7 
REMARK    2  A    between atoms: N_7  and  N_8 
REMARK       I    between atoms: N_8  and  C_9 
REMARK    3  A    between atoms: C_9  and  C_11 
REMARK    4  A    between atoms: C_20  and  O_21 
ROOT
ATOM      1  N   UNL d   1      26.231 -13.129  -5.286  0.00  0.00    -0.187 NA
ATOM      2  C   UNL d   1      26.977 -14.010  -4.484  0.00  0.00     0.247 C 
ATOM      3  O   UNL d   1      28.121 -14.276  -4.775  0.00  0.00    -0.273 OA
ATOM      4  H   UNL d   1      26.741 -12.917  -6.138  0.00  0.00     0.150 HD
ENDROOT
BRANCH   2   5
ATOM      5  C   UNL d   1      26.286 -14.734  -3.340  0.00  0.00     0.061 A 
ATOM      6  C   UNL d   1      27.083 -15.534  -2.517  0.00  0.00     0.031 A 
ATOM      7  C   UNL d   1      26.545 -16.369  -1.510  0.00  0.00    -0.028 A 
ATOM      8  C   UNL d   1      27.447 -17.109  -0.764  0.00  0.00    -0.005 C 
ATOM      9  C   UNL d   1      25.170 -16.467  -1.224  0.00  0.00    -0.024 A 
ATOM     10  C   UNL d   1      27.030 -17.801   0.364  0.00  0.00     0.043 C 
ATOM     11  C   UNL d   1      25.764 -18.297   0.467  0.00  0.00    -0.016 C 
ATOM     12  C   UNL d   1      24.805 -17.477  -0.175  0.00  0.00     0.009 C 
ATOM     13  C   UNL d   1      24.365 -15.572  -2.049  0.00  0.00     0.049 A 
ATOM     14  C   UNL d   1      24.915 -14.770  -3.098  0.00  0.00     0.081 A 
BRANCH  14  15
ATOM     15  O   UNL d   1      24.099 -14.056  -3.934  0.00  0.00    -0.360 OA
ATOM     16  H   UNL d   1      24.521 -13.712  -4.732  0.00  0.00     0.217 HD
ENDBRANCH  14  15
ENDBRANCH   2   5
BRANCH   1  17
ATOM     17  N   UNL d   1      25.753 -11.923  -4.657  0.00  0.00    -0.220 NA
ATOM     18  H   UNL d   1      24.770 -12.027  -4.391  0.00  0.00     0.147 HD
BRANCH  17  19
ATOM     19  C   UNL d   1      25.905 -10.740  -5.443  0.00  0.00     0.023 A 
ATOM     20  C   UNL d   1      26.663 -10.785  -6.628  0.00  0.00     0.025 A 
ATOM     21  C   UNL d   1      26.669  -9.710  -7.529  0.00  0.00     0.002 A 
ATOM     22  C   UNL d   1      25.905  -8.574  -7.270  0.00  0.00     0.007 A 
ATOM     23  C   UNL d   1      25.156  -8.498  -6.097  0.00  0.00    -0.060 A 
ATOM     24  C   UNL d   1      24.294  -7.309  -5.796  0.00  0.00     0.048 C 
ATOM     25  C   UNL d   1      25.169  -9.575  -5.195  0.00  0.00     0.031 A 
ENDBRANCH  17  19
ENDBRANCH   1  17
TORSDOF 4
ENDMDL
MODEL 5
REMARK VINA RESULT:    -6.814      5.354      8.013
REMARK INTER + INTRA:         -10.250
REMARK INTER:                  -8.007
REMARK INTRA:                  -2.242
REMARK CONF_INDEPENDENT:        1.193
REMARK UNBOUND:                -2.242
REMARK  4 active torsions:
REMARK  status: ('A' for Active; 'I' for Inactive)
REMARK    1  A    between atoms: C_6  and  N_7 
REMARK    2  A    between atoms: N_7  and  N_8 
REMARK       I    between atoms: N_8  and  C_9 
REMARK    3  A    between atoms: C_9  and  C_11 
REMARK    4  A    between atoms: C_20  and  O_21 
ROOT
ATOM      1  N   UNL d   1      27.004 -14.021  -5.297  0.00  0.00    -0.187 NA
ATOM      2  C   UNL d   1      25.942 -14.505  -4.514  0.00  0.00     0.247 C 
ATOM      3  O   UNL d   1      24.823 -14.072  -4.675  0.00  0.00    -0.273 OA
ATOM      4  H   UNL d   1      26.700 -13.222  -5.843  0.00  0.00     0.150 HD
ENDROOT
BRANCH   2   5
ATOM      5  C   UNL d   1      26.240 -15.461  -3.371  0.00  0.00     0.061 A 
ATOM      6  C   UNL d   1      25.147 -15.977  -2.670  0.00  0.00     0.031 A 
ATOM      7  C   UNL d   1      25.290 -16.761  -1.501  0.00  0.00    -0.028 A 
ATOM      8  C   UNL d   1      24.125 -17.212  -0.904  0.00  0.00    -0.005 C 
ATOM      9  C   UNL d   1      26.532 -17.112  -0.939  0.00  0.00    -0.024 A 
ATOM     10  C   UNL d   1      24.172 -18.141   0.126  0.00  0.00     0.043 C 
ATOM     11  C   UNL d   1      25.232 -18.201   0.980  0.00  0.00    -0.016 C 
ATOM     12  C   UNL d   1      26.458 -17.876   0.351  0.00  0.00     0.009 C 
ATOM     13  C   UNL d   1      27.657 -16.621  -1.727  0.00  0.00     0.049 A 
ATOM     14  C   UNL d   1      27.501 -15.787  -2.879  0.00  0.00     0.081 A 
BRANCH  14  15
ATOM     15  O   UNL d   1      28.591 -15.236  -3.498  0.00  0.00    -0.360 OA
ATOM     16  H   UNL d   1      28.394 -14.627  -4.220  0.00  0.00     0.217 HD
ENDBRANCH  14  15
ENDBRANCH   2   5
BRANCH   1  17
ATOM     17  N   UNL d   1      27.693 -14.980  -6.124  0.00  0.00    -0.220 NA
ATOM     18  H   UNL d   1      28.028 -15.763  -5.557  0.00  0.00     0.147 HD
BRANCH  17  19
ATOM     19  C   UNL d   1      28.782 -14.445  -6.877  0.00  0.00     0.023 A 
ATOM     20  C   UNL d   1      28.653 -13.183  -7.486  0.00  0.00     0.025 A 
ATOM     21  C   UNL d   1      29.757 -12.533  -8.058  0.00  0.00     0.002 A 
ATOM     22  C   UNL d   1      31.016 -13.127  -8.017  0.00  0.00     0.007 A 
ATOM     23  C   UNL d   1      31.170 -14.383  -7.431  0.00  0.00    -0.060 A 
ATOM     24  C   UNL d   1      32.514 -15.042  -7.336  0.00  0.00     0.048 C 
ATOM     25  C   UNL d   1      30.055 -15.030  -6.876  0.00  0.00     0.031 A 
ENDBRANCH  17  19
ENDBRANCH   1  17
TORSDOF 4
ENDMDL
MODEL 6
REMARK VINA RESULT:    -6.761      5.242      7.628
REMARK INTER + INTRA:          -9.828
REMARK INTER:                  -7.955
REMARK INTRA:                  -1.873
REMARK CONF_INDEPENDENT:        1.193
REMARK UNBOUND:                -1.873
REMARK  4 active torsions:
REMARK  status: ('A' for Active; 'I' for Inactive)
REMARK    1  A    between atoms: C_6  and  N_7 
REMARK    2  A    between atoms: N_7  and  N_8 
REMARK       I    between atoms: N_8  and  C_9 
REMARK    3  A    between atoms: C_9  and  C_11 
REMARK    4  A    between atoms: C_20  and  O_21 
ROOT
ATOM      1  N   UNL d   1      25.176 -12.449  -3.780  0.00  0.00    -0.187 NA
ATOM      2  C   UNL d   1      24.740 -13.785  -3.780  0.00  0.00     0.247 C 
ATOM      3  O   UNL d   1      23.672 -14.075  -4.271  0.00  0.00    -0.273 OA
ATOM      4  H   UNL d   1      24.430 -11.838  -4.096  0.00  0.00     0.150 HD
ENDROOT
BRANCH   2   5
ATOM      5  C   UNL d   1      25.550 -14.828  -3.029  0.00  0.00     0.061 A 
ATOM      6  C   UNL d   1      24.881 -15.579  -2.059  0.00  0.00     0.031 A 
ATOM      7  C   UNL d   1      25.547 -16.479  -1.195  0.00  0.00    -0.028 A 
ATOM      8  C   UNL d   1      24.765 -17.163  -0.280  0.00  0.00    -0.005 C 
ATOM      9  C   UNL d   1      26.934 -16.721  -1.233  0.00  0.00    -0.024 A 
ATOM     10  C   UNL d   1      25.299 -18.200   0.471  0.00  0.00     0.043 C 
ATOM     11  C   UNL d   1      26.616 -18.220   0.820  0.00  0.00    -0.016 C 
ATOM     12  C   UNL d   1      27.451 -17.648  -0.170  0.00  0.00     0.009 C 
ATOM     13  C   UNL d   1      27.600 -15.979  -2.297  0.00  0.00     0.049 A 
ATOM     14  C   UNL d   1      26.924 -15.033  -3.132  0.00  0.00     0.081 A 
BRANCH  14  15
ATOM     15  O   UNL d   1      27.621 -14.260  -4.021  0.00  0.00    -0.360 OA
ATOM     16  H   UNL d   1      27.094 -13.623  -4.519  0.00  0.00     0.217 HD
ENDBRANCH  14  15
ENDBRANCH   2   5
BRANCH   1  17
ATOM     17  N   UNL d   1      26.405 -12.165  -4.477  0.00  0.00    -0.220 NA
ATOM     18  H   UNL d   1      27.188 -12.130  -3.819  0.00  0.00     0.147 HD
BRANCH  17  19
ATOM     19  C   UNL d   1      26.388 -10.966  -5.252  0.00  0.00     0.023 A 
ATOM     20  C   UNL d   1      26.852 -10.989  -6.581  0.00  0.00     0.025 A 
ATOM     21  C   UNL d   1      26.664  -9.894  -7.437  0.00  0.00     0.002 A 
ATOM     22  C   UNL d   1      25.996  -8.759  -6.986  0.00  0.00     0.007 A 
ATOM     23  C   UNL d   1      25.538  -8.703  -5.670  0.00  0.00    -0.060 A 
ATOM     24  C   UNL d   1      24.784  -7.515  -5.154  0.00  0.00     0.048 C 
ATOM     25  C   UNL d   1      25.744  -9.801  -4.817  0.00  0.00     0.031 A 
ENDBRANCH  17  19
ENDBRANCH   1  17
TORSDOF 4
ENDMDL
MODEL 7
REMARK VINA RESULT:    -6.642      1.917      7.631
REMARK INTER + INTRA:          -9.789
REMARK INTER:                  -7.835
REMARK INTRA:                  -1.954
REMARK CONF_INDEPENDENT:        1.193
REMARK UNBOUND:                -1.954
REMARK  4 active torsions:
REMARK  status: ('A' for Active; 'I' for Inactive)
REMARK    1  A    between atoms: C_6  and  N_7 
REMARK    2  A    between atoms: N_7  and  N_8 
REMARK       I    between atoms: N_8  and  C_9 
REMARK    3  A    between atoms: C_9  and  C_11 
REMARK    4  A    between atoms: C_20  and  O_21 
ROOT
ATOM      1  N   UNL d   1      27.855 -14.156   1.399  0.00  0.00    -0.187 NA
ATOM      2  C   UNL d   1      27.455 -13.536   2.595  0.00  0.00     0.247 C 
ATOM      3  O   UNL d   1      26.527 -12.758   2.594  0.00  0.00    -0.273 OA
ATOM      4  H   UNL d   1      27.365 -13.745   0.611  0.00  0.00     0.150 HD
ENDROOT
BRANCH   2   5
ATOM      5  C   UNL d   1      28.289 -13.736   3.848  0.00  0.00     0.061 A 
ATOM      6  C   UNL d   1      27.808 -13.172   5.033  0.00  0.00     0.031 A 
ATOM      7  C   UNL d   1      28.554 -13.164   6.234  0.00  0.00    -0.028 A 
ATOM      8  C   UNL d   1      27.958 -12.575   7.336  0.00  0.00    -0.005 C 
ATOM      9  C   UNL d   1      29.837 -13.729   6.365  0.00  0.00    -0.024 A 
ATOM     10  C   UNL d   1      28.530 -12.691   8.596  0.00  0.00     0.043 C 
ATOM     11  C   UNL d   1      29.878 -12.811   8.755  0.00  0.00    -0.016 C 
ATOM     12  C   UNL d   1      30.489 -13.534   7.703  0.00  0.00     0.009 C 
ATOM     13  C   UNL d   1      30.289 -14.371   5.136  0.00  0.00     0.049 A 
ATOM     14  C   UNL d   1      29.548 -14.330   3.913  0.00  0.00     0.081 A 
BRANCH  14  15
ATOM     15  O   UNL d   1      30.081 -14.825   2.753  0.00  0.00    -0.360 OA
ATOM     16  H   UNL d   1      29.477 -15.344   2.207  0.00  0.00     0.217 HD
ENDBRANCH  14  15
ENDBRANCH   2   5
BRANCH   1  17
ATOM     17  N   UNL d   1      27.783 -15.596   1.357  0.00  0.00    -0.220 NA
ATOM     18  H   UNL d   1      28.723 -15.997   1.309  0.00  0.00     0.147 HD
BRANCH  17  19
ATOM     19  C   UNL d   1      26.991 -16.123   0.293  0.00  0.00     0.023 A 
ATOM     20  C   UNL d   1      26.430 -17.408   0.414  0.00  0.00     0.025 A 
ATOM     21  C   UNL d   1      25.485 -17.880  -0.510  0.00  0.00     0.002 A 
ATOM     22  C   UNL d   1      25.070 -17.069  -1.563  0.00  0.00     0.007 A 
ATOM     23  C   UNL d   1      25.619 -15.796  -1.714  0.00  0.00    -0.060 A 
ATOM     24  C   UNL d   1      25.175 -14.879  -2.814  0.00  0.00     0.048 C 
ATOM     25  C   UNL d   1      26.576 -15.340  -0.792  0.00  0.00     0.031 A 
ENDBRANCH  17  19
ENDBRANCH   1  17
TORSDOF 4
ENDMDL
MODEL 8
REMARK VINA RESULT:    -6.402      3.793      6.217
REMARK INTER + INTRA:          -9.710
REMARK INTER:                  -7.595
REMARK INTRA:                  -2.114
REMARK CONF_INDEPENDENT:        1.193
REMARK UNBOUND:                -2.114
REMARK  4 active torsions:
REMARK  status: ('A' for Active; 'I' for Inactive)
REMARK    1  A    between atoms: C_6  and  N_7 
REMARK    2  A    between atoms: N_7  and  N_8 
REMARK       I    between atoms: N_8  and  C_9 
REMARK    3  A    between atoms: C_9  and  C_11 
REMARK    4  A    between atoms: C_20  and  O_21 
ROOT
ATOM      1  N   UNL d   1      24.707 -18.045  -0.894  0.00  0.00    -0.187 NA
ATOM      2  C   UNL d   1      23.846 -18.242   0.199  0.00  0.00     0.247 C 
ATOM      3  O   UNL d   1      24.268 -18.141   1.329  0.00  0.00    -0.273 OA
ATOM      4  H   UNL d   1      25.667 -17.967  -0.573  0.00  0.00     0.150 HD
ENDROOT
BRANCH   2   5
ATOM      5  C   UNL d   1      22.429 -18.726  -0.053  0.00  0.00     0.061 A 
ATOM      6  C   UNL d   1      21.622 -18.950   1.066  0.00  0.00     0.031 A 
ATOM      7  C   UNL d   1      20.337 -19.534   0.978  0.00  0.00    -0.028 A 
ATOM      8  C   UNL d   1      19.642 -19.698   2.164  0.00  0.00    -0.005 C 
ATOM      9  C   UNL d   1      19.737 -19.930  -0.232  0.00  0.00    -0.024 A 
ATOM     10  C   UNL d   1      18.308 -20.079   2.154  0.00  0.00     0.043 C 
ATOM     11  C   UNL d   1      17.799 -20.861   1.160  0.00  0.00    -0.016 C 
ATOM     12  C   UNL d   1      18.405 -20.608  -0.094  0.00  0.00     0.009 C 
ATOM     13  C   UNL d   1      20.568 -19.624  -1.391  0.00  0.00     0.049 A 
ATOM     14  C   UNL d   1      21.887 -19.080  -1.286  0.00  0.00     0.081 A 
BRANCH  14  15
ATOM     15  O   UNL d   1      22.679 -18.943  -2.395  0.00  0.00    -0.360 OA
ATOM     16  H   UNL d   1      23.630 -18.952  -2.230  0.00  0.00     0.217 HD
ENDBRANCH  14  15
ENDBRANCH   2   5
BRANCH   1  17
ATOM     17  N   UNL d   1      24.377 -16.971  -1.798  0.00  0.00    -0.220 NA
ATOM     18  H   UNL d   1      24.202 -17.339  -2.737  0.00  0.00     0.147 HD
BRANCH  17  19
ATOM     19  C   UNL d   1      25.353 -15.932  -1.873  0.00  0.00     0.023 A 
ATOM     20  C   UNL d   1      25.318 -15.020  -2.944  0.00  0.00     0.025 A 
ATOM     21  C   UNL d   1      26.123 -13.871  -2.949  0.00  0.00     0.002 A 
ATOM     22  C   UNL d   1      26.968 -13.604  -1.875  0.00  0.00     0.007 A 
ATOM     23  C   UNL d   1      27.033 -14.498  -0.807  0.00  0.00    -0.060 A 
ATOM     24  C   UNL d   1      27.904 -14.231   0.384  0.00  0.00     0.048 C 
ATOM     25  C   UNL d   1      26.233 -15.652  -0.820  0.00  0.00     0.031 A 
ENDBRANCH  17  19
ENDBRANCH   1  17
TORSDOF 4
ENDMDL
MODEL 9
REMARK VINA RESULT:    -6.340      3.186      4.941
REMARK INTER + INTRA:          -9.792
REMARK INTER:                  -7.533
REMARK INTRA:                  -2.259
REMARK CONF_INDEPENDENT:        1.193
REMARK UNBOUND:                -2.259
REMARK  4 active torsions:
REMARK  status: ('A' for Active; 'I' for Inactive)
REMARK    1  A    between atoms: C_6  and  N_7 
REMARK    2  A    between atoms: N_7  and  N_8 
REMARK       I    between atoms: N_8  and  C_9 
REMARK    3  A    between atoms: C_9  and  C_11 
REMARK    4  A    between atoms: C_20  and  O_21 
ROOT
ATOM      1  N   UNL d   1      28.404 -14.893   0.002  0.00  0.00    -0.187 NA
ATOM      2  C   UNL d   1      27.009 -14.861   0.169  0.00  0.00     0.247 C 
ATOM      3  O   UNL d   1      26.481 -13.895   0.672  0.00  0.00    -0.273 OA
ATOM      4  H   UNL d   1      28.831 -14.105   0.476  0.00  0.00     0.150 HD
ENDROOT
BRANCH   2   5
ATOM      5  C   UNL d   1      26.196 -16.104  -0.150  0.00  0.00     0.061 A 
ATOM      6  C   UNL d   1      24.813 -15.947  -0.275  0.00  0.00     0.031 A 
ATOM      7  C   UNL d   1      23.931 -17.042  -0.428  0.00  0.00    -0.028 A 
ATOM      8  C   UNL d   1      22.583 -16.747  -0.543  0.00  0.00    -0.005 C 
ATOM      9  C   UNL d   1      24.349 -18.385  -0.486  0.00  0.00    -0.024 A 
ATOM     10  C   UNL d   1      21.670 -17.734  -0.889  0.00  0.00     0.043 C 
ATOM     11  C   UNL d   1      21.874 -19.039  -0.553  0.00  0.00    -0.016 C 
ATOM     12  C   UNL d   1      23.243 -19.397  -0.565  0.00  0.00     0.009 C 
ATOM     13  C   UNL d   1      25.800 -18.518  -0.423  0.00  0.00     0.049 A 
ATOM     14  C   UNL d   1      26.680 -17.408  -0.217  0.00  0.00     0.081 A 
BRANCH  14  15
ATOM     15  O   UNL d   1      28.021 -17.604  -0.024  0.00  0.00    -0.360 OA
ATOM     16  H   UNL d   1      28.588 -16.863  -0.273  0.00  0.00     0.217 HD
ENDBRANCH  14  15
ENDBRANCH   2   5
BRANCH   1  17
ATOM     17  N   UNL d   1      28.896 -15.011  -1.349  0.00  0.00    -0.220 NA
ATOM     18  H   UNL d   1      29.758 -14.473  -1.461  0.00  0.00     0.147 HD
BRANCH  17  19
ATOM     19  C   UNL d   1      27.963 -14.623  -2.358  0.00  0.00     0.023 A 
ATOM     20  C   UNL d   1      27.381 -15.605  -3.182  0.00  0.00     0.025 A 
ATOM     21  C   UNL d   1      26.317 -15.296  -4.042  0.00  0.00     0.002 A 
ATOM     22  C   UNL d   1      25.803 -14.002  -4.083  0.00  0.00     0.007 A 
ATOM     23  C   UNL d   1      26.369 -13.007  -3.287  0.00  0.00    -0.060 A 
ATOM     24  C   UNL d   1      25.824 -11.611  -3.276  0.00  0.00     0.048 C 
ATOM     25  C   UNL d   1      27.444 -13.325  -2.441  0.00  0.00     0.031 A 
ENDBRANCH  17  19
ENDBRANCH   1  17
TORSDOF 4
ENDMDL
