MODEL 1
REMARK VINA RESULT:    -7.903      0.000      0.000
REMARK INTER + INTRA:         -11.817
REMARK INTER:                 -10.886
REMARK INTRA:                  -0.931
REMARK CONF_INDEPENDENT:        2.983
REMARK UNBOUND:                -0.931
REMARK  10 active torsions:
REMARK  status: ('A' for Active; 'I' for Inactive)
REMARK    1  A    between atoms: C_2  and  C_3 
REMARK    2  A    between atoms: C_3  and  C_4 
REMARK    3  A    between atoms: C_4  and  C_5 
REMARK    4  A    between atoms: C_5  and  C_6 
REMARK    5  A    between atoms: C_6  and  C_7 
REMARK    6  A    between atoms: C_11  and  C_12 
REMARK    7  A    between atoms: N_14  and  N_15 
REMARK       I    between atoms: N_15  and  C_16 
REMARK    8  A    between atoms: C_16  and  C_18 
REMARK    9  A    between atoms: C_21  and  N_22 
REMARK   10  A    between atoms: C_32  and  O_33 
ROOT
ATOM      1  C   UNL d   1      25.081 -17.775  -0.199  0.00  0.00    -0.024 A 
ATOM      2  C   UNL d   1      24.784 -16.741  -1.106  0.00  0.00     0.024 A 
ATOM      3  C   UNL d   1      25.774 -15.825  -1.474  0.00  0.00    -0.000 A 
ATOM      4  C   UNL d   1      25.536 -14.731  -2.408  0.00  0.00     0.034 A 
ATOM      5  C   UNL d   1      26.494 -13.840  -2.742  0.00  0.00     0.066 A 
ATOM      6  C   UNL d   1      27.855 -13.985  -2.125  0.00  0.00     0.300 A 
ATOM      7  O   UNL d   1      28.796 -13.232  -2.345  0.00  0.00    -0.259 OA
ATOM      8  O   UNL d   1      28.050 -15.048  -1.247  0.00  0.00    -0.274 OA
ATOM      9  C   UNL d   1      27.036 -15.954  -0.917  0.00  0.00     0.092 A 
ATOM     10  C   UNL d   1      27.358 -16.963  -0.017  0.00  0.00     0.075 A 
ATOM     11  C   UNL d   1      26.376 -17.878   0.327  0.00  0.00     0.074 A 
ENDROOT
BRANCH   5  12
ATOM     12  C   UNL d   1      26.210 -12.700  -3.721  0.00  0.00     0.067 C 
ATOM     13  C   UNL d   1      26.835 -12.728  -5.108  0.00  0.00     0.073 C 
ATOM     14  N   UNL d   1      25.435 -11.709  -3.370  0.00  0.00    -0.176 NA
BRANCH  14  15
ATOM     15  N   UNL d   1      25.156 -10.670  -4.229  0.00  0.00    -0.243 N 
ATOM     16  C   UNL d   1      25.429  -9.364  -3.830  0.00  0.00     0.271 C 
ATOM     17  O   UNL d   1      25.893  -9.024  -2.743  0.00  0.00    -0.266 OA
ATOM     18  H   UNL d   1      24.847 -10.862  -5.172  0.00  0.00     0.192 HD
BRANCH  16  19
ATOM     19  C   UNL d   1      25.163  -8.286  -4.827  0.00  0.00     0.033 A 
ATOM     20  C   UNL d   1      23.829  -7.897  -5.046  0.00  0.00     0.019 A 
ATOM     21  C   UNL d   1      23.507  -6.960  -6.036  0.00  0.00     0.037 A 
ATOM     22  C   UNL d   1      24.532  -6.361  -6.776  0.00  0.00     0.102 A 
ATOM     23  C   UNL d   1      25.865  -6.761  -6.588  0.00  0.00     0.037 A 
ATOM     24  C   UNL d   1      26.177  -7.730  -5.618  0.00  0.00     0.019 A 
BRANCH  22  25
ATOM     25  N   UNL d   1      24.215  -5.260  -7.701  0.00  0.00    -0.116 N 
ATOM     26  O   UNL d   1      23.060  -4.811  -7.691  0.00  0.00    -0.532 OA
ATOM     27  O   UNL d   1      25.132  -4.820  -8.408  0.00  0.00    -0.532 OA
ENDBRANCH  22  25
ENDBRANCH  16  19
ENDBRANCH  14  15
ENDBRANCH   5  12
BRANCH   1  28
ATOM     28  C   UNL d   1      23.996 -18.710   0.270  0.00  0.00     0.041 C 
BRANCH  28  29
ATOM     29  C   UNL d   1      22.935 -18.853  -0.818  0.00  0.00     0.005 C 
BRANCH  29  30
ATOM     30  C   UNL d   1      21.547 -18.621  -0.250  0.00  0.00     0.000 C 
BRANCH  30  31
ATOM     31  C   UNL d   1      20.503 -19.278  -1.142  0.00  0.00    -0.000 C 
BRANCH  31  32
ATOM     32  C   UNL d   1      19.519 -20.082  -0.305  0.00  0.00    -0.005 C 
ATOM     33  C   UNL d   1      19.581 -19.651   1.147  0.00  0.00     0.005 C 
ENDBRANCH  31  32
ENDBRANCH  30  31
ENDBRANCH  29  30
ENDBRANCH  28  29
ENDBRANCH   1  28
BRANCH  11  34
ATOM     34  O   UNL d   1      26.656 -18.888   1.203  0.00  0.00    -0.360 OA
ATOM     35  H   UNL d   1      27.590 -19.141   1.115  0.00  0.00     0.217 HD
ENDBRANCH  11  34
TORSDOF 10
ENDMDL
MODEL 2
REMARK VINA RESULT:    -7.838      7.002     11.211
REMARK INTER + INTRA:         -11.714
REMARK INTER:                 -10.821
REMARK INTRA:                  -0.893
REMARK CONF_INDEPENDENT:        2.983
REMARK UNBOUND:                -0.893
REMARK  10 active torsions:
REMARK  status: ('A' for Active; 'I' for Inactive)
REMARK    1  A    between atoms: C_2  and  C_3 
REMARK    2  A    between atoms: C_3  and  C_4 
REMARK    3  A    between atoms: C_4  and  C_5 
REMARK    4  A    between atoms: C_5  and  C_6 
REMARK    5  A    between atoms: C_6  and  C_7 
REMARK    6  A    between atoms: C_11  and  C_12 
REMARK    7  A    between atoms: N_14  and  N_15 
REMARK       I    between atoms: N_15  and  C_16 
REMARK    8  A    between atoms: C_16  and  C_18 
REMARK    9  A    between atoms: C_21  and  N_22 
REMARK   10  A    between atoms: C_32  and  O_33 
ROOT
ATOM      1  C   UNL d   1      25.348 -16.010  -1.499  0.00  0.00    -0.024 A 
ATOM      2  C   UNL d   1      25.939 -16.065  -0.223  0.00  0.00     0.024 A 
ATOM      3  C   UNL d   1      26.763 -15.023   0.213  0.00  0.00    -0.000 A 
ATOM      4  C   UNL d   1      27.407 -15.014   1.522  0.00  0.00     0.034 A 
ATOM      5  C   UNL d   1      28.215 -14.012   1.927  0.00  0.00     0.066 A 
ATOM      6  C   UNL d   1      28.459 -12.865   0.989  0.00  0.00     0.300 A 
ATOM      7  O   UNL d   1      29.181 -11.908   1.243  0.00  0.00    -0.259 OA
ATOM      8  O   UNL d   1      27.819 -12.900  -0.247  0.00  0.00    -0.274 OA
ATOM      9  C   UNL d   1      26.989 -13.956  -0.639  0.00  0.00     0.092 A 
ATOM     10  C   UNL d   1      26.421 -13.876  -1.905  0.00  0.00     0.075 A 
ATOM     11  C   UNL d   1      25.590 -14.903  -2.322  0.00  0.00     0.074 A 
ENDROOT
BRANCH   5  12
ATOM     12  C   UNL d   1      28.880 -14.036   3.303  0.00  0.00     0.067 C 
ATOM     13  C   UNL d   1      30.251 -13.400   3.486  0.00  0.00     0.073 C 
ATOM     14  N   UNL d   1      28.276 -14.595   4.317  0.00  0.00    -0.176 NA
BRANCH  14  15
ATOM     15  N   UNL d   1      28.845 -14.629   5.570  0.00  0.00    -0.243 N 
ATOM     16  C   UNL d   1      28.595 -13.588   6.461  0.00  0.00     0.271 C 
ATOM     17  O   UNL d   1      27.910 -12.593   6.232  0.00  0.00    -0.266 OA
ATOM     18  H   UNL d   1      29.358 -15.446   5.871  0.00  0.00     0.192 HD
BRANCH  16  19
ATOM     19  C   UNL d   1      29.189 -13.712   7.824  0.00  0.00     0.033 A 
ATOM     20  C   UNL d   1      30.401 -14.411   7.961  0.00  0.00     0.019 A 
ATOM     21  C   UNL d   1      30.959 -14.644   9.224  0.00  0.00     0.037 A 
ATOM     22  C   UNL d   1      30.330 -14.122  10.360  0.00  0.00     0.102 A 
ATOM     23  C   UNL d   1      29.105 -13.446  10.241  0.00  0.00     0.037 A 
ATOM     24  C   UNL d   1      28.532 -13.249   8.973  0.00  0.00     0.019 A 
BRANCH  22  25
ATOM     25  N   UNL d   1      30.995 -14.221  11.671  0.00  0.00    -0.116 N 
ATOM     26  O   UNL d   1      31.129 -15.349  12.167  0.00  0.00    -0.532 OA
ATOM     27  O   UNL d   1      31.416 -13.175  12.183  0.00  0.00    -0.532 OA
ENDBRANCH  22  25
ENDBRANCH  16  19
ENDBRANCH  14  15
ENDBRANCH   5  12
BRANCH   1  28
ATOM     28  C   UNL d   1      24.533 -17.171  -2.009  0.00  0.00     0.041 C 
BRANCH  28  29
ATOM     29  C   UNL d   1      23.936 -17.937  -0.832  0.00  0.00     0.005 C 
BRANCH  29  30
ATOM     30  C   UNL d   1      22.899 -18.936  -1.311  0.00  0.00     0.000 C 
BRANCH  30  31
ATOM     31  C   UNL d   1      21.508 -18.488  -0.883  0.00  0.00    -0.000 C 
BRANCH  31  32
ATOM     32  C   UNL d   1      20.630 -19.695  -0.583  0.00  0.00    -0.005 C 
ATOM     33  C   UNL d   1      19.171 -19.359  -0.822  0.00  0.00     0.005 C 
ENDBRANCH  31  32
ENDBRANCH  30  31
ENDBRANCH  29  30
ENDBRANCH  28  29
ENDBRANCH   1  28
BRANCH  11  34
ATOM     34  O   UNL d   1      25.008 -14.857  -3.557  0.00  0.00    -0.360 OA
ATOM     35  H   UNL d   1      25.672 -14.597  -4.217  0.00  0.00     0.217 HD
ENDBRANCH  11  34
TORSDOF 10
ENDMDL
MODEL 3
REMARK VINA RESULT:    -7.758      6.764     10.469
REMARK INTER + INTRA:         -11.645
REMARK INTER:                 -10.741
REMARK INTRA:                  -0.904
REMARK CONF_INDEPENDENT:        2.983
REMARK UNBOUND:                -0.904
REMARK  10 active torsions:
REMARK  status: ('A' for Active; 'I' for Inactive)
REMARK    1  A    between atoms: C_2  and  C_3 
REMARK    2  A    between atoms: C_3  and  C_4 
REMARK    3  A    between atoms: C_4  and  C_5 
REMARK    4  A    between atoms: C_5  and  C_6 
REMARK    5  A    between atoms: C_6  and  C_7 
REMARK    6  A    between atoms: C_11  and  C_12 
REMARK    7  A    between atoms: N_14  and  N_15 
REMARK       I    between atoms: N_15  and  C_16 
REMARK    8  A    between atoms: C_16  and  C_18 
REMARK    9  A    between atoms: C_21  and  N_22 
REMARK   10  A    between atoms: C_32  and  O_33 
ROOT
ATOM      1  C   UNL d   1      25.378 -15.735  -1.879  0.00  0.00    -0.024 A 
ATOM      2  C   UNL d   1      25.810 -15.455  -0.570  0.00  0.00     0.024 A 
ATOM      3  C   UNL d   1      26.441 -14.240  -0.284  0.00  0.00    -0.000 A 
ATOM      4  C   UNL d   1      26.913 -13.885   1.050  0.00  0.00     0.034 A 
ATOM      5  C   UNL d   1      27.537 -12.717   1.312  0.00  0.00     0.066 A 
ATOM      6  C   UNL d   1      27.752 -11.751   0.184  0.00  0.00     0.300 A 
ATOM      7  O   UNL d   1      28.315 -10.669   0.300  0.00  0.00    -0.259 OA
ATOM      8  O   UNL d   1      27.278 -12.117  -1.073  0.00  0.00    -0.274 OA
ATOM      9  C   UNL d   1      26.637 -13.337  -1.314  0.00  0.00     0.092 A 
ATOM     10  C   UNL d   1      26.223 -13.587  -2.618  0.00  0.00     0.075 A 
ATOM     11  C   UNL d   1      25.583 -14.785  -2.889  0.00  0.00     0.074 A 
ENDROOT
BRANCH   5  12
ATOM     12  C   UNL d   1      28.026 -12.378   2.720  0.00  0.00     0.067 C 
ATOM     13  C   UNL d   1      29.279 -11.532   2.896  0.00  0.00     0.073 C 
ATOM     14  N   UNL d   1      27.371 -12.807   3.766  0.00  0.00    -0.176 NA
BRANCH  14  15
ATOM     15  N   UNL d   1      27.782 -12.514   5.047  0.00  0.00    -0.243 N 
ATOM     16  C   UNL d   1      28.149 -13.553   5.899  0.00  0.00     0.271 C 
ATOM     17  O   UNL d   1      28.126 -14.752   5.625  0.00  0.00    -0.266 OA
ATOM     18  H   UNL d   1      27.906 -11.553   5.331  0.00  0.00     0.192 HD
BRANCH  16  19
ATOM     19  C   UNL d   1      28.644 -13.170   7.254  0.00  0.00     0.033 A 
ATOM     20  C   UNL d   1      28.527 -11.825   7.648  0.00  0.00     0.019 A 
ATOM     21  C   UNL d   1      29.059 -11.384   8.866  0.00  0.00     0.037 A 
ATOM     22  C   UNL d   1      29.662 -12.308   9.728  0.00  0.00     0.102 A 
ATOM     23  C   UNL d   1      29.811 -13.648   9.334  0.00  0.00     0.037 A 
ATOM     24  C   UNL d   1      29.308 -14.075   8.092  0.00  0.00     0.019 A 
BRANCH  22  25
ATOM     25  N   UNL d   1      30.076 -11.884  11.076  0.00  0.00    -0.116 N 
ATOM     26  O   UNL d   1      31.187 -11.351  11.199  0.00  0.00    -0.532 OA
ATOM     27  O   UNL d   1      29.271 -12.051  12.003  0.00  0.00    -0.532 OA
ENDBRANCH  22  25
ENDBRANCH  16  19
ENDBRANCH  14  15
ENDBRANCH   5  12
BRANCH   1  28
ATOM     28  C   UNL d   1      24.780 -17.078  -2.212  0.00  0.00     0.041 C 
BRANCH  28  29
ATOM     29  C   UNL d   1      24.323 -17.768  -0.930  0.00  0.00     0.005 C 
BRANCH  29  30
ATOM     30  C   UNL d   1      22.827 -17.602  -0.734  0.00  0.00     0.000 C 
BRANCH  30  31
ATOM     31  C   UNL d   1      22.189 -18.951  -0.434  0.00  0.00    -0.000 C 
BRANCH  31  32
ATOM     32  C   UNL d   1      20.739 -18.969  -0.897  0.00  0.00    -0.005 C 
ATOM     33  C   UNL d   1      19.857 -19.626   0.148  0.00  0.00     0.005 C 
ENDBRANCH  31  32
ENDBRANCH  30  31
ENDBRANCH  29  30
ENDBRANCH  28  29
ENDBRANCH   1  28
BRANCH  11  34
ATOM     34  O   UNL d   1      25.155 -15.064  -4.156  0.00  0.00    -0.360 OA
ATOM     35  H   UNL d   1      24.602 -14.332  -4.477  0.00  0.00     0.217 HD
ENDBRANCH  11  34
TORSDOF 10
ENDMDL
MODEL 4
REMARK VINA RESULT:    -7.338      7.750     10.614
REMARK INTER + INTRA:         -11.843
REMARK INTER:                 -10.321
REMARK INTRA:                  -1.522
REMARK CONF_INDEPENDENT:        2.983
REMARK UNBOUND:                -1.522
REMARK  10 active torsions:
REMARK  status: ('A' for Active; 'I' for Inactive)
REMARK    1  A    between atoms: C_2  and  C_3 
REMARK    2  A    between atoms: C_3  and  C_4 
REMARK    3  A    between atoms: C_4  and  C_5 
REMARK    4  A    between atoms: C_5  and  C_6 
REMARK    5  A    between atoms: C_6  and  C_7 
REMARK    6  A    between atoms: C_11  and  C_12 
REMARK    7  A    between atoms: N_14  and  N_15 
REMARK       I    between atoms: N_15  and  C_16 
REMARK    8  A    between atoms: C_16  and  C_18 
REMARK    9  A    between atoms: C_21  and  N_22 
REMARK   10  A    between atoms: C_32  and  O_33 
ROOT
ATOM      1  C   UNL d   1      29.093 -13.955   9.829  0.00  0.00    -0.024 A 
ATOM      2  C   UNL d   1      29.067 -14.450   8.512  0.00  0.00     0.024 A 
ATOM      3  C   UNL d   1      28.786 -13.590   7.445  0.00  0.00    -0.000 A 
ATOM      4  C   UNL d   1      28.743 -14.034   6.057  0.00  0.00     0.034 A 
ATOM      5  C   UNL d   1      28.453 -13.200   5.036  0.00  0.00     0.066 A 
ATOM      6  C   UNL d   1      28.162 -11.761   5.347  0.00  0.00     0.300 A 
ATOM      7  O   UNL d   1      27.876 -10.917   4.506  0.00  0.00    -0.259 OA
ATOM      8  O   UNL d   1      28.224 -11.369   6.682  0.00  0.00    -0.274 OA
ATOM      9  C   UNL d   1      28.525 -12.258   7.719  0.00  0.00     0.092 A 
ATOM     10  C   UNL d   1      28.541 -11.742   9.010  0.00  0.00     0.075 A 
ATOM     11  C   UNL d   1      28.839 -12.596  10.058  0.00  0.00     0.074 A 
ENDROOT
BRANCH   5  12
ATOM     12  C   UNL d   1      28.409 -13.699   3.591  0.00  0.00     0.067 C 
ATOM     13  C   UNL d   1      29.710 -13.888   2.824  0.00  0.00     0.073 C 
ATOM     14  N   UNL d   1      27.265 -13.964   3.020  0.00  0.00    -0.176 NA
BRANCH  14  15
ATOM     15  N   UNL d   1      27.192 -14.419   1.723  0.00  0.00    -0.243 N 
ATOM     16  C   UNL d   1      26.694 -13.577   0.732  0.00  0.00     0.271 C 
ATOM     17  O   UNL d   1      26.278 -12.432   0.901  0.00  0.00    -0.266 OA
ATOM     18  H   UNL d   1      27.586 -15.317   1.479  0.00  0.00     0.192 HD
BRANCH  16  19
ATOM     19  C   UNL d   1      26.698 -14.104  -0.664  0.00  0.00     0.033 A 
ATOM     20  C   UNL d   1      26.471 -13.200  -1.717  0.00  0.00     0.019 A 
ATOM     21  C   UNL d   1      26.367 -13.649  -3.040  0.00  0.00     0.037 A 
ATOM     22  C   UNL d   1      26.550 -15.007  -3.322  0.00  0.00     0.102 A 
ATOM     23  C   UNL d   1      26.749 -15.925  -2.277  0.00  0.00     0.037 A 
ATOM     24  C   UNL d   1      26.814 -15.472  -0.948  0.00  0.00     0.019 A 
BRANCH  22  25
ATOM     25  N   UNL d   1      26.605 -15.460  -4.723  0.00  0.00    -0.116 N 
ATOM     26  O   UNL d   1      25.531 -15.665  -5.306  0.00  0.00    -0.532 OA
ATOM     27  O   UNL d   1      27.722 -15.571  -5.248  0.00  0.00    -0.532 OA
ENDBRANCH  22  25
ENDBRANCH  16  19
ENDBRANCH  14  15
ENDBRANCH   5  12
BRANCH   1  28
ATOM     28  C   UNL d   1      29.305 -14.894  10.989  0.00  0.00     0.041 C 
BRANCH  28  29
ATOM     29  C   UNL d   1      30.356 -15.937  10.620  0.00  0.00     0.005 C 
BRANCH  29  30
ATOM     30  C   UNL d   1      31.753 -15.425  10.924  0.00  0.00     0.000 C 
BRANCH  30  31
ATOM     31  C   UNL d   1      32.449 -15.016   9.635  0.00  0.00    -0.000 C 
BRANCH  31  32
ATOM     32  C   UNL d   1      32.705 -13.515   9.621  0.00  0.00    -0.005 C 
ATOM     33  C   UNL d   1      32.056 -12.878   8.408  0.00  0.00     0.005 C 
ENDBRANCH  31  32
ENDBRANCH  30  31
ENDBRANCH  29  30
ENDBRANCH  28  29
ENDBRANCH   1  28
BRANCH  11  34
ATOM     34  O   UNL d   1      28.872 -12.125  11.340  0.00  0.00    -0.360 OA
ATOM     35  H   UNL d   1      28.835 -11.155  11.327  0.00  0.00     0.217 HD
ENDBRANCH  11  34
TORSDOF 10
ENDMDL
MODEL 5
REMARK VINA RESULT:    -7.247      6.239      9.222
REMARK INTER + INTRA:         -10.987
REMARK INTER:                 -10.230
REMARK INTRA:                  -0.757
REMARK CONF_INDEPENDENT:        2.983
REMARK UNBOUND:                -0.757
REMARK  10 active torsions:
REMARK  status: ('A' for Active; 'I' for Inactive)
REMARK    1  A    between atoms: C_2  and  C_3 
REMARK    2  A    between atoms: C_3  and  C_4 
REMARK    3  A    between atoms: C_4  and  C_5 
REMARK    4  A    between atoms: C_5  and  C_6 
REMARK    5  A    between atoms: C_6  and  C_7 
REMARK    6  A    between atoms: C_11  and  C_12 
REMARK    7  A    between atoms: N_14  and  N_15 
REMARK       I    between atoms: N_15  and  C_16 
REMARK    8  A    between atoms: C_16  and  C_18 
REMARK    9  A    between atoms: C_21  and  N_22 
REMARK   10  A    between atoms: C_32  and  O_33 
ROOT
ATOM      1  C   UNL d   1      22.314 -18.555  -0.240  0.00  0.00    -0.024 A 
ATOM      2  C   UNL d   1      23.673 -18.559   0.123  0.00  0.00     0.024 A 
ATOM      3  C   UNL d   1      24.489 -17.471  -0.202  0.00  0.00    -0.000 A 
ATOM      4  C   UNL d   1      25.905 -17.409   0.144  0.00  0.00     0.034 A 
ATOM      5  C   UNL d   1      26.688 -16.362  -0.191  0.00  0.00     0.066 A 
ATOM      6  C   UNL d   1      26.075 -15.222  -0.950  0.00  0.00     0.300 A 
ATOM      7  O   UNL d   1      26.690 -14.227  -1.317  0.00  0.00    -0.259 OA
ATOM      8  O   UNL d   1      24.719 -15.309  -1.253  0.00  0.00    -0.274 OA
ATOM      9  C   UNL d   1      23.933 -16.410  -0.895  0.00  0.00     0.092 A 
ATOM     10  C   UNL d   1      22.594 -16.379  -1.269  0.00  0.00     0.075 A 
ATOM     11  C   UNL d   1      21.788 -17.452  -0.926  0.00  0.00     0.074 A 
ENDROOT
BRANCH   5  12
ATOM     12  C   UNL d   1      28.171 -16.330   0.181  0.00  0.00     0.067 C 
ATOM     13  C   UNL d   1      29.087 -17.451  -0.289  0.00  0.00     0.073 C 
ATOM     14  N   UNL d   1      28.650 -15.346   0.894  0.00  0.00    -0.176 NA
BRANCH  14  15
ATOM     15  N   UNL d   1      29.980 -15.285   1.242  0.00  0.00    -0.243 N 
ATOM     16  C   UNL d   1      30.548 -14.051   1.552  0.00  0.00     0.271 C 
ATOM     17  O   UNL d   1      29.971 -12.966   1.528  0.00  0.00    -0.266 OA
ATOM     18  H   UNL d   1      30.511 -16.136   1.364  0.00  0.00     0.192 HD
BRANCH  16  19
ATOM     19  C   UNL d   1      31.977 -14.057   1.981  0.00  0.00     0.033 A 
ATOM     20  C   UNL d   1      32.671 -15.280   1.966  0.00  0.00     0.019 A 
ATOM     21  C   UNL d   1      33.983 -15.368   2.448  0.00  0.00     0.037 A 
ATOM     22  C   UNL d   1      34.631 -14.211   2.895  0.00  0.00     0.102 A 
ATOM     23  C   UNL d   1      33.940 -12.989   2.942  0.00  0.00     0.037 A 
ATOM     24  C   UNL d   1      32.610 -12.915   2.492  0.00  0.00     0.019 A 
BRANCH  22  25
ATOM     25  N   UNL d   1      36.060 -14.265   3.248  0.00  0.00    -0.116 N 
ATOM     26  O   UNL d   1      36.768 -15.097   2.662  0.00  0.00    -0.532 OA
ATOM     27  O   UNL d   1      36.479 -13.450   4.081  0.00  0.00    -0.532 OA
ENDBRANCH  22  25
ENDBRANCH  16  19
ENDBRANCH  14  15
ENDBRANCH   5  12
BRANCH   1  28
ATOM     28  C   UNL d   1      21.452 -19.763   0.028  0.00  0.00     0.041 C 
BRANCH  28  29
ATOM     29  C   UNL d   1      20.142 -19.325   0.678  0.00  0.00     0.005 C 
BRANCH  29  30
ATOM     30  C   UNL d   1      19.927 -20.049   1.995  0.00  0.00     0.000 C 
BRANCH  30  31
ATOM     31  C   UNL d   1      18.480 -20.507   2.106  0.00  0.00    -0.000 C 
BRANCH  31  32
ATOM     32  C   UNL d   1      18.221 -21.683   1.176  0.00  0.00    -0.005 C 
ATOM     33  C   UNL d   1      17.654 -21.200  -0.145  0.00  0.00     0.005 C 
ENDBRANCH  31  32
ENDBRANCH  30  31
ENDBRANCH  29  30
ENDBRANCH  28  29
ENDBRANCH   1  28
BRANCH  11  34
ATOM     34  O   UNL d   1      20.466 -17.456  -1.269  0.00  0.00    -0.360 OA
ATOM     35  H   UNL d   1      20.241 -16.610  -1.690  0.00  0.00     0.217 HD
ENDBRANCH  11  34
TORSDOF 10
ENDMDL
MODEL 6
REMARK VINA RESULT:    -7.157      7.350      9.613
REMARK INTER + INTRA:         -11.122
REMARK INTER:                 -10.140
REMARK INTRA:                  -0.981
REMARK CONF_INDEPENDENT:        2.983
REMARK UNBOUND:                -0.981
REMARK  10 active torsions:
REMARK  status: ('A' for Active; 'I' for Inactive)
REMARK    1  A    between atoms: C_2  and  C_3 
REMARK    2  A    between atoms: C_3  and  C_4 
REMARK    3  A    between atoms: C_4  and  C_5 
REMARK    4  A    between atoms: C_5  and  C_6 
REMARK    5  A    between atoms: C_6  and  C_7 
REMARK    6  A    between atoms: C_11  and  C_12 
REMARK    7  A    between atoms: N_14  and  N_15 
REMARK       I    between atoms: N_15  and  C_16 
REMARK    8  A    between atoms: C_16  and  C_18 
REMARK    9  A    between atoms: C_21  and  N_22 
REMARK   10  A    between atoms: C_32  and  O_33 
ROOT
ATOM      1  C   UNL d   1      25.535 -15.747  -1.542  0.00  0.00    -0.024 A 
ATOM      2  C   UNL d   1      25.823 -15.374  -0.217  0.00  0.00     0.024 A 
ATOM      3  C   UNL d   1      26.361 -14.112   0.056  0.00  0.00    -0.000 A 
ATOM      4  C   UNL d   1      26.683 -13.660   1.405  0.00  0.00     0.034 A 
ATOM      5  C   UNL d   1      27.219 -12.447   1.655  0.00  0.00     0.066 A 
ATOM      6  C   UNL d   1      27.495 -11.532   0.498  0.00  0.00     0.300 A 
ATOM      7  O   UNL d   1      27.989 -10.416   0.603  0.00  0.00    -0.259 OA
ATOM      8  O   UNL d   1      27.164 -11.991  -0.774  0.00  0.00    -0.274 OA
ATOM      9  C   UNL d   1      26.612 -13.256  -1.003  0.00  0.00     0.092 A 
ATOM     10  C   UNL d   1      26.340 -13.598  -2.323  0.00  0.00     0.075 A 
ATOM     11  C   UNL d   1      25.789 -14.842  -2.582  0.00  0.00     0.074 A 
ENDROOT
BRANCH   5  12
ATOM     12  C   UNL d   1      27.551 -12.006   3.081  0.00  0.00     0.067 C 
ATOM     13  C   UNL d   1      28.178 -13.000   4.048  0.00  0.00     0.073 C 
ATOM     14  N   UNL d   1      27.301 -10.783   3.467  0.00  0.00    -0.176 NA
BRANCH  14  15
ATOM     15  N   UNL d   1      27.591 -10.353   4.742  0.00  0.00    -0.243 N 
ATOM     16  C   UNL d   1      28.854  -9.832   5.014  0.00  0.00     0.271 C 
ATOM     17  O   UNL d   1      29.780  -9.729   4.211  0.00  0.00    -0.266 OA
ATOM     18  H   UNL d   1      26.866 -10.326   5.445  0.00  0.00     0.192 HD
BRANCH  16  19
ATOM     19  C   UNL d   1      29.089  -9.325   6.398  0.00  0.00     0.033 A 
ATOM     20  C   UNL d   1      29.121  -7.934   6.600  0.00  0.00     0.019 A 
ATOM     21  C   UNL d   1      29.432  -7.397   7.856  0.00  0.00     0.037 A 
ATOM     22  C   UNL d   1      29.656  -8.257   8.936  0.00  0.00     0.102 A 
ATOM     23  C   UNL d   1      29.655  -9.648   8.742  0.00  0.00     0.037 A 
ATOM     24  C   UNL d   1      29.380 -10.180   7.470  0.00  0.00     0.019 A 
BRANCH  22  25
ATOM     25  N   UNL d   1      29.820  -7.700  10.290  0.00  0.00    -0.116 N 
ATOM     26  O   UNL d   1      30.796  -8.077  10.954  0.00  0.00    -0.532 OA
ATOM     27  O   UNL d   1      28.995  -6.858  10.669  0.00  0.00    -0.532 OA
ENDBRANCH  22  25
ENDBRANCH  16  19
ENDBRANCH  14  15
ENDBRANCH   5  12
BRANCH   1  28
ATOM     28  C   UNL d   1      25.040 -17.137  -1.850  0.00  0.00     0.041 C 
BRANCH  28  29
ATOM     29  C   UNL d   1      24.633 -17.836  -0.556  0.00  0.00     0.005 C 
BRANCH  29  30
ATOM     30  C   UNL d   1      23.157 -17.622  -0.270  0.00  0.00     0.000 C 
BRANCH  30  31
ATOM     31  C   UNL d   1      22.414 -18.948  -0.355  0.00  0.00    -0.000 C 
BRANCH  31  32
ATOM     32  C   UNL d   1      21.006 -18.735  -0.894  0.00  0.00    -0.005 C 
ATOM     33  C   UNL d   1      20.037 -19.699  -0.239  0.00  0.00     0.005 C 
ENDBRANCH  31  32
ENDBRANCH  30  31
ENDBRANCH  29  30
ENDBRANCH  28  29
ENDBRANCH   1  28
BRANCH  11  34
ATOM     34  O   UNL d   1      25.501 -15.212  -3.865  0.00  0.00    -0.360 OA
ATOM     35  H   UNL d   1      25.649 -14.458  -4.458  0.00  0.00     0.217 HD
ENDBRANCH  11  34
TORSDOF 10
ENDMDL
MODEL 7
REMARK VINA RESULT:    -6.752      5.720     10.829
REMARK INTER + INTRA:         -10.767
REMARK INTER:                  -9.735
REMARK INTRA:                  -1.031
REMARK CONF_INDEPENDENT:        2.983
REMARK UNBOUND:                -1.031
REMARK  10 active torsions:
REMARK  status: ('A' for Active; 'I' for Inactive)
REMARK    1  A    between atoms: C_2  and  C_3 
REMARK    2  A    between atoms: C_3  and  C_4 
REMARK    3  A    between atoms: C_4  and  C_5 
REMARK    4  A    between atoms: C_5  and  C_6 
REMARK    5  A    between atoms: C_6  and  C_7 
REMARK    6  A    between atoms: C_11  and  C_12 
REMARK    7  A    between atoms: N_14  and  N_15 
REMARK       I    between atoms: N_15  and  C_16 
REMARK    8  A    between atoms: C_16  and  C_18 
REMARK    9  A    between atoms: C_21  and  N_22 
REMARK   10  A    between atoms: C_32  and  O_33 
ROOT
ATOM      1  C   UNL d   1      31.104 -14.934  -1.666  0.00  0.00    -0.024 A 
ATOM      2  C   UNL d   1      30.015 -15.579  -1.053  0.00  0.00     0.024 A 
ATOM      3  C   UNL d   1      28.749 -15.536  -1.647  0.00  0.00    -0.000 A 
ATOM      4  C   UNL d   1      27.578 -16.182  -1.068  0.00  0.00     0.034 A 
ATOM      5  C   UNL d   1      26.356 -16.119  -1.639  0.00  0.00     0.066 A 
ATOM      6  C   UNL d   1      26.204 -15.351  -2.920  0.00  0.00     0.300 A 
ATOM      7  O   UNL d   1      25.144 -15.216  -3.521  0.00  0.00    -0.259 OA
ATOM      8  O   UNL d   1      27.345 -14.757  -3.451  0.00  0.00    -0.274 OA
ATOM      9  C   UNL d   1      28.598 -14.838  -2.833  0.00  0.00     0.092 A 
ATOM     10  C   UNL d   1      29.655 -14.189  -3.460  0.00  0.00     0.075 A 
ATOM     11  C   UNL d   1      30.909 -14.253  -2.875  0.00  0.00     0.074 A 
ENDROOT
BRANCH   5  12
ATOM     12  C   UNL d   1      25.146 -16.803  -1.003  0.00  0.00     0.067 C 
ATOM     13  C   UNL d   1      25.360 -17.948  -0.024  0.00  0.00     0.073 C 
ATOM     14  N   UNL d   1      23.936 -16.405  -1.294  0.00  0.00    -0.176 NA
BRANCH  14  15
ATOM     15  N   UNL d   1      22.826 -16.996  -0.734  0.00  0.00    -0.243 N 
ATOM     16  C   UNL d   1      22.445 -18.268  -1.156  0.00  0.00     0.271 C 
ATOM     17  O   UNL d   1      23.006 -18.938  -2.022  0.00  0.00    -0.266 OA
ATOM     18  H   UNL d   1      22.352 -16.551   0.040  0.00  0.00     0.192 HD
BRANCH  16  19
ATOM     19  C   UNL d   1      21.271 -18.881  -0.469  0.00  0.00     0.033 A 
ATOM     20  C   UNL d   1      21.286 -18.955   0.935  0.00  0.00     0.019 A 
ATOM     21  C   UNL d   1      20.259 -19.605   1.632  0.00  0.00     0.037 A 
ATOM     22  C   UNL d   1      19.175 -20.135   0.923  0.00  0.00     0.102 A 
ATOM     23  C   UNL d   1      19.162 -20.093  -0.481  0.00  0.00     0.037 A 
ATOM     24  C   UNL d   1      20.215 -19.472  -1.176  0.00  0.00     0.019 A 
BRANCH  22  25
ATOM     25  N   UNL d   1      18.017 -20.672   1.657  0.00  0.00    -0.116 N 
ATOM     26  O   UNL d   1      17.616 -20.040   2.645  0.00  0.00    -0.532 OA
ATOM     27  O   UNL d   1      17.486 -21.702   1.220  0.00  0.00    -0.532 OA
ENDBRANCH  22  25
ENDBRANCH  16  19
ENDBRANCH  14  15
ENDBRANCH   5  12
BRANCH   1  28
ATOM     28  C   UNL d   1      32.449 -14.901  -0.986  0.00  0.00     0.041 C 
BRANCH  28  29
ATOM     29  C   UNL d   1      32.273 -14.524   0.483  0.00  0.00     0.005 C 
BRANCH  29  30
ATOM     30  C   UNL d   1      31.216 -13.445   0.638  0.00  0.00     0.000 C 
BRANCH  30  31
ATOM     31  C   UNL d   1      31.028 -13.109   2.111  0.00  0.00    -0.000 C 
BRANCH  31  32
ATOM     32  C   UNL d   1      30.047 -14.077   2.756  0.00  0.00    -0.005 C 
ATOM     33  C   UNL d   1      29.676 -13.605   4.148  0.00  0.00     0.005 C 
ENDBRANCH  31  32
ENDBRANCH  30  31
ENDBRANCH  29  30
ENDBRANCH  28  29
ENDBRANCH   1  28
BRANCH  11  34
ATOM     34  O   UNL d   1      31.975 -13.634  -3.465  0.00  0.00    -0.360 OA
ATOM     35  H   UNL d   1      32.274 -14.162  -4.223  0.00  0.00     0.217 HD
ENDBRANCH  11  34
TORSDOF 10
ENDMDL
MODEL 8
REMARK VINA RESULT:    -6.348      6.284     11.302
REMARK INTER + INTRA:         -10.671
REMARK INTER:                  -9.331
REMARK INTRA:                  -1.340
REMARK CONF_INDEPENDENT:        2.983
REMARK UNBOUND:                -1.340
REMARK  10 active torsions:
REMARK  status: ('A' for Active; 'I' for Inactive)
REMARK    1  A    between atoms: C_2  and  C_3 
REMARK    2  A    between atoms: C_3  and  C_4 
REMARK    3  A    between atoms: C_4  and  C_5 
REMARK    4  A    between atoms: C_5  and  C_6 
REMARK    5  A    between atoms: C_6  and  C_7 
REMARK    6  A    between atoms: C_11  and  C_12 
REMARK    7  A    between atoms: N_14  and  N_15 
REMARK       I    between atoms: N_15  and  C_16 
REMARK    8  A    between atoms: C_16  and  C_18 
REMARK    9  A    between atoms: C_21  and  N_22 
REMARK   10  A    between atoms: C_32  and  O_33 
ROOT
ATOM      1  C   UNL d   1      26.025 -13.150  -3.552  0.00  0.00    -0.024 A 
ATOM      2  C   UNL d   1      26.722 -12.971  -2.343  0.00  0.00     0.024 A 
ATOM      3  C   UNL d   1      26.846 -14.032  -1.440  0.00  0.00    -0.000 A 
ATOM      4  C   UNL d   1      27.554 -13.917  -0.171  0.00  0.00     0.034 A 
ATOM      5  C   UNL d   1      27.652 -14.942   0.702  0.00  0.00     0.066 A 
ATOM      6  C   UNL d   1      27.002 -16.248   0.348  0.00  0.00     0.300 A 
ATOM      7  O   UNL d   1      27.016 -17.242   1.066  0.00  0.00    -0.259 OA
ATOM      8  O   UNL d   1      26.345 -16.326  -0.876  0.00  0.00    -0.274 OA
ATOM      9  C   UNL d   1      26.258 -15.244  -1.759  0.00  0.00     0.092 A 
ATOM     10  C   UNL d   1      25.561 -15.450  -2.944  0.00  0.00     0.075 A 
ATOM     11  C   UNL d   1      25.460 -14.399  -3.841  0.00  0.00     0.074 A 
ENDROOT
BRANCH   5  12
ATOM     12  C   UNL d   1      28.398 -14.787   2.028  0.00  0.00     0.067 C 
ATOM     13  C   UNL d   1      29.851 -14.336   2.023  0.00  0.00     0.073 C 
ATOM     14  N   UNL d   1      27.791 -15.037   3.157  0.00  0.00    -0.176 NA
BRANCH  14  15
ATOM     15  N   UNL d   1      28.433 -14.903   4.368  0.00  0.00    -0.243 N 
ATOM     16  C   UNL d   1      28.167 -13.789   5.160  0.00  0.00     0.271 C 
ATOM     17  O   UNL d   1      27.406 -12.866   4.874  0.00  0.00    -0.266 OA
ATOM     18  H   UNL d   1      29.014 -15.652   4.718  0.00  0.00     0.192 HD
BRANCH  16  19
ATOM     19  C   UNL d   1      28.845 -13.730   6.488  0.00  0.00     0.033 A 
ATOM     20  C   UNL d   1      28.260 -12.948   7.499  0.00  0.00     0.019 A 
ATOM     21  C   UNL d   1      28.898 -12.775   8.734  0.00  0.00     0.037 A 
ATOM     22  C   UNL d   1      30.104 -13.439   8.985  0.00  0.00     0.102 A 
ATOM     23  C   UNL d   1      30.714 -14.200   7.974  0.00  0.00     0.037 A 
ATOM     24  C   UNL d   1      30.086 -14.338   6.723  0.00  0.00     0.019 A 
BRANCH  22  25
ATOM     25  N   UNL d   1      30.695 -13.395  10.333  0.00  0.00    -0.116 N 
ATOM     26  O   UNL d   1      30.888 -14.471  10.915  0.00  0.00    -0.532 OA
ATOM     27  O   UNL d   1      30.999 -12.284  10.791  0.00  0.00    -0.532 OA
ENDBRANCH  22  25
ENDBRANCH  16  19
ENDBRANCH  14  15
ENDBRANCH   5  12
BRANCH   1  28
ATOM     28  C   UNL d   1      25.811 -11.987  -4.486  0.00  0.00     0.041 C 
BRANCH  28  29
ATOM     29  C   UNL d   1      26.807 -12.065  -5.640  0.00  0.00     0.005 C 
BRANCH  29  30
ATOM     30  C   UNL d   1      28.010 -12.907  -5.256  0.00  0.00     0.000 C 
BRANCH  30  31
ATOM     31  C   UNL d   1      28.025 -14.194  -6.069  0.00  0.00    -0.000 C 
BRANCH  31  32
ATOM     32  C   UNL d   1      28.445 -15.369  -5.198  0.00  0.00    -0.005 C 
ATOM     33  C   UNL d   1      29.679 -16.038  -5.770  0.00  0.00     0.005 C 
ENDBRANCH  31  32
ENDBRANCH  30  31
ENDBRANCH  29  30
ENDBRANCH  28  29
ENDBRANCH   1  28
BRANCH  11  34
ATOM     34  O   UNL d   1      24.789 -14.564  -5.019  0.00  0.00    -0.360 OA
ATOM     35  H   UNL d   1      23.997 -14.002  -5.020  0.00  0.00     0.217 HD
ENDBRANCH  11  34
TORSDOF 10
ENDMDL
MODEL 9
REMARK VINA RESULT:    -6.133      7.874     10.911
REMARK INTER + INTRA:         -10.365
REMARK INTER:                  -9.116
REMARK INTRA:                  -1.249
REMARK CONF_INDEPENDENT:        2.983
REMARK UNBOUND:                -1.249
REMARK  10 active torsions:
REMARK  status: ('A' for Active; 'I' for Inactive)
REMARK    1  A    between atoms: C_2  and  C_3 
REMARK    2  A    between atoms: C_3  and  C_4 
REMARK    3  A    between atoms: C_4  and  C_5 
REMARK    4  A    between atoms: C_5  and  C_6 
REMARK    5  A    between atoms: C_6  and  C_7 
REMARK    6  A    between atoms: C_11  and  C_12 
REMARK    7  A    between atoms: N_14  and  N_15 
REMARK       I    between atoms: N_15  and  C_16 
REMARK    8  A    between atoms: C_16  and  C_18 
REMARK    9  A    between atoms: C_21  and  N_22 
REMARK   10  A    between atoms: C_32  and  O_33 
ROOT
ATOM      1  C   UNL d   1      29.877 -10.485   8.870  0.00  0.00    -0.024 A 
ATOM      2  C   UNL d   1      29.707 -10.648   7.483  0.00  0.00     0.024 A 
ATOM      3  C   UNL d   1      29.294 -11.881   6.967  0.00  0.00    -0.000 A 
ATOM      4  C   UNL d   1      29.098 -12.120   5.542  0.00  0.00     0.034 A 
ATOM      5  C   UNL d   1      28.716 -13.319   5.053  0.00  0.00     0.066 A 
ATOM      6  C   UNL d   1      28.489 -14.447   6.017  0.00  0.00     0.300 A 
ATOM      7  O   UNL d   1      28.153 -15.579   5.688  0.00  0.00    -0.259 OA
ATOM      8  O   UNL d   1      28.674 -14.180   7.371  0.00  0.00    -0.274 OA
ATOM      9  C   UNL d   1      29.073 -12.926   7.848  0.00  0.00     0.092 A 
ATOM     10  C   UNL d   1      29.235 -12.795   9.222  0.00  0.00     0.075 A 
ATOM     11  C   UNL d   1      29.626 -11.565   9.726  0.00  0.00     0.074 A 
ENDROOT
BRANCH   5  12
ATOM     12  C   UNL d   1      28.525 -13.539   3.552  0.00  0.00     0.067 C 
ATOM     13  C   UNL d   1      29.103 -12.534   2.567  0.00  0.00     0.073 C 
ATOM     14  N   UNL d   1      27.872 -14.583   3.117  0.00  0.00    -0.176 NA
BRANCH  14  15
ATOM     15  N   UNL d   1      27.686 -14.813   1.773  0.00  0.00    -0.243 N 
ATOM     16  C   UNL d   1      26.765 -14.041   1.070  0.00  0.00     0.271 C 
ATOM     17  O   UNL d   1      26.057 -13.154   1.545  0.00  0.00    -0.266 OA
ATOM     18  H   UNL d   1      28.282 -15.468   1.285  0.00  0.00     0.192 HD
BRANCH  16  19
ATOM     19  C   UNL d   1      26.653 -14.295  -0.396  0.00  0.00     0.033 A 
ATOM     20  C   UNL d   1      25.995 -15.463  -0.820  0.00  0.00     0.019 A 
ATOM     21  C   UNL d   1      25.942 -15.805  -2.178  0.00  0.00     0.037 A 
ATOM     22  C   UNL d   1      26.499 -14.942  -3.127  0.00  0.00     0.102 A 
ATOM     23  C   UNL d   1      27.184 -13.787  -2.715  0.00  0.00     0.037 A 
ATOM     24  C   UNL d   1      27.267 -13.469  -1.348  0.00  0.00     0.019 A 
BRANCH  22  25
ATOM     25  N   UNL d   1      26.303 -15.212  -4.562  0.00  0.00    -0.116 N 
ATOM     26  O   UNL d   1      27.288 -15.577  -5.220  0.00  0.00    -0.532 OA
ATOM     27  O   UNL d   1      25.157 -15.097  -5.017  0.00  0.00    -0.532 OA
ENDBRANCH  22  25
ENDBRANCH  16  19
ENDBRANCH  14  15
ENDBRANCH   5  12
BRANCH   1  28
ATOM     28  C   UNL d   1      30.408  -9.187   9.423  0.00  0.00     0.041 C 
BRANCH  28  29
ATOM     29  C   UNL d   1      29.655  -8.016   8.799  0.00  0.00     0.005 C 
BRANCH  29  30
ATOM     30  C   UNL d   1      30.509  -7.321   7.754  0.00  0.00     0.000 C 
BRANCH  30  31
ATOM     31  C   UNL d   1      29.641  -6.868   6.589  0.00  0.00    -0.000 C 
BRANCH  31  32
ATOM     32  C   UNL d   1      28.547  -7.890   6.312  0.00  0.00    -0.005 C 
ATOM     33  C   UNL d   1      28.518  -8.246   4.838  0.00  0.00     0.005 C 
ENDBRANCH  31  32
ENDBRANCH  30  31
ENDBRANCH  29  30
ENDBRANCH  28  29
ENDBRANCH   1  28
BRANCH  11  34
ATOM     34  O   UNL d   1      29.789 -11.395  11.071  0.00  0.00    -0.360 OA
ATOM     35  H   UNL d   1      29.279 -10.621  11.362  0.00  0.00     0.217 HD
ENDBRANCH  11  34
TORSDOF 10
ENDMDL
