MODEL 1
REMARK VINA RESULT:    -9.058      0.000      0.000
REMARK INTER + INTRA:         -10.243
REMARK INTER:                  -9.655
REMARK INTRA:                  -0.589
REMARK CONF_INDEPENDENT:        0.597
REMARK UNBOUND:                -0.589
REMARK  2 active torsions:
REMARK  status: ('A' for Active; 'I' for Inactive)
REMARK    1  A    between atoms: C_10  and  C_11 
REMARK    2  A    between atoms: C_13  and  C_14 
ROOT
ATOM      1  C   UNL d   1      24.846 -16.365  -0.891  0.00  0.00     0.207 A 
ATOM      2  N   UNL d   1      23.548 -16.510  -0.662  0.00  0.00    -0.202 NA
ATOM      3  C   UNL d   1      23.373 -17.897  -0.705  0.00  0.00     0.189 A 
ATOM      4  N   UNL d   1      24.529 -18.557  -0.898  0.00  0.00    -0.105 NA
ATOM      5  O   UNL d   1      25.490 -17.562  -1.031  0.00  0.00    -0.193 OA
ENDROOT
BRANCH   1   6
ATOM      6  C   UNL d   1      25.672 -15.125  -1.278  0.00  0.00     0.307 C 
ATOM      7  C   UNL d   1      25.494 -14.840  -2.800  0.00  0.00     0.103 C 
ATOM      8  C   UNL d   1      26.739 -15.097  -3.531  0.00  0.00     0.037 A 
ATOM      9  N   UNL d   1      26.905 -15.207  -4.897  0.00  0.00    -0.354 N 
ATOM     10  C   UNL d   1      27.976 -15.252  -2.974  0.00  0.00     0.061 A 
ATOM     11  C   UNL d   1      28.194 -15.450  -5.186  0.00  0.00     0.180 A 
ATOM     12  H   UNL d   1      26.167 -15.134  -5.586  0.00  0.00     0.166 HD
ATOM     13  N   UNL d   1      28.846 -15.478  -4.024  0.00  0.00    -0.353 N 
ATOM     14  H   UNL d   1      29.848 -15.651  -3.933  0.00  0.00     0.166 HD
ATOM     15  C   UNL d   1      28.257 -15.218  -1.535  0.00  0.00     0.332 C 
ATOM     16  N   UNL d   1      27.064 -15.104  -0.674  0.00  0.00     0.102 N 
ATOM     17  C   UNL d   1      27.176 -16.073   0.425  0.00  0.00     0.311 C 
ENDBRANCH   1   6
BRANCH   3  18
ATOM     18  C   UNL d   1      22.106 -18.611  -0.427  0.00  0.00     0.015 A 
ATOM     19  C   UNL d   1      21.285 -18.950  -1.511  0.00  0.00     0.016 A 
ATOM     20  C   UNL d   1      20.080 -19.651  -1.334  0.00  0.00     0.013 A 
ATOM     21  C   UNL d   1      19.642 -20.047  -0.064  0.00  0.00    -0.026 A 
ATOM     22  C   UNL d   1      18.466 -20.818   0.092  0.00  0.00     0.012 A 
ATOM     23  C   UNL d   1      20.405 -19.666   1.061  0.00  0.00    -0.025 A 
ATOM     24  C   UNL d   1      18.026 -21.218   1.353  0.00  0.00     0.001 A 
ATOM     25  C   UNL d   1      18.744 -20.825   2.475  0.00  0.00     0.001 A 
ATOM     26  C   UNL d   1      19.909 -20.050   2.333  0.00  0.00     0.012 A 
ATOM     27  C   UNL d   1      21.629 -18.938   0.862  0.00  0.00     0.027 A 
ENDBRANCH   3  18
TORSDOF 2
ENDMDL
MODEL 2
REMARK VINA RESULT:    -8.944      1.252      2.818
REMARK INTER + INTRA:         -10.192
REMARK INTER:                  -9.541
REMARK INTRA:                  -0.651
REMARK CONF_INDEPENDENT:        0.597
REMARK UNBOUND:                -0.651
REMARK  2 active torsions:
REMARK  status: ('A' for Active; 'I' for Inactive)
REMARK    1  A    between atoms: C_10  and  C_11 
REMARK    2  A    between atoms: C_13  and  C_14 
ROOT
ATOM      1  C   UNL d   1      25.249 -17.120  -1.065  0.00  0.00     0.207 A 
ATOM      2  N   UNL d   1      24.493 -18.196  -0.899  0.00  0.00    -0.202 NA
ATOM      3  C   UNL d   1      23.257 -17.660  -0.523  0.00  0.00     0.189 A 
ATOM      4  N   UNL d   1      23.260 -16.315  -0.517  0.00  0.00    -0.105 NA
ATOM      5  O   UNL d   1      24.559 -15.959  -0.858  0.00  0.00    -0.193 OA
ENDROOT
BRANCH   1   6
ATOM      6  C   UNL d   1      26.776 -16.965  -1.182  0.00  0.00     0.307 C 
ATOM      7  C   UNL d   1      27.401 -16.913   0.245  0.00  0.00     0.103 C 
ATOM      8  C   UNL d   1      27.938 -15.579   0.535  0.00  0.00     0.037 A 
ATOM      9  N   UNL d   1      28.327 -15.078   1.761  0.00  0.00    -0.354 N 
ATOM     10  C   UNL d   1      28.169 -14.595  -0.382  0.00  0.00     0.061 A 
ATOM     11  C   UNL d   1      28.762 -13.814   1.623  0.00  0.00     0.180 A 
ATOM     12  H   UNL d   1      28.280 -15.575   2.641  0.00  0.00     0.166 HD
ATOM     13  N   UNL d   1      28.669 -13.518   0.327  0.00  0.00    -0.353 N 
ATOM     14  H   UNL d   1      28.924 -12.615  -0.075  0.00  0.00     0.166 HD
ATOM     15  C   UNL d   1      27.886 -14.702  -1.817  0.00  0.00     0.332 C 
ATOM     16  N   UNL d   1      27.210 -15.949  -2.222  0.00  0.00     0.102 N 
ATOM     17  C   UNL d   1      26.102 -15.618  -3.129  0.00  0.00     0.311 C 
ENDBRANCH   1   6
BRANCH   3  18
ATOM     18  C   UNL d   1      22.018 -18.437  -0.293  0.00  0.00     0.015 A 
ATOM     19  C   UNL d   1      21.255 -18.814  -1.407  0.00  0.00     0.016 A 
ATOM     20  C   UNL d   1      20.082 -19.575  -1.276  0.00  0.00     0.013 A 
ATOM     21  C   UNL d   1      19.617 -19.996  -0.023  0.00  0.00    -0.026 A 
ATOM     22  C   UNL d   1      18.477 -20.825   0.088  0.00  0.00     0.012 A 
ATOM     23  C   UNL d   1      20.318 -19.580   1.129  0.00  0.00    -0.025 A 
ATOM     24  C   UNL d   1      18.011 -21.250   1.332  0.00  0.00     0.001 A 
ATOM     25  C   UNL d   1      18.666 -20.825   2.480  0.00  0.00     0.001 A 
ATOM     26  C   UNL d   1      19.796 -19.992   2.382  0.00  0.00     0.012 A 
ATOM     27  C   UNL d   1      21.511 -18.791   0.977  0.00  0.00     0.027 A 
ENDBRANCH   3  18
TORSDOF 2
ENDMDL
MODEL 3
REMARK VINA RESULT:    -8.217      1.107      1.366
REMARK INTER + INTRA:          -9.527
REMARK INTER:                  -8.814
REMARK INTRA:                  -0.713
REMARK CONF_INDEPENDENT:        0.597
REMARK UNBOUND:                -0.713
REMARK  2 active torsions:
REMARK  status: ('A' for Active; 'I' for Inactive)
REMARK    1  A    between atoms: C_10  and  C_11 
REMARK    2  A    between atoms: C_13  and  C_14 
ROOT
ATOM      1  C   UNL d   1      25.387 -16.113  -1.051  0.00  0.00     0.207 A 
ATOM      2  N   UNL d   1      24.083 -16.321  -1.161  0.00  0.00    -0.202 NA
ATOM      3  C   UNL d   1      23.920 -17.602  -0.624  0.00  0.00     0.189 A 
ATOM      4  N   UNL d   1      25.074 -18.117  -0.161  0.00  0.00    -0.105 NA
ATOM      5  O   UNL d   1      26.034 -17.154  -0.448  0.00  0.00    -0.193 OA
ENDROOT
BRANCH   1   6
ATOM      6  C   UNL d   1      26.301 -15.058  -1.701  0.00  0.00     0.307 C 
ATOM      7  C   UNL d   1      26.928 -15.648  -3.000  0.00  0.00     0.103 C 
ATOM      8  C   UNL d   1      28.370 -15.858  -2.839  0.00  0.00     0.037 A 
ATOM      9  N   UNL d   1      29.210 -16.588  -3.656  0.00  0.00    -0.354 N 
ATOM     10  C   UNL d   1      29.147 -15.337  -1.845  0.00  0.00     0.061 A 
ATOM     11  C   UNL d   1      30.465 -16.550  -3.177  0.00  0.00     0.180 A 
ATOM     12  H   UNL d   1      28.928 -17.095  -4.485  0.00  0.00     0.166 HD
ATOM     13  N   UNL d   1      30.431 -15.792  -2.081  0.00  0.00    -0.353 N 
ATOM     14  H   UNL d   1      31.245 -15.591  -1.498  0.00  0.00     0.166 HD
ATOM     15  C   UNL d   1      28.653 -14.499  -0.747  0.00  0.00     0.332 C 
ATOM     16  N   UNL d   1      27.189 -14.325  -0.713  0.00  0.00     0.102 N 
ATOM     17  C   UNL d   1      26.718 -14.522   0.665  0.00  0.00     0.311 C 
ENDBRANCH   1   6
BRANCH   3  18
ATOM     18  C   UNL d   1      22.626 -18.294  -0.428  0.00  0.00     0.015 A 
ATOM     19  C   UNL d   1      21.887 -18.651  -1.564  0.00  0.00     0.016 A 
ATOM     20  C   UNL d   1      20.663 -19.333  -1.464  0.00  0.00     0.013 A 
ATOM     21  C   UNL d   1      20.122 -19.691  -0.223  0.00  0.00    -0.026 A 
ATOM     22  C   UNL d   1      18.927 -20.444  -0.140  0.00  0.00     0.012 A 
ATOM     23  C   UNL d   1      20.800 -19.291   0.948  0.00  0.00    -0.025 A 
ATOM     24  C   UNL d   1      18.385 -20.806   1.092  0.00  0.00     0.001 A 
ATOM     25  C   UNL d   1      19.019 -20.394   2.257  0.00  0.00     0.001 A 
ATOM     26  C   UNL d   1      20.203 -19.636   2.187  0.00  0.00     0.012 A 
ATOM     27  C   UNL d   1      22.046 -18.582   0.828  0.00  0.00     0.027 A 
ENDBRANCH   3  18
TORSDOF 2
ENDMDL
MODEL 4
REMARK VINA RESULT:    -7.701      4.227      8.553
REMARK INTER + INTRA:          -8.892
REMARK INTER:                  -8.297
REMARK INTRA:                  -0.594
REMARK CONF_INDEPENDENT:        0.597
REMARK UNBOUND:                -0.594
REMARK  2 active torsions:
REMARK  status: ('A' for Active; 'I' for Inactive)
REMARK    1  A    between atoms: C_10  and  C_11 
REMARK    2  A    between atoms: C_13  and  C_14 
ROOT
ATOM      1  C   UNL d   1      26.659 -15.007  -0.239  0.00  0.00     0.207 A 
ATOM      2  N   UNL d   1      26.655 -14.944   1.085  0.00  0.00    -0.202 NA
ATOM      3  C   UNL d   1      27.465 -13.835   1.351  0.00  0.00     0.189 A 
ATOM      4  N   UNL d   1      27.890 -13.227   0.229  0.00  0.00    -0.105 NA
ATOM      5  O   UNL d   1      27.377 -13.995  -0.809  0.00  0.00    -0.193 OA
ENDROOT
BRANCH   1   6
ATOM      6  C   UNL d   1      26.234 -16.134  -1.199  0.00  0.00     0.307 C 
ATOM      7  C   UNL d   1      24.733 -15.950  -1.578  0.00  0.00     0.103 C 
ATOM      8  C   UNL d   1      23.911 -17.018  -0.998  0.00  0.00     0.037 A 
ATOM      9  N   UNL d   1      22.535 -17.056  -0.894  0.00  0.00    -0.354 N 
ATOM     10  C   UNL d   1      24.376 -18.187  -0.471  0.00  0.00     0.061 A 
ATOM     11  C   UNL d   1      22.151 -18.197  -0.298  0.00  0.00     0.180 A 
ATOM     12  H   UNL d   1      21.902 -16.330  -1.203  0.00  0.00     0.166 HD
ATOM     13  N   UNL d   1      23.263 -18.886  -0.041  0.00  0.00    -0.353 N 
ATOM     14  H   UNL d   1      23.280 -19.797   0.419  0.00  0.00     0.166 HD
ATOM     15  C   UNL d   1      25.792 -18.557  -0.370  0.00  0.00     0.332 C 
ATOM     16  N   UNL d   1      26.737 -17.507  -0.793  0.00  0.00     0.102 N 
ATOM     17  C   UNL d   1      27.810 -17.400   0.206  0.00  0.00     0.311 C 
ENDBRANCH   1   6
BRANCH   3  18
ATOM     18  C   UNL d   1      27.730 -13.267   2.693  0.00  0.00     0.015 A 
ATOM     19  C   UNL d   1      27.577 -11.886   2.870  0.00  0.00     0.016 A 
ATOM     20  C   UNL d   1      27.784 -11.273   4.117  0.00  0.00     0.013 A 
ATOM     21  C   UNL d   1      28.150 -12.016   5.246  0.00  0.00    -0.026 A 
ATOM     22  C   UNL d   1      28.281 -11.398   6.512  0.00  0.00     0.012 A 
ATOM     23  C   UNL d   1      28.381 -13.400   5.096  0.00  0.00    -0.025 A 
ATOM     24  C   UNL d   1      28.643 -12.132   7.641  0.00  0.00     0.001 A 
ATOM     25  C   UNL d   1      28.906 -13.489   7.509  0.00  0.00     0.001 A 
ATOM     26  C   UNL d   1      28.790 -14.112   6.252  0.00  0.00     0.012 A 
ATOM     27  C   UNL d   1      28.177 -14.009   3.809  0.00  0.00     0.027 A 
ENDBRANCH   3  18
TORSDOF 2
ENDMDL
MODEL 5
REMARK VINA RESULT:    -7.469      4.640      6.954
REMARK INTER + INTRA:          -8.689
REMARK INTER:                  -8.065
REMARK INTRA:                  -0.623
REMARK CONF_INDEPENDENT:        0.597
REMARK UNBOUND:                -0.623
REMARK  2 active torsions:
REMARK  status: ('A' for Active; 'I' for Inactive)
REMARK    1  A    between atoms: C_10  and  C_11 
REMARK    2  A    between atoms: C_13  and  C_14 
ROOT
ATOM      1  C   UNL d   1      26.452 -11.774  -4.447  0.00  0.00     0.207 A 
ATOM      2  N   UNL d   1      26.669 -12.534  -3.383  0.00  0.00    -0.202 NA
ATOM      3  C   UNL d   1      25.721 -13.553  -3.524  0.00  0.00     0.189 A 
ATOM      4  N   UNL d   1      25.003 -13.435  -4.656  0.00  0.00    -0.105 NA
ATOM      5  O   UNL d   1      25.468 -12.271  -5.254  0.00  0.00    -0.193 OA
ENDROOT
BRANCH   1   6
ATOM      6  C   UNL d   1      26.913 -10.343  -4.778  0.00  0.00     0.307 C 
ATOM      7  C   UNL d   1      25.982  -9.320  -4.059  0.00  0.00     0.103 C 
ATOM      8  C   UNL d   1      25.162  -8.586  -5.028  0.00  0.00     0.037 A 
ATOM      9  N   UNL d   1      24.057  -7.801  -4.770  0.00  0.00    -0.354 N 
ATOM     10  C   UNL d   1      25.370  -8.536  -6.376  0.00  0.00     0.061 A 
ATOM     11  C   UNL d   1      23.571  -7.297  -5.917  0.00  0.00     0.180 A 
ATOM     12  H   UNL d   1      23.654  -7.636  -3.856  0.00  0.00     0.166 HD
ATOM     13  N   UNL d   1      24.364  -7.740  -6.893  0.00  0.00    -0.353 N 
ATOM     14  H   UNL d   1      24.233  -7.523  -7.881  0.00  0.00     0.166 HD
ATOM     15  C   UNL d   1      26.442  -9.243  -7.085  0.00  0.00     0.332 C 
ATOM     16  N   UNL d   1      27.260 -10.134  -6.241  0.00  0.00     0.102 N 
ATOM     17  C   UNL d   1      27.430 -11.421  -6.930  0.00  0.00     0.311 C 
ENDBRANCH   1   6
BRANCH   3  18
ATOM     18  C   UNL d   1      25.586 -14.729  -2.635  0.00  0.00     0.015 A 
ATOM     19  C   UNL d   1      26.754 -15.362  -2.190  0.00  0.00     0.016 A 
ATOM     20  C   UNL d   1      26.712 -16.467  -1.324  0.00  0.00     0.013 A 
ATOM     21  C   UNL d   1      25.497 -16.989  -0.860  0.00  0.00    -0.026 A 
ATOM     22  C   UNL d   1      25.471 -18.053   0.072  0.00  0.00     0.012 A 
ATOM     23  C   UNL d   1      24.295 -16.424  -1.337  0.00  0.00    -0.025 A 
ATOM     24  C   UNL d   1      24.266 -18.575   0.540  0.00  0.00     0.001 A 
ATOM     25  C   UNL d   1      23.072 -18.056   0.057  0.00  0.00     0.001 A 
ATOM     26  C   UNL d   1      23.086 -17.004  -0.878  0.00  0.00     0.012 A 
ATOM     27  C   UNL d   1      24.357 -15.301  -2.235  0.00  0.00     0.027 A 
ENDBRANCH   3  18
TORSDOF 2
ENDMDL
MODEL 6
REMARK VINA RESULT:    -7.240      4.887      7.011
REMARK INTER + INTRA:          -8.446
REMARK INTER:                  -7.837
REMARK INTRA:                  -0.610
REMARK CONF_INDEPENDENT:        0.597
REMARK UNBOUND:                -0.610
REMARK  2 active torsions:
REMARK  status: ('A' for Active; 'I' for Inactive)
REMARK    1  A    between atoms: C_10  and  C_11 
REMARK    2  A    between atoms: C_13  and  C_14 
ROOT
ATOM      1  C   UNL d   1      30.941 -17.812  -0.639  0.00  0.00     0.207 A 
ATOM      2  N   UNL d   1      29.676 -18.208  -0.642  0.00  0.00    -0.202 NA
ATOM      3  C   UNL d   1      28.967 -17.004  -0.578  0.00  0.00     0.189 A 
ATOM      4  N   UNL d   1      29.776 -15.929  -0.590  0.00  0.00    -0.105 NA
ATOM      5  O   UNL d   1      31.063 -16.451  -0.618  0.00  0.00    -0.193 OA
ENDROOT
BRANCH   1   6
ATOM      6  C   UNL d   1      32.245 -18.592  -0.393  0.00  0.00     0.307 C 
ATOM      7  C   UNL d   1      32.132 -20.004  -1.044  0.00  0.00     0.103 C 
ATOM      8  C   UNL d   1      32.074 -21.052  -0.019  0.00  0.00     0.037 A 
ATOM      9  N   UNL d   1      31.720 -22.375  -0.188  0.00  0.00    -0.354 N 
ATOM     10  C   UNL d   1      32.388 -20.897   1.301  0.00  0.00     0.061 A 
ATOM     11  C   UNL d   1      31.782 -23.022   0.988  0.00  0.00     0.180 A 
ATOM     12  H   UNL d   1      31.437 -22.800  -1.062  0.00  0.00     0.166 HD
ATOM     13  N   UNL d   1      32.188 -22.130   1.892  0.00  0.00    -0.353 N 
ATOM     14  H   UNL d   1      32.320 -22.338   2.883  0.00  0.00     0.166 HD
ATOM     15  C   UNL d   1      32.810 -19.635   1.919  0.00  0.00     0.332 C 
ATOM     16  N   UNL d   1      32.777 -18.465   1.023  0.00  0.00     0.102 N 
ATOM     17  C   UNL d   1      32.138 -17.343   1.726  0.00  0.00     0.311 C 
ENDBRANCH   1   6
BRANCH   3  18
ATOM     18  C   UNL d   1      27.493 -16.871  -0.637  0.00  0.00     0.015 A 
ATOM     19  C   UNL d   1      26.955 -15.708  -1.203  0.00  0.00     0.016 A 
ATOM     20  C   UNL d   1      25.568 -15.517  -1.321  0.00  0.00     0.013 A 
ATOM     21  C   UNL d   1      24.655 -16.483  -0.879  0.00  0.00    -0.026 A 
ATOM     22  C   UNL d   1      23.265 -16.311  -1.073  0.00  0.00     0.012 A 
ATOM     23  C   UNL d   1      25.154 -17.639  -0.241  0.00  0.00    -0.025 A 
ATOM     24  C   UNL d   1      22.350 -17.270  -0.639  0.00  0.00     0.001 A 
ATOM     25  C   UNL d   1      22.818 -18.399   0.021  0.00  0.00     0.001 A 
ATOM     26  C   UNL d   1      24.198 -18.575   0.229  0.00  0.00     0.012 A 
ATOM     27  C   UNL d   1      26.577 -17.812  -0.118  0.00  0.00     0.027 A 
ENDBRANCH   3  18
TORSDOF 2
ENDMDL
MODEL 7
REMARK VINA RESULT:    -7.170      4.620      8.371
REMARK INTER + INTRA:          -8.493
REMARK INTER:                  -7.767
REMARK INTRA:                  -0.726
REMARK CONF_INDEPENDENT:        0.597
REMARK UNBOUND:                -0.726
REMARK  2 active torsions:
REMARK  status: ('A' for Active; 'I' for Inactive)
REMARK    1  A    between atoms: C_10  and  C_11 
REMARK    2  A    between atoms: C_13  and  C_14 
ROOT
ATOM      1  C   UNL d   1      27.083 -14.745   0.273  0.00  0.00     0.207 A 
ATOM      2  N   UNL d   1      27.704 -15.064   1.400  0.00  0.00    -0.202 NA
ATOM      3  C   UNL d   1      27.405 -13.987   2.241  0.00  0.00     0.189 A 
ATOM      4  N   UNL d   1      26.594 -13.087   1.658  0.00  0.00    -0.105 NA
ATOM      5  O   UNL d   1      26.390 -13.571   0.371  0.00  0.00    -0.193 OA
ENDROOT
BRANCH   1   6
ATOM      6  C   UNL d   1      27.221 -15.309  -1.153  0.00  0.00     0.307 C 
ATOM      7  C   UNL d   1      27.726 -14.185  -2.106  0.00  0.00     0.103 C 
ATOM      8  C   UNL d   1      26.681 -13.796  -3.059  0.00  0.00     0.037 A 
ATOM      9  N   UNL d   1      26.658 -12.681  -3.873  0.00  0.00    -0.354 N 
ATOM     10  C   UNL d   1      25.540 -14.496  -3.322  0.00  0.00     0.061 A 
ATOM     11  C   UNL d   1      25.530 -12.667  -4.602  0.00  0.00     0.180 A 
ATOM     12  H   UNL d   1      27.373 -11.966  -3.909  0.00  0.00     0.166 HD
ATOM     13  N   UNL d   1      24.850 -13.765  -4.273  0.00  0.00    -0.353 N 
ATOM     14  H   UNL d   1      23.942 -14.017  -4.666  0.00  0.00     0.166 HD
ATOM     15  C   UNL d   1      25.155 -15.750  -2.666  0.00  0.00     0.332 C 
ATOM     16  N   UNL d   1      26.056 -16.182  -1.581  0.00  0.00     0.102 N 
ATOM     17  C   UNL d   1      25.248 -16.588  -0.423  0.00  0.00     0.311 C 
ENDBRANCH   1   6
BRANCH   3  18
ATOM     18  C   UNL d   1      27.792 -13.878   3.667  0.00  0.00     0.015 A 
ATOM     19  C   UNL d   1      28.155 -15.048   4.346  0.00  0.00     0.016 A 
ATOM     20  C   UNL d   1      28.560 -15.026   5.691  0.00  0.00     0.013 A 
ATOM     21  C   UNL d   1      28.622 -13.830   6.419  0.00  0.00    -0.026 A 
ATOM     22  C   UNL d   1      29.104 -13.812   7.748  0.00  0.00     0.012 A 
ATOM     23  C   UNL d   1      28.199 -12.638   5.792  0.00  0.00    -0.025 A 
ATOM     24  C   UNL d   1      29.171 -12.625   8.477  0.00  0.00     0.001 A 
ATOM     25  C   UNL d   1      28.728 -11.446   7.890  0.00  0.00     0.001 A 
ATOM     26  C   UNL d   1      28.238 -11.454   6.571  0.00  0.00     0.012 A 
ATOM     27  C   UNL d   1      27.776 -12.681   4.418  0.00  0.00     0.027 A 
ENDBRANCH   3  18
TORSDOF 2
ENDMDL
MODEL 8
REMARK VINA RESULT:    -7.136      6.204      9.705
REMARK INTER + INTRA:          -8.457
REMARK INTER:                  -7.733
REMARK INTRA:                  -0.725
REMARK CONF_INDEPENDENT:        0.597
REMARK UNBOUND:                -0.725
REMARK  2 active torsions:
REMARK  status: ('A' for Active; 'I' for Inactive)
REMARK    1  A    between atoms: C_10  and  C_11 
REMARK    2  A    between atoms: C_13  and  C_14 
ROOT
ATOM      1  C   UNL d   1      28.944 -13.167   4.347  0.00  0.00     0.207 A 
ATOM      2  N   UNL d   1      29.103 -13.578   3.097  0.00  0.00    -0.202 NA
ATOM      3  C   UNL d   1      27.806 -13.938   2.715  0.00  0.00     0.189 A 
ATOM      4  N   UNL d   1      26.900 -13.700   3.681  0.00  0.00    -0.105 NA
ATOM      5  O   UNL d   1      27.639 -13.209   4.750  0.00  0.00    -0.193 OA
ENDROOT
BRANCH   1   6
ATOM      6  C   UNL d   1      29.970 -12.914   5.467  0.00  0.00     0.307 C 
ATOM      7  C   UNL d   1      29.897 -14.075   6.504  0.00  0.00     0.103 C 
ATOM      8  C   UNL d   1      29.355 -13.604   7.783  0.00  0.00     0.037 A 
ATOM      9  N   UNL d   1      28.905 -14.370   8.839  0.00  0.00    -0.354 N 
ATOM     10  C   UNL d   1      29.219 -12.299   8.161  0.00  0.00     0.061 A 
ATOM     11  C   UNL d   1      28.477 -13.576   9.834  0.00  0.00     0.180 A 
ATOM     12  H   UNL d   1      28.882 -15.382   8.863  0.00  0.00     0.166 HD
ATOM     13  N   UNL d   1      28.666 -12.320   9.428  0.00  0.00    -0.353 N 
ATOM     14  H   UNL d   1      28.424 -11.496   9.980  0.00  0.00     0.166 HD
ATOM     15  C   UNL d   1      29.570 -11.144   7.327  0.00  0.00     0.332 C 
ATOM     16  N   UNL d   1      30.000 -11.478   5.957  0.00  0.00     0.102 N 
ATOM     17  C   UNL d   1      29.317 -10.585   5.011  0.00  0.00     0.311 C 
ENDBRANCH   1   6
BRANCH   3  18
ATOM     18  C   UNL d   1      27.404 -14.393   1.365  0.00  0.00     0.015 A 
ATOM     19  C   UNL d   1      27.420 -15.768   1.096  0.00  0.00     0.016 A 
ATOM     20  C   UNL d   1      27.028 -16.282  -0.151  0.00  0.00     0.013 A 
ATOM     21  C   UNL d   1      26.598 -15.443  -1.187  0.00  0.00    -0.026 A 
ATOM     22  C   UNL d   1      26.133 -15.979  -2.411  0.00  0.00     0.012 A 
ATOM     23  C   UNL d   1      26.631 -14.047  -0.981  0.00  0.00    -0.025 A 
ATOM     24  C   UNL d   1      25.702 -15.150  -3.446  0.00  0.00     0.001 A 
ATOM     25  C   UNL d   1      25.758 -13.773  -3.276  0.00  0.00     0.001 A 
ATOM     26  C   UNL d   1      26.228 -13.228  -2.066  0.00  0.00     0.012 A 
ATOM     27  C   UNL d   1      27.048 -13.538   0.298  0.00  0.00     0.027 A 
ENDBRANCH   3  18
TORSDOF 2
ENDMDL
MODEL 9
REMARK VINA RESULT:    -6.897      6.119      9.266
REMARK INTER + INTRA:          -8.168
REMARK INTER:                  -7.494
REMARK INTRA:                  -0.674
REMARK CONF_INDEPENDENT:        0.597
REMARK UNBOUND:                -0.674
REMARK  2 active torsions:
REMARK  status: ('A' for Active; 'I' for Inactive)
REMARK    1  A    between atoms: C_10  and  C_11 
REMARK    2  A    between atoms: C_13  and  C_14 
ROOT
ATOM      1  C   UNL d   1      27.966 -13.635   3.964  0.00  0.00     0.207 A 
ATOM      2  N   UNL d   1      27.622 -14.473   2.997  0.00  0.00    -0.202 NA
ATOM      3  C   UNL d   1      27.353 -13.622   1.920  0.00  0.00     0.189 A 
ATOM      4  N   UNL d   1      27.581 -12.329   2.217  0.00  0.00    -0.105 NA
ATOM      5  O   UNL d   1      27.969 -12.332   3.550  0.00  0.00    -0.193 OA
ENDROOT
BRANCH   1   6
ATOM      6  C   UNL d   1      28.097 -13.842   5.484  0.00  0.00     0.307 C 
ATOM      7  C   UNL d   1      27.675 -12.536   6.222  0.00  0.00     0.103 C 
ATOM      8  C   UNL d   1      28.829 -11.898   6.863  0.00  0.00     0.037 A 
ATOM      9  N   UNL d   1      28.904 -10.620   7.378  0.00  0.00    -0.354 N 
ATOM     10  C   UNL d   1      30.044 -12.480   7.082  0.00  0.00     0.061 A 
ATOM     11  C   UNL d   1      30.131 -10.397   7.879  0.00  0.00     0.180 A 
ATOM     12  H   UNL d   1      28.157  -9.938   7.370  0.00  0.00     0.166 HD
ATOM     13  N   UNL d   1      30.825 -11.522   7.702  0.00  0.00    -0.353 N 
ATOM     14  H   UNL d   1      31.799 -11.645   7.981  0.00  0.00     0.166 HD
ATOM     15  C   UNL d   1      30.405 -13.844   6.679  0.00  0.00     0.332 C 
ATOM     16  N   UNL d   1      29.374 -14.551   5.897  0.00  0.00     0.102 N 
ATOM     17  C   UNL d   1      30.013 -15.200   4.743  0.00  0.00     0.311 C 
ENDBRANCH   1   6
BRANCH   3  18
ATOM     18  C   UNL d   1      27.001 -14.056   0.549  0.00  0.00     0.015 A 
ATOM     19  C   UNL d   1      26.949 -15.430   0.282  0.00  0.00     0.016 A 
ATOM     20  C   UNL d   1      26.597 -15.924  -0.985  0.00  0.00     0.013 A 
ATOM     21  C   UNL d   1      26.278 -15.065  -2.044  0.00  0.00    -0.026 A 
ATOM     22  C   UNL d   1      25.852 -15.575  -3.292  0.00  0.00     0.012 A 
ATOM     23  C   UNL d   1      26.384 -13.672  -1.837  0.00  0.00    -0.025 A 
ATOM     24  C   UNL d   1      25.530 -14.725  -4.350  0.00  0.00     0.001 A 
ATOM     25  C   UNL d   1      25.660 -13.353  -4.177  0.00  0.00     0.001 A 
ATOM     26  C   UNL d   1      26.093 -12.834  -2.943  0.00  0.00     0.012 A 
ATOM     27  C   UNL d   1      26.759 -13.185  -0.536  0.00  0.00     0.027 A 
ENDBRANCH   3  18
TORSDOF 2
ENDMDL
