MODEL 1
REMARK VINA RESULT:    -9.814      0.000      0.000
REMARK INTER + INTRA:         -15.342
REMARK INTER:                 -12.797
REMARK INTRA:                  -2.546
REMARK CONF_INDEPENDENT:        2.983
REMARK UNBOUND:                -2.546
REMARK  10 active torsions:
REMARK  status: ('A' for Active; 'I' for Inactive)
REMARK    1  A    between atoms: C_8  and  N_9 
REMARK       I    between atoms: N_9  and  C_10 
REMARK    2  A    between atoms: C_10  and  C_12 
REMARK    3  A    between atoms: C_12  and  O_13 
REMARK    4  A    between atoms: O_13  and  C_14 
REMARK    5  A    between atoms: C_19  and  C_20 
REMARK    6  A    between atoms: N_21  and  N_22 
REMARK       I    between atoms: N_22  and  C_23 
REMARK    7  A    between atoms: C_23  and  C_25 
REMARK       I    between atoms: C_25  and  N_27 
REMARK    8  A    between atoms: N_27  and  C_28 
REMARK    9  A    between atoms: C_28  and  C_29 
REMARK   10  A    between atoms: C_29  and  C_30 
ROOT
ATOM      1  C   UNL d   1      28.261 -15.250  -5.388  0.00  0.00     0.081 A 
ATOM      2  C   UNL d   1      29.139 -15.122  -6.489  0.00  0.00     0.037 A 
ATOM      3  C   UNL d   1      30.514 -15.085  -6.309  0.00  0.00     0.003 A 
ATOM      4  C   UNL d   1      31.012 -15.128  -5.013  0.00  0.00     0.001 A 
ATOM      5  C   UNL d   1      30.141 -15.312  -3.916  0.00  0.00     0.016 A 
ATOM      6  C   UNL d   1      28.751 -15.435  -4.091  0.00  0.00     0.016 A 
ENDROOT
BRANCH   6   7
ATOM      7  C   UNL d   1      27.878 -15.676  -2.873  0.00  0.00     0.153 C 
ATOM      8  N   UNL d   1      28.143 -16.601  -1.994  0.00  0.00    -0.183 NA
BRANCH   8   9
ATOM      9  N   UNL d   1      27.181 -17.053  -1.096  0.00  0.00    -0.239 N 
ATOM     10  C   UNL d   1      25.826 -17.019  -1.511  0.00  0.00     0.329 C 
ATOM     11  O   UNL d   1      25.413 -16.702  -2.598  0.00  0.00    -0.261 OA
ATOM     12  H   UNL d   1      27.419 -17.278  -0.138  0.00  0.00     0.192 HD
BRANCH  10  13
ATOM     13  C   UNL d   1      24.756 -17.402  -0.465  0.00  0.00     0.311 C 
ATOM     14  O   UNL d   1      25.087 -18.009   0.542  0.00  0.00    -0.262 OA
ATOM     15  N   UNL d   1      23.435 -17.039  -0.788  0.00  0.00    -0.353 N 
ATOM     16  H   UNL d   1      23.273 -16.647  -1.715  0.00  0.00     0.162 HD
BRANCH  15  17
ATOM     17  C   UNL d   1      22.340 -17.682  -0.082  0.00  0.00     0.128 C 
BRANCH  17  18
ATOM     18  C   UNL d   1      21.493 -18.691  -0.873  0.00  0.00     0.058 C 
BRANCH  18  19
ATOM     19  C   UNL d   1      20.482 -19.452  -0.029  0.00  0.00    -0.057 A 
ATOM     20  C   UNL d   1      19.334 -20.050  -0.576  0.00  0.00     0.007 A 
ATOM     21  C   UNL d   1      18.322 -20.548   0.246  0.00  0.00     0.001 A 
ATOM     22  C   UNL d   1      18.485 -20.547   1.627  0.00  0.00     0.000 A 
ATOM     23  C   UNL d   1      19.646 -20.021   2.186  0.00  0.00     0.001 A 
ATOM     24  C   UNL d   1      20.635 -19.470   1.366  0.00  0.00     0.007 A 
ENDBRANCH  18  19
ENDBRANCH  17  18
ENDBRANCH  15  17
ENDBRANCH  10  13
ENDBRANCH   8   9
ENDBRANCH   6   7
BRANCH   1  25
ATOM     25  O   UNL d   1      26.968 -15.233  -5.765  0.00  0.00    -0.341 OA
BRANCH  25  26
ATOM     26  C   UNL d   1      25.888 -15.505  -4.854  0.00  0.00     0.278 C 
BRANCH  26  27
ATOM     27  C   UNL d   1      25.386 -14.109  -4.562  0.00  0.00     0.246 C 
ATOM     28  N   UNL d   1      26.222 -13.025  -4.871  0.00  0.00    -0.325 N 
ATOM     29  H   UNL d   1      27.192 -13.273  -5.016  0.00  0.00     0.169 HD
ATOM     30  O   UNL d   1      24.282 -14.077  -4.026  0.00  0.00    -0.271 OA
BRANCH  28  31
ATOM     31  C   UNL d   1      25.993 -11.611  -4.627  0.00  0.00     0.042 A 
ATOM     32  C   UNL d   1      25.828 -11.192  -3.281  0.00  0.00     0.030 A 
ATOM     33  C   UNL d   1      25.669  -9.832  -2.949  0.00  0.00     0.004 A 
ATOM     34  C   UNL d   1      25.683  -8.865  -3.945  0.00  0.00     0.024 A 
ATOM     35  C   UNL d   1      25.796  -9.250  -5.271  0.00  0.00     0.042 A 
ATOM     36  C   UNL d   1      25.920 -10.604  -5.624  0.00  0.00    -0.013 A 
ATOM     37 CL   UNL d   1      25.813  -7.981  -6.454  0.00  0.00    -0.084 Cl
ATOM     38  C   UNL d   1      25.924 -10.917  -7.080  0.00  0.00     0.052 C 
ENDBRANCH  28  31
ENDBRANCH  26  27
ENDBRANCH  25  26
ENDBRANCH   1  25
TORSDOF 10
ENDMDL
MODEL 2
REMARK VINA RESULT:    -8.138      2.688      4.164
REMARK INTER + INTRA:         -15.792
REMARK INTER:                 -11.121
REMARK INTRA:                  -4.671
REMARK CONF_INDEPENDENT:        2.983
REMARK UNBOUND:                -4.671
REMARK  10 active torsions:
REMARK  status: ('A' for Active; 'I' for Inactive)
REMARK    1  A    between atoms: C_8  and  N_9 
REMARK       I    between atoms: N_9  and  C_10 
REMARK    2  A    between atoms: C_10  and  C_12 
REMARK    3  A    between atoms: C_12  and  O_13 
REMARK    4  A    between atoms: O_13  and  C_14 
REMARK    5  A    between atoms: C_19  and  C_20 
REMARK    6  A    between atoms: N_21  and  N_22 
REMARK       I    between atoms: N_22  and  C_23 
REMARK    7  A    between atoms: C_23  and  C_25 
REMARK       I    between atoms: C_25  and  N_27 
REMARK    8  A    between atoms: N_27  and  C_28 
REMARK    9  A    between atoms: C_28  and  C_29 
REMARK   10  A    between atoms: C_29  and  C_30 
ROOT
ATOM      1  C   UNL d   1      28.080 -14.724  -5.132  0.00  0.00     0.081 A 
ATOM      2  C   UNL d   1      29.312 -14.382  -5.737  0.00  0.00     0.037 A 
ATOM      3  C   UNL d   1      29.474 -13.171  -6.397  0.00  0.00     0.003 A 
ATOM      4  C   UNL d   1      28.382 -12.319  -6.491  0.00  0.00     0.001 A 
ATOM      5  C   UNL d   1      27.169 -12.633  -5.840  0.00  0.00     0.016 A 
ATOM      6  C   UNL d   1      27.015 -13.817  -5.098  0.00  0.00     0.016 A 
ENDROOT
BRANCH   6   7
ATOM      7  C   UNL d   1      25.700 -14.070  -4.385  0.00  0.00     0.153 C 
ATOM      8  N   UNL d   1      25.630 -14.306  -3.106  0.00  0.00    -0.183 NA
BRANCH   8   9
ATOM      9  N   UNL d   1      24.501 -14.878  -2.528  0.00  0.00    -0.239 N 
ATOM     10  C   UNL d   1      24.674 -16.081  -1.796  0.00  0.00     0.329 C 
ATOM     11  O   UNL d   1      25.718 -16.633  -1.556  0.00  0.00    -0.261 OA
ATOM     12  H   UNL d   1      23.572 -14.527  -2.725  0.00  0.00     0.192 HD
BRANCH  10  13
ATOM     13  C   UNL d   1      23.402 -16.776  -1.267  0.00  0.00     0.311 C 
ATOM     14  O   UNL d   1      22.578 -16.129  -0.639  0.00  0.00    -0.262 OA
ATOM     15  N   UNL d   1      23.310 -18.155  -1.531  0.00  0.00    -0.353 N 
ATOM     16  H   UNL d   1      24.120 -18.604  -1.955  0.00  0.00     0.162 HD
BRANCH  15  17
ATOM     17  C   UNL d   1      22.374 -18.955  -0.759  0.00  0.00     0.128 C 
BRANCH  17  18
ATOM     18  C   UNL d   1      20.876 -18.684  -0.977  0.00  0.00     0.058 C 
BRANCH  18  19
ATOM     19  C   UNL d   1      19.962 -19.425  -0.012  0.00  0.00    -0.057 A 
ATOM     20  C   UNL d   1      20.265 -19.582   1.350  0.00  0.00     0.007 A 
ATOM     21  C   UNL d   1      19.523 -20.446   2.157  0.00  0.00     0.001 A 
ATOM     22  C   UNL d   1      18.406 -21.092   1.639  0.00  0.00     0.000 A 
ATOM     23  C   UNL d   1      18.049 -20.897   0.308  0.00  0.00     0.001 A 
ATOM     24  C   UNL d   1      18.824 -20.076  -0.516  0.00  0.00     0.007 A 
ENDBRANCH  18  19
ENDBRANCH  17  18
ENDBRANCH  15  17
ENDBRANCH  10  13
ENDBRANCH   8   9
ENDBRANCH   6   7
BRANCH   1  25
ATOM     25  O   UNL d   1      28.113 -15.949  -4.573  0.00  0.00    -0.341 OA
BRANCH  25  26
ATOM     26  C   UNL d   1      29.312 -16.521  -4.022  0.00  0.00     0.278 C 
BRANCH  26  27
ATOM     27  C   UNL d   1      29.354 -15.871  -2.658  0.00  0.00     0.246 C 
ATOM     28  N   UNL d   1      28.136 -15.571  -2.028  0.00  0.00    -0.325 N 
ATOM     29  H   UNL d   1      27.335 -15.570  -2.647  0.00  0.00     0.169 HD
ATOM     30  O   UNL d   1      30.487 -15.626  -2.256  0.00  0.00    -0.271 OA
BRANCH  28  31
ATOM     31  C   UNL d   1      27.919 -14.895  -0.761  0.00  0.00     0.042 A 
ATOM     32  C   UNL d   1      27.915 -15.686   0.418  0.00  0.00     0.030 A 
ATOM     33  C   UNL d   1      27.778 -15.103   1.693  0.00  0.00     0.004 A 
ATOM     34  C   UNL d   1      27.656 -13.726   1.821  0.00  0.00     0.024 A 
ATOM     35  C   UNL d   1      27.610 -12.935   0.685  0.00  0.00     0.042 A 
ATOM     36  C   UNL d   1      27.709 -13.501  -0.597  0.00  0.00    -0.013 A 
ATOM     37 CL   UNL d   1      27.464 -11.224   0.930  0.00  0.00    -0.084 Cl
ATOM     38  C   UNL d   1      27.539 -12.576  -1.751  0.00  0.00     0.052 C 
ENDBRANCH  28  31
ENDBRANCH  26  27
ENDBRANCH  25  26
ENDBRANCH   1  25
TORSDOF 10
ENDMDL
MODEL 3
REMARK VINA RESULT:    -7.930      5.969      8.154
REMARK INTER + INTRA:         -14.981
REMARK INTER:                 -10.913
REMARK INTRA:                  -4.068
REMARK CONF_INDEPENDENT:        2.983
REMARK UNBOUND:                -4.068
REMARK  10 active torsions:
REMARK  status: ('A' for Active; 'I' for Inactive)
REMARK    1  A    between atoms: C_8  and  N_9 
REMARK       I    between atoms: N_9  and  C_10 
REMARK    2  A    between atoms: C_10  and  C_12 
REMARK    3  A    between atoms: C_12  and  O_13 
REMARK    4  A    between atoms: O_13  and  C_14 
REMARK    5  A    between atoms: C_19  and  C_20 
REMARK    6  A    between atoms: N_21  and  N_22 
REMARK       I    between atoms: N_22  and  C_23 
REMARK    7  A    between atoms: C_23  and  C_25 
REMARK       I    between atoms: C_25  and  N_27 
REMARK    8  A    between atoms: N_27  and  C_28 
REMARK    9  A    between atoms: C_28  and  C_29 
REMARK   10  A    between atoms: C_29  and  C_30 
ROOT
ATOM      1  C   UNL d   1      29.191 -13.548  -2.948  0.00  0.00     0.081 A 
ATOM      2  C   UNL d   1      29.356 -13.395  -4.345  0.00  0.00     0.037 A 
ATOM      3  C   UNL d   1      30.548 -13.739  -4.967  0.00  0.00     0.003 A 
ATOM      4  C   UNL d   1      31.597 -14.195  -4.179  0.00  0.00     0.001 A 
ATOM      5  C   UNL d   1      31.416 -14.402  -2.794  0.00  0.00     0.016 A 
ATOM      6  C   UNL d   1      30.188 -14.136  -2.163  0.00  0.00     0.016 A 
ENDROOT
BRANCH   6   7
ATOM      7  C   UNL d   1      30.050 -14.423  -0.679  0.00  0.00     0.153 C 
ATOM      8  N   UNL d   1      29.069 -15.128  -0.191  0.00  0.00    -0.183 NA
BRANCH   8   9
ATOM      9  N   UNL d   1      28.745 -15.094   1.162  0.00  0.00    -0.239 N 
ATOM     10  C   UNL d   1      27.695 -14.231   1.565  0.00  0.00     0.329 C 
ATOM     11  O   UNL d   1      26.993 -13.566   0.846  0.00  0.00    -0.261 OA
ATOM     12  H   UNL d   1      29.316 -15.565   1.852  0.00  0.00     0.192 HD
BRANCH  10  13
ATOM     13  C   UNL d   1      27.427 -14.104   3.080  0.00  0.00     0.311 C 
ATOM     14  O   UNL d   1      26.655 -13.249   3.487  0.00  0.00    -0.262 OA
ATOM     15  N   UNL d   1      28.149 -14.991   3.900  0.00  0.00    -0.353 N 
ATOM     16  H   UNL d   1      28.854 -15.573   3.450  0.00  0.00     0.162 HD
BRANCH  15  17
ATOM     17  C   UNL d   1      28.263 -14.698   5.319  0.00  0.00     0.128 C 
BRANCH  17  18
ATOM     18  C   UNL d   1      28.971 -13.390   5.708  0.00  0.00     0.058 C 
BRANCH  18  19
ATOM     19  C   UNL d   1      28.942 -13.087   7.199  0.00  0.00    -0.057 A 
ATOM     20  C   UNL d   1      28.992 -14.092   8.179  0.00  0.00     0.007 A 
ATOM     21  C   UNL d   1      28.746 -13.801   9.521  0.00  0.00     0.001 A 
ATOM     22  C   UNL d   1      28.543 -12.485   9.920  0.00  0.00     0.000 A 
ATOM     23  C   UNL d   1      28.557 -11.464   8.973  0.00  0.00     0.001 A 
ATOM     24  C   UNL d   1      28.748 -11.762   7.621  0.00  0.00     0.007 A 
ENDBRANCH  18  19
ENDBRANCH  17  18
ENDBRANCH  15  17
ENDBRANCH  10  13
ENDBRANCH   8   9
ENDBRANCH   6   7
BRANCH   1  25
ATOM     25  O   UNL d   1      27.981 -13.129  -2.532  0.00  0.00    -0.341 OA
BRANCH  25  26
ATOM     26  C   UNL d   1      26.810 -13.181  -3.366  0.00  0.00     0.278 C 
BRANCH  26  27
ATOM     27  C   UNL d   1      26.195 -14.493  -2.935  0.00  0.00     0.246 C 
ATOM     28  N   UNL d   1      26.424 -14.934  -1.622  0.00  0.00    -0.325 N 
ATOM     29  H   UNL d   1      27.196 -14.474  -1.156  0.00  0.00     0.169 HD
ATOM     30  O   UNL d   1      25.578 -15.072  -3.824  0.00  0.00    -0.271 OA
BRANCH  28  31
ATOM     31  C   UNL d   1      26.000 -16.177  -1.001  0.00  0.00     0.042 A 
ATOM     32  C   UNL d   1      27.003 -17.009  -0.439  0.00  0.00     0.030 A 
ATOM     33  C   UNL d   1      26.673 -18.198   0.241  0.00  0.00     0.004 A 
ATOM     34  C   UNL d   1      25.345 -18.575   0.385  0.00  0.00     0.024 A 
ATOM     35  C   UNL d   1      24.350 -17.806  -0.194  0.00  0.00     0.042 A 
ATOM     36  C   UNL d   1      24.660 -16.635  -0.906  0.00  0.00    -0.013 A 
ATOM     37 CL   UNL d   1      22.716 -18.339   0.038  0.00  0.00    -0.084 Cl
ATOM     38  C   UNL d   1      23.528 -15.942  -1.580  0.00  0.00     0.052 C 
ENDBRANCH  28  31
ENDBRANCH  26  27
ENDBRANCH  25  26
ENDBRANCH   1  25
TORSDOF 10
ENDMDL
MODEL 4
REMARK VINA RESULT:    -7.852      2.834      8.145
REMARK INTER + INTRA:         -15.277
REMARK INTER:                 -10.835
REMARK INTRA:                  -4.443
REMARK CONF_INDEPENDENT:        2.983
REMARK UNBOUND:                -4.443
REMARK  10 active torsions:
REMARK  status: ('A' for Active; 'I' for Inactive)
REMARK    1  A    between atoms: C_8  and  N_9 
REMARK       I    between atoms: N_9  and  C_10 
REMARK    2  A    between atoms: C_10  and  C_12 
REMARK    3  A    between atoms: C_12  and  O_13 
REMARK    4  A    between atoms: O_13  and  C_14 
REMARK    5  A    between atoms: C_19  and  C_20 
REMARK    6  A    between atoms: N_21  and  N_22 
REMARK       I    between atoms: N_22  and  C_23 
REMARK    7  A    between atoms: C_23  and  C_25 
REMARK       I    between atoms: C_25  and  N_27 
REMARK    8  A    between atoms: N_27  and  C_28 
REMARK    9  A    between atoms: C_28  and  C_29 
REMARK   10  A    between atoms: C_29  and  C_30 
ROOT
ATOM      1  C   UNL d   1      24.552 -16.686  -1.090  0.00  0.00     0.081 A 
ATOM      2  C   UNL d   1      23.185 -16.325  -1.072  0.00  0.00     0.037 A 
ATOM      3  C   UNL d   1      22.244 -17.114  -0.424  0.00  0.00     0.003 A 
ATOM      4  C   UNL d   1      22.670 -18.295   0.170  0.00  0.00     0.001 A 
ATOM      5  C   UNL d   1      24.042 -18.629   0.201  0.00  0.00     0.016 A 
ATOM      6  C   UNL d   1      25.016 -17.798  -0.380  0.00  0.00     0.016 A 
ENDROOT
BRANCH   6   7
ATOM      7  C   UNL d   1      26.477 -18.194  -0.270  0.00  0.00     0.153 C 
ATOM      8  N   UNL d   1      27.420 -17.330  -0.022  0.00  0.00    -0.183 NA
BRANCH   8   9
ATOM      9  N   UNL d   1      28.759 -17.616  -0.270  0.00  0.00    -0.239 N 
ATOM     10  C   UNL d   1      29.377 -16.970  -1.370  0.00  0.00     0.329 C 
ATOM     11  O   UNL d   1      28.884 -16.132  -2.083  0.00  0.00    -0.261 OA
ATOM     12  H   UNL d   1      29.242 -18.352   0.230  0.00  0.00     0.192 HD
BRANCH  10  13
ATOM     13  C   UNL d   1      30.823 -17.388  -1.715  0.00  0.00     0.311 C 
ATOM     14  O   UNL d   1      31.456 -18.074  -0.928  0.00  0.00    -0.262 OA
ATOM     15  N   UNL d   1      31.321 -16.897  -2.937  0.00  0.00    -0.353 N 
ATOM     16  H   UNL d   1      30.738 -16.233  -3.445  0.00  0.00     0.162 HD
BRANCH  15  17
ATOM     17  C   UNL d   1      32.756 -16.905  -3.161  0.00  0.00     0.128 C 
BRANCH  17  18
ATOM     18  C   UNL d   1      33.278 -17.760  -4.328  0.00  0.00     0.058 C 
BRANCH  18  19
ATOM     19  C   UNL d   1      32.183 -18.374  -5.188  0.00  0.00    -0.057 A 
ATOM     20  C   UNL d   1      31.263 -19.312  -4.689  0.00  0.00     0.007 A 
ATOM     21  C   UNL d   1      30.416 -20.014  -5.547  0.00  0.00     0.001 A 
ATOM     22  C   UNL d   1      30.405 -19.722  -6.906  0.00  0.00     0.000 A 
ATOM     23  C   UNL d   1      31.261 -18.747  -7.410  0.00  0.00     0.001 A 
ATOM     24  C   UNL d   1      32.150 -18.082  -6.561  0.00  0.00     0.007 A 
ENDBRANCH  18  19
ENDBRANCH  17  18
ENDBRANCH  15  17
ENDBRANCH  10  13
ENDBRANCH   8   9
ENDBRANCH   6   7
BRANCH   1  25
ATOM     25  O   UNL d   1      25.297 -15.813  -1.796  0.00  0.00    -0.341 OA
BRANCH  25  26
ATOM     26  C   UNL d   1      24.746 -14.628  -2.398  0.00  0.00     0.278 C 
BRANCH  26  27
ATOM     27  C   UNL d   1      25.521 -14.563  -3.694  0.00  0.00     0.246 C 
ATOM     28  N   UNL d   1      26.883 -14.901  -3.670  0.00  0.00    -0.325 N 
ATOM     29  H   UNL d   1      27.297 -14.904  -2.746  0.00  0.00     0.169 HD
ATOM     30  O   UNL d   1      24.864 -14.164  -4.650  0.00  0.00    -0.271 OA
BRANCH  28  31
ATOM     31  C   UNL d   1      27.843 -14.853  -4.759  0.00  0.00     0.042 A 
ATOM     32  C   UNL d   1      28.736 -15.948  -4.901  0.00  0.00     0.030 A 
ATOM     33  C   UNL d   1      29.652 -16.014  -5.969  0.00  0.00     0.004 A 
ATOM     34  C   UNL d   1      29.691 -15.003  -6.920  0.00  0.00     0.024 A 
ATOM     35  C   UNL d   1      28.864 -13.901  -6.780  0.00  0.00     0.042 A 
ATOM     36  C   UNL d   1      27.967 -13.800  -5.702  0.00  0.00    -0.013 A 
ATOM     37 CL   UNL d   1      28.967 -12.686  -8.013  0.00  0.00    -0.084 Cl
ATOM     38  C   UNL d   1      27.204 -12.527  -5.586  0.00  0.00     0.052 C 
ENDBRANCH  28  31
ENDBRANCH  26  27
ENDBRANCH  25  26
ENDBRANCH   1  25
TORSDOF 10
ENDMDL
MODEL 5
REMARK VINA RESULT:    -7.481      5.724      8.239
REMARK INTER + INTRA:         -14.819
REMARK INTER:                 -10.464
REMARK INTRA:                  -4.355
REMARK CONF_INDEPENDENT:        2.983
REMARK UNBOUND:                -4.355
REMARK  10 active torsions:
REMARK  status: ('A' for Active; 'I' for Inactive)
REMARK    1  A    between atoms: C_8  and  N_9 
REMARK       I    between atoms: N_9  and  C_10 
REMARK    2  A    between atoms: C_10  and  C_12 
REMARK    3  A    between atoms: C_12  and  O_13 
REMARK    4  A    between atoms: O_13  and  C_14 
REMARK    5  A    between atoms: C_19  and  C_20 
REMARK    6  A    between atoms: N_21  and  N_22 
REMARK       I    between atoms: N_22  and  C_23 
REMARK    7  A    between atoms: C_23  and  C_25 
REMARK       I    between atoms: C_25  and  N_27 
REMARK    8  A    between atoms: N_27  and  C_28 
REMARK    9  A    between atoms: C_28  and  C_29 
REMARK   10  A    between atoms: C_29  and  C_30 
ROOT
ATOM      1  C   UNL d   1      26.753 -10.891  -3.370  0.00  0.00     0.081 A 
ATOM      2  C   UNL d   1      26.772 -10.364  -4.683  0.00  0.00     0.037 A 
ATOM      3  C   UNL d   1      27.556  -9.265  -5.002  0.00  0.00     0.003 A 
ATOM      4  C   UNL d   1      28.290  -8.661  -3.989  0.00  0.00     0.001 A 
ATOM      5  C   UNL d   1      28.317  -9.219  -2.693  0.00  0.00     0.016 A 
ATOM      6  C   UNL d   1      27.592 -10.381  -2.375  0.00  0.00     0.016 A 
ENDROOT
BRANCH   6   7
ATOM      7  C   UNL d   1      27.701 -10.952  -0.973  0.00  0.00     0.153 C 
ATOM      8  N   UNL d   1      27.098 -12.050  -0.615  0.00  0.00    -0.183 NA
BRANCH   8   9
ATOM      9  N   UNL d   1      26.906 -12.377   0.723  0.00  0.00    -0.239 N 
ATOM     10  C   UNL d   1      27.733 -13.385   1.280  0.00  0.00     0.329 C 
ATOM     11  O   UNL d   1      28.648 -13.949   0.733  0.00  0.00    -0.261 OA
ATOM     12  H   UNL d   1      26.123 -12.007   1.249  0.00  0.00     0.192 HD
BRANCH  10  13
ATOM     13  C   UNL d   1      27.430 -13.831   2.726  0.00  0.00     0.311 C 
ATOM     14  O   UNL d   1      26.625 -13.201   3.395  0.00  0.00    -0.262 OA
ATOM     15  N   UNL d   1      28.158 -14.945   3.183  0.00  0.00    -0.353 N 
ATOM     16  H   UNL d   1      28.889 -15.307   2.572  0.00  0.00     0.162 HD
BRANCH  15  17
ATOM     17  C   UNL d   1      28.233 -15.194   4.612  0.00  0.00     0.128 C 
BRANCH  17  18
ATOM     18  C   UNL d   1      29.422 -14.579   5.369  0.00  0.00     0.058 C 
BRANCH  18  19
ATOM     19  C   UNL d   1      29.022 -13.630   6.490  0.00  0.00    -0.057 A 
ATOM     20  C   UNL d   1      28.679 -12.288   6.261  0.00  0.00     0.007 A 
ATOM     21  C   UNL d   1      28.531 -11.393   7.322  0.00  0.00     0.001 A 
ATOM     22  C   UNL d   1      28.626 -11.848   8.633  0.00  0.00     0.000 A 
ATOM     23  C   UNL d   1      28.899 -13.190   8.881  0.00  0.00     0.001 A 
ATOM     24  C   UNL d   1      29.104 -14.075   7.819  0.00  0.00     0.007 A 
ENDBRANCH  18  19
ENDBRANCH  17  18
ENDBRANCH  15  17
ENDBRANCH  10  13
ENDBRANCH   8   9
ENDBRANCH   6   7
BRANCH   1  25
ATOM     25  O   UNL d   1      25.907 -11.933  -3.255  0.00  0.00    -0.341 OA
BRANCH  25  26
ATOM     26  C   UNL d   1      25.507 -12.739  -4.378  0.00  0.00     0.278 C 
BRANCH  26  27
ATOM     27  C   UNL d   1      25.515 -14.123  -3.770  0.00  0.00     0.246 C 
ATOM     28  N   UNL d   1      25.964 -14.264  -2.447  0.00  0.00    -0.325 N 
ATOM     29  H   UNL d   1      26.492 -13.475  -2.099  0.00  0.00     0.169 HD
ATOM     30  O   UNL d   1      25.160 -15.010  -4.540  0.00  0.00    -0.271 OA
BRANCH  28  31
ATOM     31  C   UNL d   1      26.125 -15.484  -1.675  0.00  0.00     0.042 A 
ATOM     32  C   UNL d   1      27.444 -15.878  -1.330  0.00  0.00     0.030 A 
ATOM     33  C   UNL d   1      27.686 -17.010  -0.527  0.00  0.00     0.004 A 
ATOM     34  C   UNL d   1      26.624 -17.762  -0.042  0.00  0.00     0.024 A 
ATOM     35  C   UNL d   1      25.330 -17.428  -0.402  0.00  0.00     0.042 A 
ATOM     36  C   UNL d   1      25.069 -16.323  -1.231  0.00  0.00    -0.013 A 
ATOM     37 CL   UNL d   1      24.059 -18.412   0.250  0.00  0.00    -0.084 Cl
ATOM     38  C   UNL d   1      23.654 -16.116  -1.645  0.00  0.00     0.052 C 
ENDBRANCH  28  31
ENDBRANCH  26  27
ENDBRANCH  25  26
ENDBRANCH   1  25
TORSDOF 10
ENDMDL
MODEL 6
REMARK VINA RESULT:    -7.454      6.037      8.437
REMARK INTER + INTRA:         -15.106
REMARK INTER:                 -10.437
REMARK INTRA:                  -4.669
REMARK CONF_INDEPENDENT:        2.983
REMARK UNBOUND:                -4.669
REMARK  10 active torsions:
REMARK  status: ('A' for Active; 'I' for Inactive)
REMARK    1  A    between atoms: C_8  and  N_9 
REMARK       I    between atoms: N_9  and  C_10 
REMARK    2  A    between atoms: C_10  and  C_12 
REMARK    3  A    between atoms: C_12  and  O_13 
REMARK    4  A    between atoms: O_13  and  C_14 
REMARK    5  A    between atoms: C_19  and  C_20 
REMARK    6  A    between atoms: N_21  and  N_22 
REMARK       I    between atoms: N_22  and  C_23 
REMARK    7  A    between atoms: C_23  and  C_25 
REMARK       I    between atoms: C_25  and  N_27 
REMARK    8  A    between atoms: N_27  and  C_28 
REMARK    9  A    between atoms: C_28  and  C_29 
REMARK   10  A    between atoms: C_29  and  C_30 
ROOT
ATOM      1  C   UNL d   1      28.132 -13.293  -3.514  0.00  0.00     0.081 A 
ATOM      2  C   UNL d   1      28.139 -13.420  -4.923  0.00  0.00     0.037 A 
ATOM      3  C   UNL d   1      27.034 -13.055  -5.680  0.00  0.00     0.003 A 
ATOM      4  C   UNL d   1      25.899 -12.605  -5.017  0.00  0.00     0.001 A 
ATOM      5  C   UNL d   1      25.910 -12.425  -3.617  0.00  0.00     0.016 A 
ATOM      6  C   UNL d   1      27.050 -12.712  -2.845  0.00  0.00     0.016 A 
ENDROOT
BRANCH   6   7
ATOM      7  C   UNL d   1      27.008 -12.452  -1.351  0.00  0.00     0.153 C 
ATOM      8  N   UNL d   1      27.603 -13.226  -0.489  0.00  0.00    -0.183 NA
BRANCH   8   9
ATOM      9  N   UNL d   1      27.279 -13.201   0.864  0.00  0.00    -0.239 N 
ATOM     10  C   UNL d   1      28.064 -13.988   1.744  0.00  0.00     0.329 C 
ATOM     11  O   UNL d   1      29.043 -14.631   1.456  0.00  0.00    -0.261 OA
ATOM     12  H   UNL d   1      26.438 -12.745   1.196  0.00  0.00     0.192 HD
BRANCH  10  13
ATOM     13  C   UNL d   1      27.620 -14.054   3.221  0.00  0.00     0.311 C 
ATOM     14  O   UNL d   1      26.723 -13.325   3.615  0.00  0.00    -0.262 OA
ATOM     15  N   UNL d   1      28.336 -14.957   4.029  0.00  0.00    -0.353 N 
ATOM     16  H   UNL d   1      29.144 -15.417   3.612  0.00  0.00     0.162 HD
BRANCH  15  17
ATOM     17  C   UNL d   1      28.263 -14.813   5.474  0.00  0.00     0.128 C 
BRANCH  17  18
ATOM     18  C   UNL d   1      28.321 -13.384   6.039  0.00  0.00     0.058 C 
BRANCH  18  19
ATOM     19  C   UNL d   1      28.743 -13.309   7.499  0.00  0.00    -0.057 A 
ATOM     20  C   UNL d   1      28.155 -12.419   8.414  0.00  0.00     0.007 A 
ATOM     21  C   UNL d   1      28.708 -12.221   9.679  0.00  0.00     0.001 A 
ATOM     22  C   UNL d   1      29.798 -12.981  10.088  0.00  0.00     0.000 A 
ATOM     23  C   UNL d   1      30.354 -13.917   9.220  0.00  0.00     0.001 A 
ATOM     24  C   UNL d   1      29.837 -14.075   7.932  0.00  0.00     0.007 A 
ENDBRANCH  18  19
ENDBRANCH  17  18
ENDBRANCH  15  17
ENDBRANCH  10  13
ENDBRANCH   8   9
ENDBRANCH   6   7
BRANCH   1  25
ATOM     25  O   UNL d   1      29.280 -13.729  -2.961  0.00  0.00    -0.341 OA
BRANCH  25  26
ATOM     26  C   UNL d   1      29.961 -14.914  -3.413  0.00  0.00     0.278 C 
BRANCH  26  27
ATOM     27  C   UNL d   1      29.064 -16.001  -2.865  0.00  0.00     0.246 C 
ATOM     28  N   UNL d   1      28.141 -15.658  -1.865  0.00  0.00    -0.325 N 
ATOM     29  H   UNL d   1      28.330 -14.777  -1.406  0.00  0.00     0.169 HD
ATOM     30  O   UNL d   1      29.280 -17.113  -3.338  0.00  0.00    -0.271 OA
BRANCH  28  31
ATOM     31  C   UNL d   1      27.228 -16.528  -1.144  0.00  0.00     0.042 A 
ATOM     32  C   UNL d   1      27.781 -17.417  -0.186  0.00  0.00     0.030 A 
ATOM     33  C   UNL d   1      26.962 -18.247   0.605  0.00  0.00     0.004 A 
ATOM     34  C   UNL d   1      25.581 -18.200   0.467  0.00  0.00     0.024 A 
ATOM     35  C   UNL d   1      25.017 -17.377  -0.493  0.00  0.00     0.042 A 
ATOM     36  C   UNL d   1      25.819 -16.567  -1.315  0.00  0.00    -0.013 A 
ATOM     37 CL   UNL d   1      23.286 -17.370  -0.597  0.00  0.00    -0.084 Cl
ATOM     38  C   UNL d   1      25.122 -15.803  -2.386  0.00  0.00     0.052 C 
ENDBRANCH  28  31
ENDBRANCH  26  27
ENDBRANCH  25  26
ENDBRANCH   1  25
TORSDOF 10
ENDMDL
