MODEL 1
REMARK VINA RESULT:    -8.979      0.000      0.000
REMARK INTER + INTRA:         -13.478
REMARK INTER:                 -11.067
REMARK INTRA:                  -2.411
REMARK CONF_INDEPENDENT:        2.088
REMARK UNBOUND:                -2.411
REMARK  7 active torsions:
REMARK  status: ('A' for Active; 'I' for Inactive)
REMARK    1  A    between atoms: C_10  and  C_12 
REMARK    2  A    between atoms: C_10  and  O_11 
REMARK       I    between atoms: C_12  and  N_14 
REMARK    3  A    between atoms: N_14  and  C_15 
REMARK    4  A    between atoms: C_15  and  C_16 
REMARK    5  A    between atoms: C_16  and  C_17 
REMARK    6  A    between atoms: C_17  and  N_18 
REMARK    7  A    between atoms: N_24  and  C_25 
ROOT
ATOM      1  O   UNL d   1      25.505 -14.816  -4.938  0.00  0.00    -0.246 OA
ATOM      2  C   UNL d   1      25.728 -14.022  -4.015  0.00  0.00     0.330 C 
ATOM      3  N   UNL d   1      25.250 -12.735  -4.056  0.00  0.00    -0.308 N 
ATOM      4  C   UNL d   1      25.923 -11.674  -3.444  0.00  0.00     0.048 A 
ATOM      5  C   UNL d   1      25.530 -10.351  -3.685  0.00  0.00     0.030 A 
ATOM      6  C   UNL d   1      26.282  -9.291  -3.165  0.00  0.00     0.002 A 
ATOM      7  C   UNL d   1      27.437  -9.552  -2.445  0.00  0.00     0.001 A 
ATOM      8  C   UNL d   1      27.838 -10.868  -2.252  0.00  0.00     0.015 A 
ATOM      9  C   UNL d   1      27.061 -11.956  -2.692  0.00  0.00     0.034 A 
ATOM     10  C   UNL d   1      27.447 -13.412  -2.407  0.00  0.00     0.256 C 
ATOM     11  N   UNL d   1      26.391 -14.354  -2.843  0.00  0.00    -0.254 N 
ATOM     12  H   UNL d   1      24.500 -12.553  -4.710  0.00  0.00     0.170 HD
ENDROOT
BRANCH  10  13
ATOM     13  C   UNL d   1      28.070 -13.489  -0.926  0.00  0.00     0.279 C 
ATOM     14  O   UNL d   1      29.276 -13.447  -0.666  0.00  0.00    -0.268 OA
ATOM     15  N   UNL d   1      27.201 -13.557   0.119  0.00  0.00    -0.356 N 
ATOM     16  H   UNL d   1      26.414 -14.180   0.024  0.00  0.00     0.162 HD
BRANCH  15  17
ATOM     17  C   UNL d   1      27.603 -13.185   1.435  0.00  0.00     0.124 C 
BRANCH  17  18
ATOM     18  C   UNL d   1      28.178 -14.394   2.137  0.00  0.00     0.050 C 
BRANCH  18  19
ATOM     19  C   UNL d   1      29.275 -13.921   3.018  0.00  0.00     0.274 C 
BRANCH  19  20
ATOM     20  N   UNL d   1      29.444 -14.714   4.246  0.00  0.00     0.092 N 
ATOM     21  C   UNL d   1      28.151 -15.200   4.814  0.00  0.00     0.298 C 
ATOM     22  C   UNL d   1      27.150 -14.062   5.106  0.00  0.00     0.198 C 
ATOM     23  O   UNL d   1      27.735 -13.047   5.943  0.00  0.00    -0.388 OA
ATOM     24  C   UNL d   1      28.974 -12.572   5.400  0.00  0.00     0.198 C 
ATOM     25  C   UNL d   1      29.980 -13.740   5.229  0.00  0.00     0.298 C 
ENDBRANCH  19  20
ENDBRANCH  18  19
ENDBRANCH  17  18
ENDBRANCH  15  17
ENDBRANCH  10  13
BRANCH  10  26
ATOM     26  O   UNL d   1      28.566 -13.726  -3.260  0.00  0.00    -0.359 OA
ATOM     27  H   UNL d   1      29.369 -13.555  -2.739  0.00  0.00     0.213 HD
ENDBRANCH  10  26
BRANCH  11  28
ATOM     28  C   UNL d   1      25.723 -15.306  -2.002  0.00  0.00     0.044 C 
ATOM     29  C   UNL d   1      24.326 -15.373  -2.022  0.00  0.00     0.031 C 
ATOM     30  C   UNL d   1      23.648 -16.434  -1.395  0.00  0.00     0.028 C 
ATOM     31  C   UNL d   1      24.340 -17.354  -0.605  0.00  0.00     0.055 C 
ATOM     32 CL   UNL d   1      23.443 -18.630   0.139  0.00  0.00    -0.083 Cl
ATOM     33  C   UNL d   1      25.720 -17.214  -0.454  0.00  0.00     0.058 C 
ATOM     34 CL   UNL d   1      26.626 -18.252   0.610  0.00  0.00    -0.082 Cl
ATOM     35  C   UNL d   1      26.416 -16.242  -1.208  0.00  0.00     0.055 C 
ENDBRANCH  11  28
TORSDOF 7
ENDMDL
MODEL 2
REMARK VINA RESULT:    -7.743      2.100      2.570
REMARK INTER + INTRA:         -11.943
REMARK INTER:                  -9.831
REMARK INTRA:                  -2.113
REMARK CONF_INDEPENDENT:        2.088
REMARK UNBOUND:                -2.113
REMARK  7 active torsions:
REMARK  status: ('A' for Active; 'I' for Inactive)
REMARK    1  A    between atoms: C_10  and  C_12 
REMARK    2  A    between atoms: C_10  and  O_11 
REMARK       I    between atoms: C_12  and  N_14 
REMARK    3  A    between atoms: N_14  and  C_15 
REMARK    4  A    between atoms: C_15  and  C_16 
REMARK    5  A    between atoms: C_16  and  C_17 
REMARK    6  A    between atoms: C_17  and  N_18 
REMARK    7  A    between atoms: N_24  and  C_25 
ROOT
ATOM      1  O   UNL d   1      25.603 -14.895  -4.949  0.00  0.00    -0.246 OA
ATOM      2  C   UNL d   1      25.781 -14.070  -4.044  0.00  0.00     0.330 C 
ATOM      3  N   UNL d   1      25.283 -12.793  -4.141  0.00  0.00    -0.308 N 
ATOM      4  C   UNL d   1      25.917 -11.703  -3.540  0.00  0.00     0.048 A 
ATOM      5  C   UNL d   1      25.510 -10.394  -3.834  0.00  0.00     0.030 A 
ATOM      6  C   UNL d   1      26.226  -9.306  -3.322  0.00  0.00     0.002 A 
ATOM      7  C   UNL d   1      27.360  -9.524  -2.557  0.00  0.00     0.001 A 
ATOM      8  C   UNL d   1      27.776 -10.827  -2.310  0.00  0.00     0.015 A 
ATOM      9  C   UNL d   1      27.033 -11.941  -2.742  0.00  0.00     0.034 A 
ATOM     10  C   UNL d   1      27.434 -13.381  -2.400  0.00  0.00     0.256 C 
ATOM     11  N   UNL d   1      26.409 -14.354  -2.842  0.00  0.00    -0.254 N 
ATOM     12  H   UNL d   1      24.552 -12.644  -4.824  0.00  0.00     0.170 HD
ENDROOT
BRANCH  10  13
ATOM     13  C   UNL d   1      28.008 -13.402  -0.898  0.00  0.00     0.279 C 
ATOM     14  O   UNL d   1      27.400 -12.988   0.095  0.00  0.00    -0.268 OA
ATOM     15  N   UNL d   1      29.233 -13.961  -0.699  0.00  0.00    -0.356 N 
ATOM     16  H   UNL d   1      29.957 -13.729  -1.361  0.00  0.00     0.162 HD
BRANCH  15  17
ATOM     17  C   UNL d   1      29.628 -14.429   0.587  0.00  0.00     0.124 C 
BRANCH  17  18
ATOM     18  C   UNL d   1      30.215 -15.816   0.450  0.00  0.00     0.050 C 
BRANCH  18  19
ATOM     19  C   UNL d   1      31.646 -15.739   0.836  0.00  0.00     0.274 C 
BRANCH  19  20
ATOM     20  N   UNL d   1      31.899 -16.005   2.261  0.00  0.00     0.092 N 
ATOM     21  C   UNL d   1      31.535 -14.859   3.146  0.00  0.00     0.298 C 
ATOM     22  C   UNL d   1      32.249 -13.545   2.765  0.00  0.00     0.198 C 
ATOM     23  O   UNL d   1      33.677 -13.719   2.703  0.00  0.00    -0.388 OA
ATOM     24  C   UNL d   1      34.033 -14.815   1.849  0.00  0.00     0.198 C 
ATOM     25  C   UNL d   1      33.376 -16.130   2.343  0.00  0.00     0.298 C 
ENDBRANCH  19  20
ENDBRANCH  18  19
ENDBRANCH  17  18
ENDBRANCH  15  17
ENDBRANCH  10  13
BRANCH  10  26
ATOM     26  O   UNL d   1      28.587 -13.700  -3.206  0.00  0.00    -0.359 OA
ATOM     27  H   UNL d   1      29.211 -14.167  -2.625  0.00  0.00     0.213 HD
ENDBRANCH  10  26
BRANCH  11  28
ATOM     28  C   UNL d   1      25.730 -15.292  -1.994  0.00  0.00     0.044 C 
ATOM     29  C   UNL d   1      24.332 -15.345  -2.017  0.00  0.00     0.031 C 
ATOM     30  C   UNL d   1      23.642 -16.394  -1.383  0.00  0.00     0.028 C 
ATOM     31  C   UNL d   1      24.323 -17.314  -0.583  0.00  0.00     0.055 C 
ATOM     32 CL   UNL d   1      23.412 -18.575   0.170  0.00  0.00    -0.083 Cl
ATOM     33  C   UNL d   1      25.705 -17.187  -0.430  0.00  0.00     0.058 C 
ATOM     34 CL   UNL d   1      26.597 -18.225   0.645  0.00  0.00    -0.082 Cl
ATOM     35  C   UNL d   1      26.412 -16.228  -1.190  0.00  0.00     0.055 C 
ENDBRANCH  11  28
TORSDOF 7
ENDMDL
MODEL 3
REMARK VINA RESULT:    -7.719      3.979      6.151
REMARK INTER + INTRA:         -12.197
REMARK INTER:                  -9.807
REMARK INTRA:                  -2.390
REMARK CONF_INDEPENDENT:        2.088
REMARK UNBOUND:                -2.390
REMARK  7 active torsions:
REMARK  status: ('A' for Active; 'I' for Inactive)
REMARK    1  A    between atoms: C_10  and  C_12 
REMARK    2  A    between atoms: C_10  and  O_11 
REMARK       I    between atoms: C_12  and  N_14 
REMARK    3  A    between atoms: N_14  and  C_15 
REMARK    4  A    between atoms: C_15  and  C_16 
REMARK    5  A    between atoms: C_16  and  C_17 
REMARK    6  A    between atoms: C_17  and  N_18 
REMARK    7  A    between atoms: N_24  and  C_25 
ROOT
ATOM      1  O   UNL d   1      23.778 -14.066  -4.151  0.00  0.00    -0.246 OA
ATOM      2  C   UNL d   1      24.988 -13.812  -4.097  0.00  0.00     0.330 C 
ATOM      3  N   UNL d   1      25.442 -12.516  -4.112  0.00  0.00    -0.308 N 
ATOM      4  C   UNL d   1      26.680 -12.170  -4.659  0.00  0.00     0.048 A 
ATOM      5  C   UNL d   1      27.019 -10.824  -4.854  0.00  0.00     0.030 A 
ATOM      6  C   UNL d   1      28.207 -10.489  -5.512  0.00  0.00     0.002 A 
ATOM      7  C   UNL d   1      29.029 -11.489  -6.005  0.00  0.00     0.001 A 
ATOM      8  C   UNL d   1      28.658 -12.818  -5.843  0.00  0.00     0.015 A 
ATOM      9  C   UNL d   1      27.512 -13.189  -5.116  0.00  0.00     0.034 A 
ATOM     10  C   UNL d   1      27.140 -14.653  -4.854  0.00  0.00     0.256 C 
ATOM     11  N   UNL d   1      25.980 -14.768  -3.942  0.00  0.00    -0.254 N 
ATOM     12  H   UNL d   1      24.764 -11.798  -3.889  0.00  0.00     0.170 HD
ENDROOT
BRANCH  10  13
ATOM     13  C   UNL d   1      28.495 -15.478  -4.585  0.00  0.00     0.279 C 
ATOM     14  O   UNL d   1      28.972 -16.319  -5.353  0.00  0.00    -0.268 OA
ATOM     15  N   UNL d   1      29.191 -15.192  -3.451  0.00  0.00    -0.356 N 
ATOM     16  H   UNL d   1      28.660 -15.078  -2.602  0.00  0.00     0.162 HD
BRANCH  15  17
ATOM     17  C   UNL d   1      30.574 -15.513  -3.337  0.00  0.00     0.124 C 
BRANCH  17  18
ATOM     18  C   UNL d   1      30.719 -16.814  -2.580  0.00  0.00     0.050 C 
BRANCH  18  19
ATOM     19  C   UNL d   1      30.572 -17.920  -3.558  0.00  0.00     0.274 C 
BRANCH  19  20
ATOM     20  N   UNL d   1      31.776 -18.175  -4.365  0.00  0.00     0.092 N 
ATOM     21  C   UNL d   1      31.570 -17.921  -5.822  0.00  0.00     0.298 C 
ATOM     22  C   UNL d   1      30.405 -18.735  -6.423  0.00  0.00     0.198 C 
ATOM     23  O   UNL d   1      30.552 -20.142  -6.157  0.00  0.00    -0.388 OA
ATOM     24  C   UNL d   1      30.743 -20.393  -4.758  0.00  0.00     0.198 C 
ATOM     25  C   UNL d   1      31.992 -19.637  -4.233  0.00  0.00     0.298 C 
ENDBRANCH  19  20
ENDBRANCH  18  19
ENDBRANCH  17  18
ENDBRANCH  15  17
ENDBRANCH  10  13
BRANCH  10  26
ATOM     26  O   UNL d   1      26.658 -15.195  -6.101  0.00  0.00    -0.359 OA
ATOM     27  H   UNL d   1      27.390 -15.122  -6.736  0.00  0.00     0.213 HD
ENDBRANCH  10  26
BRANCH  11  28
ATOM     28  C   UNL d   1      25.967 -15.477  -2.694  0.00  0.00     0.044 C 
ATOM     29  C   UNL d   1      25.144 -16.601  -2.555  0.00  0.00     0.031 C 
ATOM     30  C   UNL d   1      25.270 -17.451  -1.442  0.00  0.00     0.028 C 
ATOM     31  C   UNL d   1      26.104 -17.110  -0.376  0.00  0.00     0.055 C 
ATOM     32 CL   UNL d   1      26.209 -18.200   0.962  0.00  0.00    -0.083 Cl
ATOM     33  C   UNL d   1      26.823 -15.914  -0.432  0.00  0.00     0.058 C 
ATOM     34 CL   UNL d   1      27.787 -15.371   0.911  0.00  0.00    -0.082 Cl
ATOM     35  C   UNL d   1      26.811 -15.142  -1.616  0.00  0.00     0.055 C 
ENDBRANCH  11  28
TORSDOF 7
ENDMDL
MODEL 4
REMARK VINA RESULT:    -7.439      3.755      4.616
REMARK INTER + INTRA:         -12.472
REMARK INTER:                  -9.527
REMARK INTRA:                  -2.945
REMARK CONF_INDEPENDENT:        2.088
REMARK UNBOUND:                -2.945
REMARK  7 active torsions:
REMARK  status: ('A' for Active; 'I' for Inactive)
REMARK    1  A    between atoms: C_10  and  C_12 
REMARK    2  A    between atoms: C_10  and  O_11 
REMARK       I    between atoms: C_12  and  N_14 
REMARK    3  A    between atoms: N_14  and  C_15 
REMARK    4  A    between atoms: C_15  and  C_16 
REMARK    5  A    between atoms: C_16  and  C_17 
REMARK    6  A    between atoms: C_17  and  N_18 
REMARK    7  A    between atoms: N_24  and  C_25 
ROOT
ATOM      1  O   UNL d   1      23.836 -14.075  -4.214  0.00  0.00    -0.246 OA
ATOM      2  C   UNL d   1      25.041 -13.799  -4.153  0.00  0.00     0.330 C 
ATOM      3  N   UNL d   1      25.470 -12.494  -4.168  0.00  0.00    -0.308 N 
ATOM      4  C   UNL d   1      26.705 -12.126  -4.708  0.00  0.00     0.048 A 
ATOM      5  C   UNL d   1      27.021 -10.775  -4.903  0.00  0.00     0.030 A 
ATOM      6  C   UNL d   1      28.206 -10.419  -5.555  0.00  0.00     0.002 A 
ATOM      7  C   UNL d   1      29.050 -11.405  -6.041  0.00  0.00     0.001 A 
ATOM      8  C   UNL d   1      28.703 -12.740  -5.879  0.00  0.00     0.015 A 
ATOM      9  C   UNL d   1      27.559 -13.131  -5.158  0.00  0.00     0.034 A 
ATOM     10  C   UNL d   1      27.212 -14.601  -4.896  0.00  0.00     0.256 C 
ATOM     11  N   UNL d   1      26.049 -14.736  -3.990  0.00  0.00    -0.254 N 
ATOM     12  H   UNL d   1      24.779 -11.789  -3.951  0.00  0.00     0.170 HD
ENDROOT
BRANCH  10  13
ATOM     13  C   UNL d   1      28.581 -15.400  -4.616  0.00  0.00     0.279 C 
ATOM     14  O   UNL d   1      28.977 -16.369  -5.271  0.00  0.00    -0.268 OA
ATOM     15  N   UNL d   1      29.383 -14.944  -3.617  0.00  0.00    -0.356 N 
ATOM     16  H   UNL d   1      28.935 -14.677  -2.753  0.00  0.00     0.162 HD
BRANCH  15  17
ATOM     17  C   UNL d   1      30.768 -15.273  -3.577  0.00  0.00     0.124 C 
BRANCH  17  18
ATOM     18  C   UNL d   1      31.267 -15.143  -2.155  0.00  0.00     0.050 C 
BRANCH  18  19
ATOM     19  C   UNL d   1      31.606 -16.505  -1.673  0.00  0.00     0.274 C 
BRANCH  19  20
ATOM     20  N   UNL d   1      30.867 -16.917  -0.469  0.00  0.00     0.092 N 
ATOM     21  C   UNL d   1      31.759 -17.347   0.649  0.00  0.00     0.298 C 
ATOM     22  C   UNL d   1      32.720 -18.489   0.256  0.00  0.00     0.198 C 
ATOM     23  O   UNL d   1      32.007 -19.610  -0.299  0.00  0.00    -0.388 OA
ATOM     24  C   UNL d   1      31.152 -19.205  -1.376  0.00  0.00     0.198 C 
ATOM     25  C   UNL d   1      30.136 -18.136  -0.897  0.00  0.00     0.298 C 
ENDBRANCH  19  20
ENDBRANCH  18  19
ENDBRANCH  17  18
ENDBRANCH  15  17
ENDBRANCH  10  13
BRANCH  10  26
ATOM     26  O   UNL d   1      26.748 -15.154  -6.144  0.00  0.00    -0.359 OA
ATOM     27  H   UNL d   1      27.534 -15.492  -6.607  0.00  0.00     0.213 HD
ENDBRANCH  10  26
BRANCH  11  28
ATOM     28  C   UNL d   1      26.042 -15.443  -2.741  0.00  0.00     0.044 C 
ATOM     29  C   UNL d   1      25.155 -16.511  -2.566  0.00  0.00     0.031 C 
ATOM     30  C   UNL d   1      25.272 -17.368  -1.458  0.00  0.00     0.028 C 
ATOM     31  C   UNL d   1      26.168 -17.081  -0.426  0.00  0.00     0.055 C 
ATOM     32 CL   UNL d   1      26.257 -18.176   0.908  0.00  0.00    -0.083 Cl
ATOM     33  C   UNL d   1      26.959 -15.934  -0.515  0.00  0.00     0.058 C 
ATOM     34 CL   UNL d   1      28.009 -15.453   0.787  0.00  0.00    -0.082 Cl
ATOM     35  C   UNL d   1      26.949 -15.162  -1.699  0.00  0.00     0.055 C 
ENDBRANCH  11  28
TORSDOF 7
ENDMDL
MODEL 5
REMARK VINA RESULT:    -7.426      2.175      2.819
REMARK INTER + INTRA:         -11.900
REMARK INTER:                  -9.514
REMARK INTRA:                  -2.386
REMARK CONF_INDEPENDENT:        2.088
REMARK UNBOUND:                -2.386
REMARK  7 active torsions:
REMARK  status: ('A' for Active; 'I' for Inactive)
REMARK    1  A    between atoms: C_10  and  C_12 
REMARK    2  A    between atoms: C_10  and  O_11 
REMARK       I    between atoms: C_12  and  N_14 
REMARK    3  A    between atoms: N_14  and  C_15 
REMARK    4  A    between atoms: C_15  and  C_16 
REMARK    5  A    between atoms: C_16  and  C_17 
REMARK    6  A    between atoms: C_17  and  N_18 
REMARK    7  A    between atoms: N_24  and  C_25 
ROOT
ATOM      1  O   UNL d   1      25.873 -15.537  -5.053  0.00  0.00    -0.246 OA
ATOM      2  C   UNL d   1      25.933 -14.599  -4.247  0.00  0.00     0.330 C 
ATOM      3  N   UNL d   1      25.412 -13.366  -4.554  0.00  0.00    -0.308 N 
ATOM      4  C   UNL d   1      25.949 -12.185  -4.036  0.00  0.00     0.048 A 
ATOM      5  C   UNL d   1      25.538 -10.940  -4.533  0.00  0.00     0.030 A 
ATOM      6  C   UNL d   1      26.166  -9.769  -4.096  0.00  0.00     0.002 A 
ATOM      7  C   UNL d   1      27.221  -9.844  -3.200  0.00  0.00     0.001 A 
ATOM      8  C   UNL d   1      27.646 -11.088  -2.750  0.00  0.00     0.015 A 
ATOM      9  C   UNL d   1      26.983 -12.276  -3.108  0.00  0.00     0.034 A 
ATOM     10  C   UNL d   1      27.387 -13.646  -2.548  0.00  0.00     0.256 C 
ATOM     11  N   UNL d   1      26.441 -14.707  -2.962  0.00  0.00    -0.254 N 
ATOM     12  H   UNL d   1      24.751 -13.333  -5.320  0.00  0.00     0.170 HD
ENDROOT
BRANCH  10  13
ATOM     13  C   UNL d   1      27.803 -13.457  -1.006  0.00  0.00     0.279 C 
ATOM     14  O   UNL d   1      28.906 -13.060  -0.617  0.00  0.00    -0.268 OA
ATOM     15  N   UNL d   1      26.855 -13.708  -0.063  0.00  0.00    -0.356 N 
ATOM     16  H   UNL d   1      26.288 -14.533  -0.188  0.00  0.00     0.162 HD
BRANCH  15  17
ATOM     17  C   UNL d   1      26.959 -13.162   1.249  0.00  0.00     0.124 C 
BRANCH  17  18
ATOM     18  C   UNL d   1      26.743 -11.666   1.180  0.00  0.00     0.050 C 
BRANCH  18  19
ATOM     19  C   UNL d   1      27.719 -11.030   2.099  0.00  0.00     0.274 C 
BRANCH  19  20
ATOM     20  N   UNL d   1      28.191  -9.709   1.654  0.00  0.00     0.092 N 
ATOM     21  C   UNL d   1      28.609  -8.824   2.782  0.00  0.00     0.298 C 
ATOM     22  C   UNL d   1      27.500  -8.613   3.833  0.00  0.00     0.198 C 
ATOM     23  O   UNL d   1      26.282  -8.140   3.228  0.00  0.00    -0.388 OA
ATOM     24  C   UNL d   1      25.871  -8.989   2.147  0.00  0.00     0.198 C 
ATOM     25  C   UNL d   1      26.982  -9.077   1.069  0.00  0.00     0.298 C 
ENDBRANCH  19  20
ENDBRANCH  18  19
ENDBRANCH  17  18
ENDBRANCH  15  17
ENDBRANCH  10  13
BRANCH  10  26
ATOM     26  O   UNL d   1      28.626 -14.014  -3.189  0.00  0.00    -0.359 OA
ATOM     27  H   UNL d   1      29.287 -14.104  -2.482  0.00  0.00     0.213 HD
ENDBRANCH  10  26
BRANCH  11  28
ATOM     28  C   UNL d   1      25.705 -15.561  -2.073  0.00  0.00     0.044 C 
ATOM     29  C   UNL d   1      24.310 -15.457  -2.026  0.00  0.00     0.031 C 
ATOM     30  C   UNL d   1      23.540 -16.419  -1.349  0.00  0.00     0.028 C 
ATOM     31  C   UNL d   1      24.153 -17.407  -0.576  0.00  0.00     0.055 C 
ATOM     32 CL   UNL d   1      23.146 -18.555   0.233  0.00  0.00    -0.083 Cl
ATOM     33  C   UNL d   1      25.547 -17.434  -0.492  0.00  0.00     0.058 C 
ATOM     34 CL   UNL d   1      26.370 -18.562   0.547  0.00  0.00    -0.082 Cl
ATOM     35  C   UNL d   1      26.317 -16.564  -1.295  0.00  0.00     0.055 C 
ENDBRANCH  11  28
TORSDOF 7
ENDMDL
MODEL 6
REMARK VINA RESULT:    -7.316      3.433      4.949
REMARK INTER + INTRA:         -12.538
REMARK INTER:                  -9.404
REMARK INTRA:                  -3.134
REMARK CONF_INDEPENDENT:        2.088
REMARK UNBOUND:                -3.134
REMARK  7 active torsions:
REMARK  status: ('A' for Active; 'I' for Inactive)
REMARK    1  A    between atoms: C_10  and  C_12 
REMARK    2  A    between atoms: C_10  and  O_11 
REMARK       I    between atoms: C_12  and  N_14 
REMARK    3  A    between atoms: N_14  and  C_15 
REMARK    4  A    between atoms: C_15  and  C_16 
REMARK    5  A    between atoms: C_16  and  C_17 
REMARK    6  A    between atoms: C_17  and  N_18 
REMARK    7  A    between atoms: N_24  and  C_25 
ROOT
ATOM      1  O   UNL d   1      24.270 -14.248  -3.685  0.00  0.00    -0.246 OA
ATOM      2  C   UNL d   1      25.373 -13.811  -4.037  0.00  0.00     0.330 C 
ATOM      3  N   UNL d   1      25.496 -12.561  -4.591  0.00  0.00    -0.308 N 
ATOM      4  C   UNL d   1      26.489 -12.259  -5.526  0.00  0.00     0.048 A 
ATOM      5  C   UNL d   1      26.457 -11.047  -6.231  0.00  0.00     0.030 A 
ATOM      6  C   UNL d   1      27.384 -10.804  -7.249  0.00  0.00     0.002 A 
ATOM      7  C   UNL d   1      28.310 -11.778  -7.587  0.00  0.00     0.001 A 
ATOM      8  C   UNL d   1      28.302 -12.991  -6.910  0.00  0.00     0.015 A 
ATOM      9  C   UNL d   1      27.436 -13.234  -5.828  0.00  0.00     0.034 A 
ATOM     10  C   UNL d   1      27.478 -14.535  -5.016  0.00  0.00     0.256 C 
ATOM     11  N   UNL d   1      26.574 -14.478  -3.845  0.00  0.00    -0.254 N 
ATOM     12  H   UNL d   1      24.723 -11.924  -4.445  0.00  0.00     0.170 HD
ENDROOT
BRANCH  10  13
ATOM     13  C   UNL d   1      29.015 -14.982  -4.858  0.00  0.00     0.279 C 
ATOM     14  O   UNL d   1      29.913 -14.269  -4.399  0.00  0.00    -0.268 OA
ATOM     15  N   UNL d   1      29.339 -16.255  -5.211  0.00  0.00    -0.356 N 
ATOM     16  H   UNL d   1      28.944 -16.610  -6.068  0.00  0.00     0.162 HD
BRANCH  15  17
ATOM     17  C   UNL d   1      30.517 -16.880  -4.710  0.00  0.00     0.124 C 
BRANCH  17  18
ATOM     18  C   UNL d   1      30.177 -17.634  -3.444  0.00  0.00     0.050 C 
BRANCH  18  19
ATOM     19  C   UNL d   1      30.412 -16.719  -2.300  0.00  0.00     0.274 C 
BRANCH  19  20
ATOM     20  N   UNL d   1      29.882 -17.211  -1.018  0.00  0.00     0.092 N 
ATOM     21  C   UNL d   1      30.392 -16.446   0.159  0.00  0.00     0.298 C 
ATOM     22  C   UNL d   1      31.932 -16.423   0.249  0.00  0.00     0.198 C 
ATOM     23  O   UNL d   1      32.483 -17.753   0.217  0.00  0.00    -0.388 OA
ATOM     24  C   UNL d   1      32.002 -18.490  -0.915  0.00  0.00     0.198 C 
ATOM     25  C   UNL d   1      30.453 -18.575  -0.895  0.00  0.00     0.298 C 
ENDBRANCH  19  20
ENDBRANCH  18  19
ENDBRANCH  17  18
ENDBRANCH  15  17
ENDBRANCH  10  13
BRANCH  10  26
ATOM     26  O   UNL d   1      26.909 -15.568  -5.845  0.00  0.00    -0.359 OA
ATOM     27  H   UNL d   1      26.018 -15.743  -5.498  0.00  0.00     0.213 HD
ENDBRANCH  10  26
BRANCH  11  28
ATOM     28  C   UNL d   1      26.967 -14.664  -2.477  0.00  0.00     0.044 C 
ATOM     29  C   UNL d   1      27.624 -13.624  -1.809  0.00  0.00     0.031 C 
ATOM     30  C   UNL d   1      27.820 -13.675  -0.417  0.00  0.00     0.028 C 
ATOM     31  C   UNL d   1      27.510 -14.830   0.304  0.00  0.00     0.055 C 
ATOM     32 CL   UNL d   1      27.780 -14.825   2.011  0.00  0.00    -0.083 Cl
ATOM     33  C   UNL d   1      26.990 -15.934  -0.374  0.00  0.00     0.058 C 
ATOM     34 CL   UNL d   1      26.693 -17.443   0.441  0.00  0.00    -0.082 Cl
ATOM     35  C   UNL d   1      26.651 -15.824  -1.742  0.00  0.00     0.055 C 
ENDBRANCH  11  28
TORSDOF 7
ENDMDL
MODEL 7
REMARK VINA RESULT:    -7.293      2.435      3.654
REMARK INTER + INTRA:         -11.934
REMARK INTER:                  -9.381
REMARK INTRA:                  -2.553
REMARK CONF_INDEPENDENT:        2.088
REMARK UNBOUND:                -2.553
REMARK  7 active torsions:
REMARK  status: ('A' for Active; 'I' for Inactive)
REMARK    1  A    between atoms: C_10  and  C_12 
REMARK    2  A    between atoms: C_10  and  O_11 
REMARK       I    between atoms: C_12  and  N_14 
REMARK    3  A    between atoms: N_14  and  C_15 
REMARK    4  A    between atoms: C_15  and  C_16 
REMARK    5  A    between atoms: C_16  and  C_17 
REMARK    6  A    between atoms: C_17  and  N_18 
REMARK    7  A    between atoms: N_24  and  C_25 
ROOT
ATOM      1  O   UNL d   1      23.958 -14.075  -4.266  0.00  0.00    -0.246 OA
ATOM      2  C   UNL d   1      25.154 -13.837  -4.050  0.00  0.00     0.330 C 
ATOM      3  N   UNL d   1      25.585 -12.561  -3.783  0.00  0.00    -0.308 N 
ATOM      4  C   UNL d   1      26.864 -12.121  -4.135  0.00  0.00     0.048 A 
ATOM      5  C   UNL d   1      27.198 -10.763  -4.047  0.00  0.00     0.030 A 
ATOM      6  C   UNL d   1      28.438 -10.314  -4.514  0.00  0.00     0.002 A 
ATOM      7  C   UNL d   1      29.320 -11.208  -5.099  0.00  0.00     0.001 A 
ATOM      8  C   UNL d   1      28.957 -12.544  -5.220  0.00  0.00     0.015 A 
ATOM      9  C   UNL d   1      27.753 -13.040  -4.688  0.00  0.00     0.034 A 
ATOM     10  C   UNL d   1      27.382 -14.527  -4.736  0.00  0.00     0.256 C 
ATOM     11  N   UNL d   1      26.142 -14.807  -3.977  0.00  0.00    -0.254 N 
ATOM     12  H   UNL d   1      24.878 -11.895  -3.500  0.00  0.00     0.170 HD
ENDROOT
BRANCH  10  13
ATOM     13  C   UNL d   1      28.718 -15.389  -4.492  0.00  0.00     0.279 C 
ATOM     14  O   UNL d   1      29.098 -16.319  -5.210  0.00  0.00    -0.268 OA
ATOM     15  N   UNL d   1      29.513 -15.035  -3.446  0.00  0.00    -0.356 N 
ATOM     16  H   UNL d   1      29.056 -14.819  -2.573  0.00  0.00     0.162 HD
BRANCH  15  17
ATOM     17  C   UNL d   1      30.886 -15.411  -3.405  0.00  0.00     0.124 C 
BRANCH  17  18
ATOM     18  C   UNL d   1      31.187 -16.042  -2.064  0.00  0.00     0.050 C 
BRANCH  18  19
ATOM     19  C   UNL d   1      30.145 -15.587  -1.110  0.00  0.00     0.274 C 
BRANCH  19  20
ATOM     20  N   UNL d   1      30.613 -14.584  -0.141  0.00  0.00     0.092 N 
ATOM     21  C   UNL d   1      30.102 -14.821   1.242  0.00  0.00     0.298 C 
ATOM     22  C   UNL d   1      28.562 -14.887   1.319  0.00  0.00     0.198 C 
ATOM     23  O   UNL d   1      27.955 -13.719   0.735  0.00  0.00    -0.388 OA
ATOM     24  C   UNL d   1      28.436 -13.489  -0.595  0.00  0.00     0.198 C 
ATOM     25  C   UNL d   1      29.978 -13.322  -0.597  0.00  0.00     0.298 C 
ENDBRANCH  19  20
ENDBRANCH  18  19
ENDBRANCH  17  18
ENDBRANCH  15  17
ENDBRANCH  10  13
BRANCH  10  26
ATOM     26  O   UNL d   1      27.030 -14.829  -6.101  0.00  0.00    -0.359 OA
ATOM     27  H   UNL d   1      27.843 -15.141  -6.535  0.00  0.00     0.213 HD
ENDBRANCH  10  26
BRANCH  11  28
ATOM     28  C   UNL d   1      26.022 -15.733  -2.887  0.00  0.00     0.044 C 
ATOM     29  C   UNL d   1      27.178 -16.157  -2.222  0.00  0.00     0.031 C 
ATOM     30  C   UNL d   1      27.090 -16.875  -1.016  0.00  0.00     0.028 C 
ATOM     31  C   UNL d   1      25.855 -17.319  -0.539  0.00  0.00     0.055 C 
ATOM     32 CL   UNL d   1      25.821 -18.200   0.948  0.00  0.00    -0.083 Cl
ATOM     33  C   UNL d   1      24.702 -17.030  -1.271  0.00  0.00     0.058 C 
ATOM     34 CL   UNL d   1      23.147 -17.653  -0.798  0.00  0.00    -0.082 Cl
ATOM     35  C   UNL d   1      24.778 -16.179  -2.397  0.00  0.00     0.055 C 
ENDBRANCH  11  28
TORSDOF 7
ENDMDL
MODEL 8
REMARK VINA RESULT:    -7.224      2.251      3.571
REMARK INTER + INTRA:         -13.128
REMARK INTER:                  -9.312
REMARK INTRA:                  -3.816
REMARK CONF_INDEPENDENT:        2.088
REMARK UNBOUND:                -3.816
REMARK  7 active torsions:
REMARK  status: ('A' for Active; 'I' for Inactive)
REMARK    1  A    between atoms: C_10  and  C_12 
REMARK    2  A    between atoms: C_10  and  O_11 
REMARK       I    between atoms: C_12  and  N_14 
REMARK    3  A    between atoms: N_14  and  C_15 
REMARK    4  A    between atoms: C_15  and  C_16 
REMARK    5  A    between atoms: C_16  and  C_17 
REMARK    6  A    between atoms: C_17  and  N_18 
REMARK    7  A    between atoms: N_24  and  C_25 
ROOT
ATOM      1  O   UNL d   1      26.263 -15.581  -5.000  0.00  0.00    -0.246 OA
ATOM      2  C   UNL d   1      26.177 -14.609  -4.238  0.00  0.00     0.330 C 
ATOM      3  N   UNL d   1      25.593 -13.436  -4.649  0.00  0.00    -0.308 N 
ATOM      4  C   UNL d   1      25.988 -12.194  -4.144  0.00  0.00     0.048 A 
ATOM      5  C   UNL d   1      25.530 -11.009  -4.735  0.00  0.00     0.030 A 
ATOM      6  C   UNL d   1      26.024  -9.773  -4.302  0.00  0.00     0.002 A 
ATOM      7  C   UNL d   1      26.995  -9.726  -3.314  0.00  0.00     0.001 A 
ATOM      8  C   UNL d   1      27.472 -10.911  -2.769  0.00  0.00     0.015 A 
ATOM      9  C   UNL d   1      26.938 -12.163  -3.126  0.00  0.00     0.034 A 
ATOM     10  C   UNL d   1      27.393 -13.471  -2.467  0.00  0.00     0.256 C 
ATOM     11  N   UNL d   1      26.573 -14.622  -2.910  0.00  0.00    -0.254 N 
ATOM     12  H   UNL d   1      25.005 -13.487  -5.470  0.00  0.00     0.170 HD
ENDROOT
BRANCH  10  13
ATOM     13  C   UNL d   1      27.651 -13.186  -0.905  0.00  0.00     0.279 C 
ATOM     14  O   UNL d   1      26.808 -12.735  -0.122  0.00  0.00    -0.268 OA
ATOM     15  N   UNL d   1      28.871 -13.511  -0.398  0.00  0.00    -0.356 N 
ATOM     16  H   UNL d   1      29.678 -13.266  -0.951  0.00  0.00     0.162 HD
BRANCH  15  17
ATOM     17  C   UNL d   1      29.056 -13.722   0.998  0.00  0.00     0.124 C 
BRANCH  17  18
ATOM     18  C   UNL d   1      30.019 -14.870   1.202  0.00  0.00     0.050 C 
BRANCH  18  19
ATOM     19  C   UNL d   1      29.568 -15.992   0.341  0.00  0.00     0.274 C 
BRANCH  19  20
ATOM     20  N   UNL d   1      30.661 -16.836  -0.167  0.00  0.00     0.092 N 
ATOM     21  C   UNL d   1      31.696 -16.065  -0.920  0.00  0.00     0.298 C 
ATOM     22  C   UNL d   1      31.116 -15.261  -2.102  0.00  0.00     0.198 C 
ATOM     23  O   UNL d   1      30.350 -16.100  -2.986  0.00  0.00    -0.388 OA
ATOM     24  C   UNL d   1      29.350 -16.838  -2.270  0.00  0.00     0.198 C 
ATOM     25  C   UNL d   1      30.001 -17.712  -1.167  0.00  0.00     0.298 C 
ENDBRANCH  19  20
ENDBRANCH  18  19
ENDBRANCH  17  18
ENDBRANCH  15  17
ENDBRANCH  10  13
BRANCH  10  26
ATOM     26  O   UNL d   1      28.709 -13.764  -2.978  0.00  0.00    -0.359 OA
ATOM     27  H   UNL d   1      28.716 -14.711  -3.200  0.00  0.00     0.213 HD
ENDBRANCH  10  26
BRANCH  11  28
ATOM     28  C   UNL d   1      25.827 -15.494  -2.049  0.00  0.00     0.044 C 
ATOM     29  C   UNL d   1      24.428 -15.432  -2.059  0.00  0.00     0.031 C 
ATOM     30  C   UNL d   1      23.660 -16.415  -1.411  0.00  0.00     0.028 C 
ATOM     31  C   UNL d   1      24.270 -17.382  -0.609  0.00  0.00     0.055 C 
ATOM     32 CL   UNL d   1      23.265 -18.558   0.162  0.00  0.00    -0.083 Cl
ATOM     33  C   UNL d   1      25.659 -17.368  -0.468  0.00  0.00     0.058 C 
ATOM     34 CL   UNL d   1      26.472 -18.468   0.608  0.00  0.00    -0.082 Cl
ATOM     35  C   UNL d   1      26.436 -16.477  -1.242  0.00  0.00     0.055 C 
ENDBRANCH  11  28
TORSDOF 7
ENDMDL
MODEL 9
REMARK VINA RESULT:    -7.157      3.971      6.795
REMARK INTER + INTRA:         -12.090
REMARK INTER:                  -9.245
REMARK INTRA:                  -2.845
REMARK CONF_INDEPENDENT:        2.088
REMARK UNBOUND:                -2.845
REMARK  7 active torsions:
REMARK  status: ('A' for Active; 'I' for Inactive)
REMARK    1  A    between atoms: C_10  and  C_12 
REMARK    2  A    between atoms: C_10  and  O_11 
REMARK       I    between atoms: C_12  and  N_14 
REMARK    3  A    between atoms: N_14  and  C_15 
REMARK    4  A    between atoms: C_15  and  C_16 
REMARK    5  A    between atoms: C_16  and  C_17 
REMARK    6  A    between atoms: C_17  and  N_18 
REMARK    7  A    between atoms: N_24  and  C_25 
ROOT
ATOM      1  O   UNL d   1      23.757 -14.076  -4.085  0.00  0.00    -0.246 OA
ATOM      2  C   UNL d   1      24.963 -13.800  -4.047  0.00  0.00     0.330 C 
ATOM      3  N   UNL d   1      25.392 -12.495  -4.067  0.00  0.00    -0.308 N 
ATOM      4  C   UNL d   1      26.616 -12.126  -4.630  0.00  0.00     0.048 A 
ATOM      5  C   UNL d   1      26.928 -10.774  -4.828  0.00  0.00     0.030 A 
ATOM      6  C   UNL d   1      28.101 -10.416  -5.501  0.00  0.00     0.002 A 
ATOM      7  C   UNL d   1      28.935 -11.401  -6.006  0.00  0.00     0.001 A 
ATOM      8  C   UNL d   1      28.591 -12.736  -5.840  0.00  0.00     0.015 A 
ATOM      9  C   UNL d   1      27.462 -13.129  -5.098  0.00  0.00     0.034 A 
ATOM     10  C   UNL d   1      27.121 -14.600  -4.833  0.00  0.00     0.256 C 
ATOM     11  N   UNL d   1      25.974 -14.737  -3.905  0.00  0.00    -0.254 N 
ATOM     12  H   UNL d   1      24.705 -11.790  -3.835  0.00  0.00     0.170 HD
ENDROOT
BRANCH  10  13
ATOM     13  C   UNL d   1      28.494 -15.399  -4.581  0.00  0.00     0.279 C 
ATOM     14  O   UNL d   1      28.870 -16.377  -5.235  0.00  0.00    -0.268 OA
ATOM     15  N   UNL d   1      29.325 -14.933  -3.610  0.00  0.00    -0.356 N 
ATOM     16  H   UNL d   1      28.902 -14.654  -2.738  0.00  0.00     0.162 HD
BRANCH  15  17
ATOM     17  C   UNL d   1      30.710 -15.265  -3.604  0.00  0.00     0.124 C 
BRANCH  17  18
ATOM     18  C   UNL d   1      31.449 -14.317  -4.522  0.00  0.00     0.050 C 
BRANCH  18  19
ATOM     19  C   UNL d   1      31.933 -15.104  -5.684  0.00  0.00     0.274 C 
BRANCH  19  20
ATOM     20  N   UNL d   1      30.948 -15.240  -6.769  0.00  0.00     0.092 N 
ATOM     21  C   UNL d   1      30.798 -16.645  -7.252  0.00  0.00     0.298 C 
ATOM     22  C   UNL d   1      32.127 -17.271  -7.723  0.00  0.00     0.198 C 
ATOM     23  O   UNL d   1      32.776 -16.449  -8.712  0.00  0.00    -0.388 OA
ATOM     24  C   UNL d   1      32.928 -15.100  -8.251  0.00  0.00     0.198 C 
ATOM     25  C   UNL d   1      31.550 -14.485  -7.896  0.00  0.00     0.298 C 
ENDBRANCH  19  20
ENDBRANCH  18  19
ENDBRANCH  17  18
ENDBRANCH  15  17
ENDBRANCH  10  13
BRANCH  10  26
ATOM     26  O   UNL d   1      26.633 -15.150  -6.073  0.00  0.00    -0.359 OA
ATOM     27  H   UNL d   1      27.393 -15.573  -6.507  0.00  0.00     0.213 HD
ENDBRANCH  10  26
BRANCH  11  28
ATOM     28  C   UNL d   1      25.992 -15.447  -2.658  0.00  0.00     0.044 C 
ATOM     29  C   UNL d   1      25.082 -16.491  -2.454  0.00  0.00     0.031 C 
ATOM     30  C   UNL d   1      25.214 -17.354  -1.351  0.00  0.00     0.028 C 
ATOM     31  C   UNL d   1      26.153 -17.094  -0.352  0.00  0.00     0.055 C 
ATOM     32 CL   UNL d   1      26.259 -18.194   0.977  0.00  0.00    -0.083 Cl
ATOM     33  C   UNL d   1      26.971 -15.968  -0.466  0.00  0.00     0.058 C 
ATOM     34 CL   UNL d   1      28.079 -15.520   0.799  0.00  0.00    -0.082 Cl
ATOM     35  C   UNL d   1      26.941 -15.194  -1.647  0.00  0.00     0.055 C 
ENDBRANCH  11  28
TORSDOF 7
ENDMDL
