MODEL 1
REMARK VINA RESULT:    -9.832      0.000      0.000
REMARK INTER + INTRA:         -13.376
REMARK INTER:                 -11.621
REMARK INTRA:                  -1.755
REMARK CONF_INDEPENDENT:        1.790
REMARK UNBOUND:                -1.755
REMARK  6 active torsions:
REMARK  status: ('A' for Active; 'I' for Inactive)
REMARK    1  A    between atoms: C_2  and  C_4 
REMARK    2  A    between atoms: C_4  and  C_5 
REMARK       I    between atoms: C_5  and  N_7 
REMARK    3  A    between atoms: N_7  and  C_8 
REMARK    4  A    between atoms: C_11  and  C_12 
REMARK       I    between atoms: C_12  and  N_14 
REMARK    5  A    between atoms: N_14  and  N_15 
REMARK       I    between atoms: N_15  and  C_16 
REMARK    6  A    between atoms: C_16  and  C_18 
ROOT
ATOM      1  C   UNL d   1      22.477 -18.047  -0.374  0.00  0.00     0.034 A 
ATOM      2  C   UNL d   1      23.659 -18.775  -0.252  0.00  0.00     0.030 A 
ATOM      3  C   UNL d   1      24.889 -18.200  -0.651  0.00  0.00     0.019 A 
ATOM      4  C   UNL d   1      24.949 -16.904  -1.207  0.00  0.00     0.033 A 
ATOM      5  C   UNL d   1      23.758 -16.181  -1.296  0.00  0.00     0.019 A 
ATOM      6  C   UNL d   1      22.544 -16.751  -0.895  0.00  0.00     0.030 A 
ENDROOT
BRANCH   4   7
ATOM      7  C   UNL d   1      26.255 -16.359  -1.730  0.00  0.00     0.270 C 
ATOM      8  O   UNL d   1      27.244 -16.305  -0.990  0.00  0.00    -0.266 OA
ATOM      9  N   UNL d   1      26.316 -15.949  -3.058  0.00  0.00    -0.263 N 
ATOM     10  H   UNL d   1      25.551 -15.998  -3.726  0.00  0.00     0.190 HD
BRANCH   9  11
ATOM     11  N   UNL d   1      27.548 -15.513  -3.597  0.00  0.00    -0.267 N 
ATOM     12  C   UNL d   1      27.634 -15.198  -4.944  0.00  0.00     0.240 C 
ATOM     13  O   UNL d   1      26.680 -15.375  -5.707  0.00  0.00    -0.271 OA
ATOM     14  H   UNL d   1      28.285 -15.355  -2.915  0.00  0.00     0.190 HD
BRANCH  12  15
ATOM     15  C   UNL d   1      28.991 -14.681  -5.473  0.00  0.00     0.079 C 
ATOM     16  C   UNL d   1      30.061 -15.776  -5.579  0.00  0.00     0.014 C 
ATOM     17  C   UNL d   1      31.377 -15.282  -6.170  0.00  0.00     0.001 C 
ATOM     18  C   UNL d   1      31.156 -14.608  -7.520  0.00  0.00     0.000 C 
ATOM     19  C   UNL d   1      30.158 -13.464  -7.389  0.00  0.00     0.001 C 
ATOM     20  C   UNL d   1      28.822 -13.944  -6.812  0.00  0.00     0.014 C 
ENDBRANCH  12  15
ENDBRANCH   9  11
ENDBRANCH   4   7
BRANCH   1  21
ATOM     21  N   UNL d   1      21.229 -18.576   0.050  0.00  0.00    -0.327 N 
ATOM     22  C   UNL d   1      20.438 -19.309  -0.822  0.00  0.00     0.222 C 
ATOM     23  O   UNL d   1      20.830 -19.650  -1.938  0.00  0.00    -0.273 OA
ATOM     24  H   UNL d   1      21.023 -18.598   1.041  0.00  0.00     0.169 HD
BRANCH  22  25
ATOM     25  C   UNL d   1      19.058 -19.722  -0.307  0.00  0.00     0.107 C 
BRANCH  25  26
ATOM     26  C   UNL d   1      19.186 -20.774   0.824  0.00  0.00    -0.014 C 
ATOM     27  C   UNL d   1      19.528 -20.127   2.167  0.00  0.00     0.010 C 
ATOM     28  C   UNL d   1      17.894 -21.587   0.994  0.00  0.00     0.010 C 
ENDBRANCH  25  26
ENDBRANCH  22  25
ENDBRANCH   1  21
TORSDOF 6
ENDMDL
MODEL 2
REMARK VINA RESULT:    -9.608      1.372     10.452
REMARK INTER + INTRA:         -13.105
REMARK INTER:                 -11.398
REMARK INTRA:                  -1.706
REMARK CONF_INDEPENDENT:        1.790
REMARK UNBOUND:                -1.706
REMARK  6 active torsions:
REMARK  status: ('A' for Active; 'I' for Inactive)
REMARK    1  A    between atoms: C_2  and  C_4 
REMARK    2  A    between atoms: C_4  and  C_5 
REMARK       I    between atoms: C_5  and  N_7 
REMARK    3  A    between atoms: N_7  and  C_8 
REMARK    4  A    between atoms: C_11  and  C_12 
REMARK       I    between atoms: C_12  and  N_14 
REMARK    5  A    between atoms: N_14  and  N_15 
REMARK       I    between atoms: N_15  and  C_16 
REMARK    6  A    between atoms: C_16  and  C_18 
ROOT
ATOM      1  C   UNL d   1      27.210 -15.346  -2.816  0.00  0.00     0.034 A 
ATOM      2  C   UNL d   1      25.829 -15.342  -3.002  0.00  0.00     0.030 A 
ATOM      3  C   UNL d   1      24.998 -16.104  -2.147  0.00  0.00     0.019 A 
ATOM      4  C   UNL d   1      25.539 -16.904  -1.117  0.00  0.00     0.033 A 
ATOM      5  C   UNL d   1      26.922 -16.872  -0.929  0.00  0.00     0.019 A 
ATOM      6  C   UNL d   1      27.740 -16.113  -1.774  0.00  0.00     0.030 A 
ENDROOT
BRANCH   4   7
ATOM      7  C   UNL d   1      24.641 -17.795  -0.293  0.00  0.00     0.270 C 
ATOM      8  O   UNL d   1      25.066 -18.308   0.748  0.00  0.00    -0.266 OA
ATOM      9  N   UNL d   1      23.333 -17.994  -0.724  0.00  0.00    -0.263 N 
ATOM     10  H   UNL d   1      22.915 -17.577  -1.550  0.00  0.00     0.190 HD
BRANCH   9  11
ATOM     11  N   UNL d   1      22.446 -18.756   0.071  0.00  0.00    -0.267 N 
ATOM     12  C   UNL d   1      21.293 -19.276  -0.494  0.00  0.00     0.240 C 
ATOM     13  O   UNL d   1      20.974 -19.015  -1.658  0.00  0.00    -0.271 OA
ATOM     14  H   UNL d   1      22.779 -18.964   1.009  0.00  0.00     0.190 HD
BRANCH  12  15
ATOM     15  C   UNL d   1      20.381 -20.140   0.406  0.00  0.00     0.079 C 
ATOM     16  C   UNL d   1      20.308 -19.642   1.856  0.00  0.00     0.014 C 
ATOM     17  C   UNL d   1      19.352 -20.450   2.726  0.00  0.00     0.001 C 
ATOM     18  C   UNL d   1      17.961 -20.512   2.105  0.00  0.00     0.000 C 
ATOM     19  C   UNL d   1      18.030 -21.090   0.697  0.00  0.00     0.001 C 
ATOM     20  C   UNL d   1      18.974 -20.281  -0.199  0.00  0.00     0.014 C 
ENDBRANCH  12  15
ENDBRANCH   9  11
ENDBRANCH   4   7
BRANCH   1  21
ATOM     21  N   UNL d   1      28.074 -14.564  -3.630  0.00  0.00    -0.327 N 
ATOM     22  C   UNL d   1      27.994 -14.631  -5.013  0.00  0.00     0.222 C 
ATOM     23  O   UNL d   1      27.101 -15.248  -5.592  0.00  0.00    -0.273 OA
ATOM     24  H   UNL d   1      28.592 -13.808  -3.200  0.00  0.00     0.169 HD
BRANCH  22  25
ATOM     25  C   UNL d   1      29.052 -13.850  -5.795  0.00  0.00     0.107 C 
BRANCH  25  26
ATOM     26  C   UNL d   1      30.131 -14.805  -6.365  0.00  0.00    -0.014 C 
ATOM     27  C   UNL d   1      31.525 -14.176  -6.327  0.00  0.00     0.010 C 
ATOM     28  C   UNL d   1      30.179 -16.133  -5.595  0.00  0.00     0.010 C 
ENDBRANCH  25  26
ENDBRANCH  22  25
ENDBRANCH   1  21
TORSDOF 6
ENDMDL
MODEL 3
REMARK VINA RESULT:    -9.358      0.999      1.405
REMARK INTER + INTRA:         -12.757
REMARK INTER:                 -11.148
REMARK INTRA:                  -1.609
REMARK CONF_INDEPENDENT:        1.790
REMARK UNBOUND:                -1.609
REMARK  6 active torsions:
REMARK  status: ('A' for Active; 'I' for Inactive)
REMARK    1  A    between atoms: C_2  and  C_4 
REMARK    2  A    between atoms: C_4  and  C_5 
REMARK       I    between atoms: C_5  and  N_7 
REMARK    3  A    between atoms: N_7  and  C_8 
REMARK    4  A    between atoms: C_11  and  C_12 
REMARK       I    between atoms: C_12  and  N_14 
REMARK    5  A    between atoms: N_14  and  N_15 
REMARK       I    between atoms: N_15  and  C_16 
REMARK    6  A    between atoms: C_16  and  C_18 
ROOT
ATOM      1  C   UNL d   1      22.905 -18.298  -0.269  0.00  0.00     0.034 A 
ATOM      2  C   UNL d   1      24.267 -18.580  -0.172  0.00  0.00     0.030 A 
ATOM      3  C   UNL d   1      25.218 -17.643  -0.639  0.00  0.00     0.019 A 
ATOM      4  C   UNL d   1      24.822 -16.427  -1.237  0.00  0.00     0.033 A 
ATOM      5  C   UNL d   1      23.455 -16.151  -1.300  0.00  0.00     0.019 A 
ATOM      6  C   UNL d   1      22.516 -17.079  -0.832  0.00  0.00     0.030 A 
ENDROOT
BRANCH   4   7
ATOM      7  C   UNL d   1      25.852 -15.497  -1.828  0.00  0.00     0.270 C 
ATOM      8  O   UNL d   1      26.494 -14.737  -1.094  0.00  0.00    -0.266 OA
ATOM      9  N   UNL d   1      26.071 -15.542  -3.202  0.00  0.00    -0.263 N 
ATOM     10  H   UNL d   1      25.602 -16.164  -3.853  0.00  0.00     0.190 HD
BRANCH   9  11
ATOM     11  N   UNL d   1      27.089 -14.742  -3.771  0.00  0.00    -0.267 N 
ATOM     12  C   UNL d   1      27.310 -14.785  -5.139  0.00  0.00     0.240 C 
ATOM     13  O   UNL d   1      26.697 -15.575  -5.864  0.00  0.00    -0.271 OA
ATOM     14  H   UNL d   1      27.534 -14.090  -3.131  0.00  0.00     0.190 HD
BRANCH  12  15
ATOM     15  C   UNL d   1      28.402 -13.857  -5.717  0.00  0.00     0.079 C 
ATOM     16  C   UNL d   1      29.353 -14.567  -6.689  0.00  0.00     0.014 C 
ATOM     17  C   UNL d   1      30.385 -13.634  -7.316  0.00  0.00     0.001 C 
ATOM     18  C   UNL d   1      29.713 -12.443  -7.989  0.00  0.00     0.000 C 
ATOM     19  C   UNL d   1      28.837 -11.691  -6.994  0.00  0.00     0.001 C 
ATOM     20  C   UNL d   1      27.783 -12.608  -6.365  0.00  0.00     0.014 C 
ENDBRANCH  12  15
ENDBRANCH   9  11
ENDBRANCH   4   7
BRANCH   1  21
ATOM     21  N   UNL d   1      21.921 -19.197   0.222  0.00  0.00    -0.327 N 
ATOM     22  C   UNL d   1      20.870 -19.605  -0.586  0.00  0.00     0.222 C 
ATOM     23  O   UNL d   1      20.814 -19.327  -1.784  0.00  0.00    -0.273 OA
ATOM     24  H   UNL d   1      22.108 -19.700   1.080  0.00  0.00     0.169 HD
BRANCH  22  25
ATOM     25  C   UNL d   1      19.796 -20.470   0.077  0.00  0.00     0.107 C 
BRANCH  25  26
ATOM     26  C   UNL d   1      19.224 -19.768   1.334  0.00  0.00    -0.014 C 
ATOM     27  C   UNL d   1      18.023 -20.520   1.910  0.00  0.00     0.010 C 
ATOM     28  C   UNL d   1      20.282 -19.628   2.438  0.00  0.00     0.010 C 
ENDBRANCH  25  26
ENDBRANCH  22  25
ENDBRANCH   1  21
TORSDOF 6
ENDMDL
MODEL 4
REMARK VINA RESULT:    -9.246      1.657     10.376
REMARK INTER + INTRA:         -12.879
REMARK INTER:                 -11.035
REMARK INTRA:                  -1.844
REMARK CONF_INDEPENDENT:        1.790
REMARK UNBOUND:                -1.844
REMARK  6 active torsions:
REMARK  status: ('A' for Active; 'I' for Inactive)
REMARK    1  A    between atoms: C_2  and  C_4 
REMARK    2  A    between atoms: C_4  and  C_5 
REMARK       I    between atoms: C_5  and  N_7 
REMARK    3  A    between atoms: N_7  and  C_8 
REMARK    4  A    between atoms: C_11  and  C_12 
REMARK       I    between atoms: C_12  and  N_14 
REMARK    5  A    between atoms: N_14  and  N_15 
REMARK       I    between atoms: N_15  and  C_16 
REMARK    6  A    between atoms: C_16  and  C_18 
ROOT
ATOM      1  C   UNL d   1      27.263 -15.351  -2.720  0.00  0.00     0.034 A 
ATOM      2  C   UNL d   1      27.799 -16.217  -1.768  0.00  0.00     0.030 A 
ATOM      3  C   UNL d   1      26.947 -17.074  -1.032  0.00  0.00     0.019 A 
ATOM      4  C   UNL d   1      25.548 -17.054  -1.213  0.00  0.00     0.033 A 
ATOM      5  C   UNL d   1      25.033 -16.199  -2.190  0.00  0.00     0.019 A 
ATOM      6  C   UNL d   1      25.879 -15.356  -2.921  0.00  0.00     0.030 A 
ENDROOT
BRANCH   4   7
ATOM      7  C   UNL d   1      24.653 -17.895  -0.336  0.00  0.00     0.270 C 
ATOM      8  O   UNL d   1      25.014 -18.196   0.807  0.00  0.00    -0.266 OA
ATOM      9  N   UNL d   1      23.418 -18.291  -0.839  0.00  0.00    -0.263 N 
ATOM     10  H   UNL d   1      23.050 -18.049  -1.755  0.00  0.00     0.190 HD
BRANCH   9  11
ATOM     11  N   UNL d   1      22.525 -19.008  -0.010  0.00  0.00    -0.267 N 
ATOM     12  C   UNL d   1      21.308 -19.432  -0.518  0.00  0.00     0.240 C 
ATOM     13  O   UNL d   1      20.944 -19.120  -1.656  0.00  0.00    -0.271 OA
ATOM     14  H   UNL d   1      22.895 -19.262   0.903  0.00  0.00     0.190 HD
BRANCH  12  15
ATOM     15  C   UNL d   1      20.389 -20.253   0.416  0.00  0.00     0.079 C 
ATOM     16  C   UNL d   1      20.297 -19.681   1.837  0.00  0.00     0.014 C 
ATOM     17  C   UNL d   1      19.334 -20.448   2.737  0.00  0.00     0.001 C 
ATOM     18  C   UNL d   1      17.951 -20.549   2.103  0.00  0.00     0.000 C 
ATOM     19  C   UNL d   1      18.039 -21.198   0.727  0.00  0.00     0.001 C 
ATOM     20  C   UNL d   1      18.991 -20.432  -0.198  0.00  0.00     0.014 C 
ENDBRANCH  12  15
ENDBRANCH   9  11
ENDBRANCH   4   7
BRANCH   1  21
ATOM     21  N   UNL d   1      28.089 -14.503  -3.505  0.00  0.00    -0.327 N 
ATOM     22  C   UNL d   1      28.093 -14.604  -4.889  0.00  0.00     0.222 C 
ATOM     23  O   UNL d   1      27.299 -15.319  -5.499  0.00  0.00    -0.273 OA
ATOM     24  H   UNL d   1      28.504 -13.690  -3.068  0.00  0.00     0.169 HD
BRANCH  22  25
ATOM     25  C   UNL d   1      29.110 -13.735  -5.632  0.00  0.00     0.107 C 
BRANCH  25  26
ATOM     26  C   UNL d   1      28.553 -12.306  -5.854  0.00  0.00    -0.014 C 
ATOM     27  C   UNL d   1      27.024 -12.279  -5.825  0.00  0.00     0.010 C 
ATOM     28  C   UNL d   1      29.075 -11.322  -4.797  0.00  0.00     0.010 C 
ENDBRANCH  25  26
ENDBRANCH  22  25
ENDBRANCH   1  21
TORSDOF 6
ENDMDL
MODEL 5
REMARK VINA RESULT:    -9.030      1.409      2.103
REMARK INTER + INTRA:         -11.804
REMARK INTER:                 -10.820
REMARK INTRA:                  -0.984
REMARK CONF_INDEPENDENT:        1.790
REMARK UNBOUND:                -0.984
REMARK  6 active torsions:
REMARK  status: ('A' for Active; 'I' for Inactive)
REMARK    1  A    between atoms: C_2  and  C_4 
REMARK    2  A    between atoms: C_4  and  C_5 
REMARK       I    between atoms: C_5  and  N_7 
REMARK    3  A    between atoms: N_7  and  C_8 
REMARK    4  A    between atoms: C_11  and  C_12 
REMARK       I    between atoms: C_12  and  N_14 
REMARK    5  A    between atoms: N_14  and  N_15 
REMARK       I    between atoms: N_15  and  C_16 
REMARK    6  A    between atoms: C_16  and  C_18 
ROOT
ATOM      1  C   UNL d   1      22.667 -18.173  -0.431  0.00  0.00     0.034 A 
ATOM      2  C   UNL d   1      22.328 -16.835  -0.623  0.00  0.00     0.030 A 
ATOM      3  C   UNL d   1      23.238 -15.959  -1.262  0.00  0.00     0.019 A 
ATOM      4  C   UNL d   1      24.508 -16.401  -1.689  0.00  0.00     0.033 A 
ATOM      5  C   UNL d   1      24.819 -17.751  -1.513  0.00  0.00     0.019 A 
ATOM      6  C   UNL d   1      23.914 -18.616  -0.885  0.00  0.00     0.030 A 
ENDROOT
BRANCH   4   7
ATOM      7  C   UNL d   1      25.502 -15.421  -2.264  0.00  0.00     0.270 C 
ATOM      8  O   UNL d   1      26.619 -15.299  -1.749  0.00  0.00    -0.266 OA
ATOM      9  N   UNL d   1      25.135 -14.692  -3.390  0.00  0.00    -0.263 N 
ATOM     10  H   UNL d   1      24.247 -14.770  -3.879  0.00  0.00     0.190 HD
BRANCH   9  11
ATOM     11  N   UNL d   1      26.075 -13.830  -4.000  0.00  0.00    -0.267 N 
ATOM     12  C   UNL d   1      26.860 -14.298  -5.041  0.00  0.00     0.240 C 
ATOM     13  O   UNL d   1      26.822 -15.480  -5.394  0.00  0.00    -0.271 OA
ATOM     14  H   UNL d   1      26.036 -12.862  -3.690  0.00  0.00     0.190 HD
BRANCH  12  15
ATOM     15  C   UNL d   1      27.839 -13.301  -5.703  0.00  0.00     0.079 C 
ATOM     16  C   UNL d   1      28.584 -13.888  -6.908  0.00  0.00     0.014 C 
ATOM     17  C   UNL d   1      29.494 -12.883  -7.607  0.00  0.00     0.001 C 
ATOM     18  C   UNL d   1      28.725 -11.628  -8.005  0.00  0.00     0.000 C 
ATOM     19  C   UNL d   1      28.059 -11.001  -6.787  0.00  0.00     0.001 C 
ATOM     20  C   UNL d   1      27.127 -11.991  -6.081  0.00  0.00     0.014 C 
ENDBRANCH  12  15
ENDBRANCH   9  11
ENDBRANCH   4   7
BRANCH   1  21
ATOM     21  N   UNL d   1      21.767 -19.091   0.172  0.00  0.00    -0.327 N 
ATOM     22  C   UNL d   1      20.698 -19.608  -0.545  0.00  0.00     0.222 C 
ATOM     23  O   UNL d   1      20.558 -19.411  -1.752  0.00  0.00    -0.273 OA
ATOM     24  H   UNL d   1      22.032 -19.527   1.046  0.00  0.00     0.169 HD
BRANCH  22  25
ATOM     25  C   UNL d   1      19.717 -20.487   0.233  0.00  0.00     0.107 C 
BRANCH  25  26
ATOM     26  C   UNL d   1      19.198 -19.749   1.493  0.00  0.00    -0.014 C 
ATOM     27  C   UNL d   1      17.982 -20.448   2.103  0.00  0.00     0.010 C 
ATOM     28  C   UNL d   1      20.283 -19.635   2.573  0.00  0.00     0.010 C 
ENDBRANCH  25  26
ENDBRANCH  22  25
ENDBRANCH   1  21
TORSDOF 6
ENDMDL
MODEL 6
REMARK VINA RESULT:    -7.854      2.308     10.612
REMARK INTER + INTRA:         -11.408
REMARK INTER:                  -9.643
REMARK INTRA:                  -1.764
REMARK CONF_INDEPENDENT:        1.790
REMARK UNBOUND:                -1.764
REMARK  6 active torsions:
REMARK  status: ('A' for Active; 'I' for Inactive)
REMARK    1  A    between atoms: C_2  and  C_4 
REMARK    2  A    between atoms: C_4  and  C_5 
REMARK       I    between atoms: C_5  and  N_7 
REMARK    3  A    between atoms: N_7  and  C_8 
REMARK    4  A    between atoms: C_11  and  C_12 
REMARK       I    between atoms: C_12  and  N_14 
REMARK    5  A    between atoms: N_14  and  N_15 
REMARK       I    between atoms: N_15  and  C_16 
REMARK    6  A    between atoms: C_16  and  C_18 
ROOT
ATOM      1  C   UNL d   1      27.348 -14.706  -2.410  0.00  0.00     0.034 A 
ATOM      2  C   UNL d   1      26.068 -15.005  -2.872  0.00  0.00     0.030 A 
ATOM      3  C   UNL d   1      25.249 -15.906  -2.152  0.00  0.00     0.019 A 
ATOM      4  C   UNL d   1      25.710 -16.544  -0.981  0.00  0.00     0.033 A 
ATOM      5  C   UNL d   1      26.984 -16.211  -0.519  0.00  0.00     0.019 A 
ATOM      6  C   UNL d   1      27.790 -15.314  -1.231  0.00  0.00     0.030 A 
ENDROOT
BRANCH   4   7
ATOM      7  C   UNL d   1      24.859 -17.586  -0.296  0.00  0.00     0.270 C 
ATOM      8  O   UNL d   1      25.323 -18.244   0.643  0.00  0.00    -0.266 OA
ATOM      9  N   UNL d   1      23.550 -17.761  -0.732  0.00  0.00    -0.263 N 
ATOM     10  H   UNL d   1      23.100 -17.231  -1.473  0.00  0.00     0.190 HD
BRANCH   9  11
ATOM     11  N   UNL d   1      22.705 -18.671  -0.054  0.00  0.00    -0.267 N 
ATOM     12  C   UNL d   1      21.371 -18.768  -0.417  0.00  0.00     0.240 C 
ATOM     13  O   UNL d   1      20.879 -18.014  -1.261  0.00  0.00    -0.271 OA
ATOM     14  H   UNL d   1      23.175 -19.285   0.605  0.00  0.00     0.190 HD
BRANCH  12  15
ATOM     15  C   UNL d   1      20.503 -19.810   0.323  0.00  0.00     0.079 C 
ATOM     16  C   UNL d   1      20.249 -19.458   1.795  0.00  0.00     0.014 C 
ATOM     17  C   UNL d   1      19.331 -20.448   2.505  0.00  0.00     0.001 C 
ATOM     18  C   UNL d   1      18.016 -20.616   1.753  0.00  0.00     0.000 C 
ATOM     19  C   UNL d   1      18.273 -21.052   0.316  0.00  0.00     0.001 C 
ATOM     20  C   UNL d   1      19.180 -20.060  -0.420  0.00  0.00     0.014 C 
ENDBRANCH  12  15
ENDBRANCH   9  11
ENDBRANCH   4   7
BRANCH   1  21
ATOM     21  N   UNL d   1      28.187 -13.778  -3.084  0.00  0.00    -0.327 N 
ATOM     22  C   UNL d   1      27.722 -12.511  -3.408  0.00  0.00     0.222 C 
ATOM     23  O   UNL d   1      26.636 -12.088  -3.014  0.00  0.00    -0.273 OA
ATOM     24  H   UNL d   1      29.180 -13.967  -3.133  0.00  0.00     0.169 HD
BRANCH  22  25
ATOM     25  C   UNL d   1      28.658 -11.636  -4.245  0.00  0.00     0.107 C 
BRANCH  25  26
ATOM     26  C   UNL d   1      30.123 -11.779  -3.761  0.00  0.00    -0.014 C 
ATOM     27  C   UNL d   1      30.984 -12.540  -4.771  0.00  0.00     0.010 C 
ATOM     28  C   UNL d   1      30.773 -10.412  -3.505  0.00  0.00     0.010 C 
ENDBRANCH  25  26
ENDBRANCH  22  25
ENDBRANCH   1  21
TORSDOF 6
ENDMDL
MODEL 7
REMARK VINA RESULT:    -7.827      3.874      4.873
REMARK INTER + INTRA:         -11.174
REMARK INTER:                  -9.617
REMARK INTRA:                  -1.557
REMARK CONF_INDEPENDENT:        1.790
REMARK UNBOUND:                -1.557
REMARK  6 active torsions:
REMARK  status: ('A' for Active; 'I' for Inactive)
REMARK    1  A    between atoms: C_2  and  C_4 
REMARK    2  A    between atoms: C_4  and  C_5 
REMARK       I    between atoms: C_5  and  N_7 
REMARK    3  A    between atoms: N_7  and  C_8 
REMARK    4  A    between atoms: C_11  and  C_12 
REMARK       I    between atoms: C_12  and  N_14 
REMARK    5  A    between atoms: N_14  and  N_15 
REMARK       I    between atoms: N_15  and  C_16 
REMARK    6  A    between atoms: C_16  and  C_18 
ROOT
ATOM      1  C   UNL d   1      22.782 -18.481  -0.240  0.00  0.00     0.034 A 
ATOM      2  C   UNL d   1      22.629 -17.116  -0.479  0.00  0.00     0.030 A 
ATOM      3  C   UNL d   1      23.769 -16.291  -0.620  0.00  0.00     0.019 A 
ATOM      4  C   UNL d   1      25.075 -16.810  -0.491  0.00  0.00     0.033 A 
ATOM      5  C   UNL d   1      25.208 -18.184  -0.279  0.00  0.00     0.019 A 
ATOM      6  C   UNL d   1      24.078 -18.999  -0.145  0.00  0.00     0.030 A 
ENDROOT
BRANCH   4   7
ATOM      7  C   UNL d   1      26.269 -15.889  -0.532  0.00  0.00     0.270 C 
ATOM      8  O   UNL d   1      27.240 -16.166  -1.245  0.00  0.00    -0.266 OA
ATOM      9  N   UNL d   1      26.231 -14.724   0.227  0.00  0.00    -0.263 N 
ATOM     10  H   UNL d   1      25.452 -14.423   0.807  0.00  0.00     0.190 HD
BRANCH   9  11
ATOM     11  N   UNL d   1      27.300 -13.802   0.143  0.00  0.00    -0.267 N 
ATOM     12  C   UNL d   1      27.329 -12.707   0.993  0.00  0.00     0.240 C 
ATOM     13  O   UNL d   1      26.395 -12.467   1.764  0.00  0.00    -0.271 OA
ATOM     14  H   UNL d   1      28.052 -14.071  -0.485  0.00  0.00     0.190 HD
BRANCH  12  15
ATOM     15  C   UNL d   1      28.542 -11.755   0.892  0.00  0.00     0.079 C 
ATOM     16  C   UNL d   1      28.894 -11.366  -0.550  0.00  0.00     0.014 C 
ATOM     17  C   UNL d   1      30.044 -10.370  -0.645  0.00  0.00     0.001 C 
ATOM     18  C   UNL d   1      29.771  -9.130   0.199  0.00  0.00     0.000 C 
ATOM     19  C   UNL d   1      29.509  -9.518   1.649  0.00  0.00     0.001 C 
ATOM     20  C   UNL d   1      28.344 -10.507   1.767  0.00  0.00     0.014 C 
ENDBRANCH  12  15
ENDBRANCH   9  11
ENDBRANCH   4   7
BRANCH   1  21
ATOM     21  N   UNL d   1      21.663 -19.349  -0.130  0.00  0.00    -0.327 N 
ATOM     22  C   UNL d   1      20.420 -18.966  -0.613  0.00  0.00     0.222 C 
ATOM     23  O   UNL d   1      20.258 -17.938  -1.270  0.00  0.00    -0.273 OA
ATOM     24  H   UNL d   1      21.824 -20.321   0.103  0.00  0.00     0.169 HD
BRANCH  22  25
ATOM     25  C   UNL d   1      19.257 -19.918  -0.331  0.00  0.00     0.107 C 
BRANCH  25  26
ATOM     26  C   UNL d   1      19.504 -20.717   0.974  0.00  0.00    -0.014 C 
ATOM     27  C   UNL d   1      19.831 -19.797   2.151  0.00  0.00     0.010 C 
ATOM     28  C   UNL d   1      18.289 -21.575   1.354  0.00  0.00     0.010 C 
ENDBRANCH  25  26
ENDBRANCH  22  25
ENDBRANCH   1  21
TORSDOF 6
ENDMDL
MODEL 8
REMARK VINA RESULT:    -7.199      4.631      5.959
REMARK INTER + INTRA:         -10.673
REMARK INTER:                  -8.989
REMARK INTRA:                  -1.684
REMARK CONF_INDEPENDENT:        1.790
REMARK UNBOUND:                -1.684
REMARK  6 active torsions:
REMARK  status: ('A' for Active; 'I' for Inactive)
REMARK    1  A    between atoms: C_2  and  C_4 
REMARK    2  A    between atoms: C_4  and  C_5 
REMARK       I    between atoms: C_5  and  N_7 
REMARK    3  A    between atoms: N_7  and  C_8 
REMARK    4  A    between atoms: C_11  and  C_12 
REMARK       I    between atoms: C_12  and  N_14 
REMARK    5  A    between atoms: N_14  and  N_15 
REMARK       I    between atoms: N_15  and  C_16 
REMARK    6  A    between atoms: C_16  and  C_18 
ROOT
ATOM      1  C   UNL d   1      23.723 -18.167  -0.721  0.00  0.00     0.034 A 
ATOM      2  C   UNL d   1      23.718 -16.894  -1.289  0.00  0.00     0.030 A 
ATOM      3  C   UNL d   1      24.839 -16.045  -1.133  0.00  0.00     0.019 A 
ATOM      4  C   UNL d   1      25.965 -16.444  -0.380  0.00  0.00     0.033 A 
ATOM      5  C   UNL d   1      25.962 -17.732   0.158  0.00  0.00     0.019 A 
ATOM      6  C   UNL d   1      24.853 -18.572  -0.004  0.00  0.00     0.030 A 
ENDROOT
BRANCH   4   7
ATOM      7  C   UNL d   1      27.097 -15.478  -0.134  0.00  0.00     0.270 C 
ATOM      8  O   UNL d   1      27.769 -15.056  -1.082  0.00  0.00    -0.266 OA
ATOM      9  N   UNL d   1      27.340 -15.064   1.172  0.00  0.00    -0.263 N 
ATOM     10  H   UNL d   1      26.806 -15.347   1.989  0.00  0.00     0.190 HD
BRANCH   9  11
ATOM     11  N   UNL d   1      28.340 -14.096   1.422  0.00  0.00    -0.267 N 
ATOM     12  C   UNL d   1      28.552 -13.647   2.717  0.00  0.00     0.240 C 
ATOM     13  O   UNL d   1      27.826 -14.008   3.648  0.00  0.00    -0.271 OA
ATOM     14  H   UNL d   1      28.925 -13.864   0.623  0.00  0.00     0.190 HD
BRANCH  12  15
ATOM     15  C   UNL d   1      29.688 -12.625   2.942  0.00  0.00     0.079 C 
ATOM     16  C   UNL d   1      30.259 -12.653   4.366  0.00  0.00     0.014 C 
ATOM     17  C   UNL d   1      31.430 -11.696   4.568  0.00  0.00     0.001 C 
ATOM     18  C   UNL d   1      32.527 -11.943   3.539  0.00  0.00     0.000 C 
ATOM     19  C   UNL d   1      31.971 -11.827   2.125  0.00  0.00     0.001 C 
ATOM     20  C   UNL d   1      30.804 -12.794   1.898  0.00  0.00     0.014 C 
ENDBRANCH  12  15
ENDBRANCH   9  11
ENDBRANCH   4   7
BRANCH   1  21
ATOM     21  N   UNL d   1      22.633 -19.062  -0.887  0.00  0.00    -0.327 N 
ATOM     22  C   UNL d   1      21.327 -18.593  -0.894  0.00  0.00     0.222 C 
ATOM     23  O   UNL d   1      21.059 -17.392  -0.895  0.00  0.00    -0.273 OA
ATOM     24  H   UNL d   1      22.822 -20.002  -1.214  0.00  0.00     0.169 HD
BRANCH  22  25
ATOM     25  C   UNL d   1      20.223 -19.652  -0.950  0.00  0.00     0.107 C 
BRANCH  25  26
ATOM     26  C   UNL d   1      19.388 -19.644   0.355  0.00  0.00    -0.014 C 
ATOM     27  C   UNL d   1      18.418 -20.826   0.417  0.00  0.00     0.010 C 
ATOM     28  C   UNL d   1      20.281 -19.686   1.603  0.00  0.00     0.010 C 
ENDBRANCH  25  26
ENDBRANCH  22  25
ENDBRANCH   1  21
TORSDOF 6
ENDMDL
MODEL 9
REMARK VINA RESULT:    -7.198      4.143      4.971
REMARK INTER + INTRA:         -10.513
REMARK INTER:                  -8.988
REMARK INTRA:                  -1.525
REMARK CONF_INDEPENDENT:        1.790
REMARK UNBOUND:                -1.525
REMARK  6 active torsions:
REMARK  status: ('A' for Active; 'I' for Inactive)
REMARK    1  A    between atoms: C_2  and  C_4 
REMARK    2  A    between atoms: C_4  and  C_5 
REMARK       I    between atoms: C_5  and  N_7 
REMARK    3  A    between atoms: N_7  and  C_8 
REMARK    4  A    between atoms: C_11  and  C_12 
REMARK       I    between atoms: C_12  and  N_14 
REMARK    5  A    between atoms: N_14  and  N_15 
REMARK       I    between atoms: N_15  and  C_16 
REMARK    6  A    between atoms: C_16  and  C_18 
ROOT
ATOM      1  C   UNL d   1      23.092 -17.947  -0.812  0.00  0.00     0.034 A 
ATOM      2  C   UNL d   1      23.541 -16.689  -1.210  0.00  0.00     0.030 A 
ATOM      3  C   UNL d   1      24.861 -16.282  -0.908  0.00  0.00     0.019 A 
ATOM      4  C   UNL d   1      25.739 -17.111  -0.177  0.00  0.00     0.033 A 
ATOM      5  C   UNL d   1      25.280 -18.378   0.189  0.00  0.00     0.019 A 
ATOM      6  C   UNL d   1      23.974 -18.780  -0.116  0.00  0.00     0.030 A 
ENDROOT
BRANCH   4   7
ATOM      7  C   UNL d   1      27.102 -16.607   0.230  0.00  0.00     0.270 C 
ATOM      8  O   UNL d   1      27.203 -15.606   0.948  0.00  0.00    -0.266 OA
ATOM      9  N   UNL d   1      28.222 -17.310  -0.202  0.00  0.00    -0.263 N 
ATOM     10  H   UNL d   1      28.206 -18.156  -0.765  0.00  0.00     0.190 HD
BRANCH   9  11
ATOM     11  N   UNL d   1      29.507 -16.910   0.233  0.00  0.00    -0.267 N 
ATOM     12  C   UNL d   1      30.631 -17.380  -0.428  0.00  0.00     0.240 C 
ATOM     13  O   UNL d   1      30.542 -18.212  -1.335  0.00  0.00    -0.271 OA
ATOM     14  H   UNL d   1      29.514 -16.199   0.959  0.00  0.00     0.190 HD
BRANCH  12  15
ATOM     15  C   UNL d   1      32.009 -16.874   0.057  0.00  0.00     0.079 C 
ATOM     16  C   UNL d   1      31.914 -15.786   1.134  0.00  0.00     0.014 C 
ATOM     17  C   UNL d   1      33.272 -15.340   1.666  0.00  0.00     0.001 C 
ATOM     18  C   UNL d   1      34.085 -16.528   2.167  0.00  0.00     0.000 C 
ATOM     19  C   UNL d   1      34.249 -17.567   1.064  0.00  0.00     0.001 C 
ATOM     20  C   UNL d   1      32.894 -18.040   0.528  0.00  0.00     0.014 C 
ENDBRANCH  12  15
ENDBRANCH   9  11
ENDBRANCH   4   7
BRANCH   1  21
ATOM     21  N   UNL d   1      21.786 -18.408  -1.128  0.00  0.00    -0.327 N 
ATOM     22  C   UNL d   1      20.976 -18.965  -0.149  0.00  0.00     0.222 C 
ATOM     23  O   UNL d   1      21.286 -18.962   1.041  0.00  0.00    -0.273 OA
ATOM     24  H   UNL d   1      21.375 -18.132  -2.012  0.00  0.00     0.169 HD
BRANCH  22  25
ATOM     25  C   UNL d   1      19.641 -19.546  -0.620  0.00  0.00     0.107 C 
BRANCH  25  26
ATOM     26  C   UNL d   1      19.106 -20.587   0.396  0.00  0.00    -0.014 C 
ATOM     27  C   UNL d   1      18.888 -19.973   1.780  0.00  0.00     0.010 C 
ATOM     28  C   UNL d   1      17.783 -21.210  -0.071  0.00  0.00     0.010 C 
ENDBRANCH  25  26
ENDBRANCH  22  25
ENDBRANCH   1  21
TORSDOF 6
ENDMDL
