MODEL 1
REMARK VINA RESULT:    -7.487      0.000      0.000
REMARK INTER + INTRA:          -9.817
REMARK INTER:                  -8.681
REMARK INTRA:                  -1.137
REMARK CONF_INDEPENDENT:        1.193
REMARK UNBOUND:                -1.137
REMARK  4 active torsions:
REMARK  status: ('A' for Active; 'I' for Inactive)
REMARK    1  A    between atoms: C_5  and  C_6 
REMARK       I    between atoms: C_6  and  N_8 
REMARK    2  A    between atoms: N_8  and  N_9 
REMARK       I    between atoms: N_9  and  C_10 
REMARK    3  A    between atoms: C_12  and  C_10 
REMARK    4  A    between atoms: C_16  and  O_17 
ROOT
ATOM      1  C   UNL d   1      23.054 -17.422  -0.342  0.00  0.00     0.272 C 
ATOM      2  O   UNL d   1      22.158 -16.605  -0.577  0.00  0.00    -0.266 OA
ATOM      3  N   UNL d   1      22.810 -18.604   0.362  0.00  0.00    -0.263 N 
ATOM      4  H   UNL d   1      23.521 -19.290   0.603  0.00  0.00     0.190 HD
ENDROOT
BRANCH   1   5
ATOM      5  C   UNL d   1      24.455 -17.127  -0.843  0.00  0.00     0.066 A 
ATOM      6  C   UNL d   1      24.701 -16.274  -1.932  0.00  0.00     0.020 A 
ATOM      7  C   UNL d   1      26.015 -15.991  -2.360  0.00  0.00     0.008 A 
ATOM      8  C   UNL d   1      27.120 -16.544  -1.706  0.00  0.00    -0.059 A 
ATOM      9  C   UNL d   1      28.531 -16.242  -2.122  0.00  0.00     0.048 C 
ATOM     10  C   UNL d   1      26.889 -17.404  -0.629  0.00  0.00     0.044 A 
ATOM     11  C   UNL d   1      25.582 -17.697  -0.211  0.00  0.00     0.082 A 
BRANCH  11  12
ATOM     12  O   UNL d   1      25.509 -18.569   0.846  0.00  0.00    -0.360 OA
ATOM     13  H   UNL d   1      26.235 -18.356   1.470  0.00  0.00     0.217 HD
ENDBRANCH  11  12
ENDBRANCH   1   5
BRANCH   3  14
ATOM     14  N   UNL d   1      21.472 -18.950   0.783  0.00  0.00    -0.267 N 
ATOM     15  C   UNL d   1      20.545 -19.349  -0.183  0.00  0.00     0.240 C 
ATOM     16  O   UNL d   1      20.805 -19.285  -1.388  0.00  0.00    -0.271 OA
ATOM     17  H   UNL d   1      21.339 -19.082   1.783  0.00  0.00     0.190 HD
BRANCH  15  18
ATOM     18  C   UNL d   1      19.320 -20.102   0.253  0.00  0.00     0.083 A 
ATOM     19  C   UNL d   1      19.338 -21.575   0.605  0.00  0.00     0.019 A 
ATOM     20  C   UNL d   1      18.809 -20.585   1.612  0.00  0.00    -0.005 A 
ATOM     21  C   UNL d   1      19.376 -20.449   2.982  0.00  0.00     0.011 C 
ENDBRANCH  15  18
ENDBRANCH   3  14
TORSDOF 4
ENDMDL
MODEL 2
REMARK VINA RESULT:    -7.275      1.198      1.780
REMARK INTER + INTRA:          -9.583
REMARK INTER:                  -8.469
REMARK INTRA:                  -1.115
REMARK CONF_INDEPENDENT:        1.193
REMARK UNBOUND:                -1.115
REMARK  4 active torsions:
REMARK  status: ('A' for Active; 'I' for Inactive)
REMARK    1  A    between atoms: C_5  and  C_6 
REMARK       I    between atoms: C_6  and  N_8 
REMARK    2  A    between atoms: N_8  and  N_9 
REMARK       I    between atoms: N_9  and  C_10 
REMARK    3  A    between atoms: C_12  and  C_10 
REMARK    4  A    between atoms: C_16  and  O_17 
ROOT
ATOM      1  C   UNL d   1      23.647 -16.953  -0.552  0.00  0.00     0.272 C 
ATOM      2  O   UNL d   1      22.883 -16.070  -0.954  0.00  0.00    -0.266 OA
ATOM      3  N   UNL d   1      23.189 -18.043   0.191  0.00  0.00    -0.263 N 
ATOM      4  H   UNL d   1      23.784 -18.778   0.567  0.00  0.00     0.190 HD
ENDROOT
BRANCH   1   5
ATOM      5  C   UNL d   1      25.123 -16.844  -0.886  0.00  0.00     0.066 A 
ATOM      6  C   UNL d   1      26.111 -17.531  -0.161  0.00  0.00     0.020 A 
ATOM      7  C   UNL d   1      27.474 -17.438  -0.510  0.00  0.00     0.008 A 
ATOM      8  C   UNL d   1      27.887 -16.666  -1.599  0.00  0.00    -0.059 A 
ATOM      9  C   UNL d   1      29.329 -16.568  -2.012  0.00  0.00     0.048 C 
ATOM     10  C   UNL d   1      26.916 -15.969  -2.323  0.00  0.00     0.044 A 
ATOM     11  C   UNL d   1      25.561 -16.049  -1.968  0.00  0.00     0.082 A 
BRANCH  11  12
ATOM     12  O   UNL d   1      24.725 -15.299  -2.756  0.00  0.00    -0.360 OA
ATOM     13  H   UNL d   1      24.127 -14.788  -2.170  0.00  0.00     0.217 HD
ENDBRANCH  11  12
ENDBRANCH   1   5
BRANCH   3  14
ATOM     14  N   UNL d   1      21.780 -18.216   0.458  0.00  0.00    -0.267 N 
ATOM     15  C   UNL d   1      21.007 -18.943  -0.452  0.00  0.00     0.240 C 
ATOM     16  O   UNL d   1      21.473 -19.323  -1.530  0.00  0.00    -0.271 OA
ATOM     17  H   UNL d   1      21.470 -17.974   1.396  0.00  0.00     0.190 HD
BRANCH  15  18
ATOM     18  C   UNL d   1      19.680 -19.489  -0.005  0.00  0.00     0.083 A 
ATOM     19  C   UNL d   1      19.430 -20.964   0.227  0.00  0.00     0.019 A 
ATOM     20  C   UNL d   1      19.146 -19.988   1.340  0.00  0.00    -0.005 A 
ATOM     21  C   UNL d   1      19.788 -20.085   2.679  0.00  0.00     0.011 C 
ENDBRANCH  15  18
ENDBRANCH   3  14
TORSDOF 4
ENDMDL
MODEL 3
REMARK VINA RESULT:    -7.166      1.297      7.341
REMARK INTER + INTRA:          -9.989
REMARK INTER:                  -8.359
REMARK INTRA:                  -1.630
REMARK CONF_INDEPENDENT:        1.193
REMARK UNBOUND:                -1.630
REMARK  4 active torsions:
REMARK  status: ('A' for Active; 'I' for Inactive)
REMARK    1  A    between atoms: C_5  and  C_6 
REMARK       I    between atoms: C_6  and  N_8 
REMARK    2  A    between atoms: N_8  and  N_9 
REMARK       I    between atoms: N_9  and  C_10 
REMARK    3  A    between atoms: C_12  and  C_10 
REMARK    4  A    between atoms: C_16  and  O_17 
ROOT
ATOM      1  C   UNL d   1      22.077 -18.164  -0.189  0.00  0.00     0.272 C 
ATOM      2  O   UNL d   1      21.816 -17.238  -0.963  0.00  0.00    -0.266 OA
ATOM      3  N   UNL d   1      23.374 -18.395   0.275  0.00  0.00    -0.263 N 
ATOM      4  H   UNL d   1      23.640 -19.161   0.890  0.00  0.00     0.190 HD
ENDROOT
BRANCH   1   5
ATOM      5  C   UNL d   1      20.947 -19.066   0.272  0.00  0.00     0.066 A 
ATOM      6  C   UNL d   1      20.665 -19.284   1.630  0.00  0.00     0.020 A 
ATOM      7  C   UNL d   1      19.590 -20.104   2.033  0.00  0.00     0.008 A 
ATOM      8  C   UNL d   1      18.760 -20.718   1.091  0.00  0.00    -0.059 A 
ATOM      9  C   UNL d   1      17.592 -21.575   1.489  0.00  0.00     0.048 C 
ATOM     10  C   UNL d   1      19.036 -20.518  -0.264  0.00  0.00     0.044 A 
ATOM     11  C   UNL d   1      20.114 -19.714  -0.666  0.00  0.00     0.082 A 
BRANCH  11  12
ATOM     12  O   UNL d   1      20.275 -19.623  -2.026  0.00  0.00    -0.360 OA
ATOM     13  H   UNL d   1      20.987 -18.974  -2.208  0.00  0.00     0.217 HD
ENDBRANCH  11  12
ENDBRANCH   1   5
BRANCH   3  14
ATOM     14  N   UNL d   1      24.456 -17.507  -0.082  0.00  0.00    -0.267 N 
ATOM     15  C   UNL d   1      25.719 -17.728   0.475  0.00  0.00     0.240 C 
ATOM     16  O   UNL d   1      25.893 -18.575   1.355  0.00  0.00    -0.271 OA
ATOM     17  H   UNL d   1      24.288 -16.895  -0.877  0.00  0.00     0.190 HD
BRANCH  15  18
ATOM     18  C   UNL d   1      26.921 -17.111  -0.183  0.00  0.00     0.083 A 
ATOM     19  C   UNL d   1      26.826 -16.205  -1.393  0.00  0.00     0.019 A 
ATOM     20  C   UNL d   1      27.532 -15.708  -0.157  0.00  0.00    -0.005 A 
ATOM     21  C   UNL d   1      27.124 -14.469   0.561  0.00  0.00     0.011 C 
ENDBRANCH  15  18
ENDBRANCH   3  14
TORSDOF 4
ENDMDL
MODEL 4
REMARK VINA RESULT:    -6.951      1.140      1.681
REMARK INTER + INTRA:          -9.810
REMARK INTER:                  -8.144
REMARK INTRA:                  -1.665
REMARK CONF_INDEPENDENT:        1.193
REMARK UNBOUND:                -1.665
REMARK  4 active torsions:
REMARK  status: ('A' for Active; 'I' for Inactive)
REMARK    1  A    between atoms: C_5  and  C_6 
REMARK       I    between atoms: C_6  and  N_8 
REMARK    2  A    between atoms: N_8  and  N_9 
REMARK       I    between atoms: N_9  and  C_10 
REMARK    3  A    between atoms: C_12  and  C_10 
REMARK    4  A    between atoms: C_16  and  O_17 
ROOT
ATOM      1  C   UNL d   1      23.733 -17.846  -0.095  0.00  0.00     0.272 C 
ATOM      2  O   UNL d   1      24.207 -18.210   0.986  0.00  0.00    -0.266 OA
ATOM      3  N   UNL d   1      22.437 -18.189  -0.486  0.00  0.00    -0.263 N 
ATOM      4  H   UNL d   1      22.016 -17.937  -1.377  0.00  0.00     0.190 HD
ENDROOT
BRANCH   1   5
ATOM      5  C   UNL d   1      24.590 -16.997  -1.014  0.00  0.00     0.066 A 
ATOM      6  C   UNL d   1      24.052 -15.973  -1.811  0.00  0.00     0.020 A 
ATOM      7  C   UNL d   1      24.874 -15.176  -2.635  0.00  0.00     0.008 A 
ATOM      8  C   UNL d   1      26.258 -15.373  -2.678  0.00  0.00    -0.059 A 
ATOM      9  C   UNL d   1      27.163 -14.525  -3.526  0.00  0.00     0.048 C 
ATOM     10  C   UNL d   1      26.805 -16.396  -1.899  0.00  0.00     0.044 A 
ATOM     11  C   UNL d   1      25.986 -17.198  -1.090  0.00  0.00     0.082 A 
BRANCH  11  12
ATOM     12  O   UNL d   1      26.658 -18.172  -0.395  0.00  0.00    -0.360 OA
ATOM     13  H   UNL d   1      26.084 -18.478   0.339  0.00  0.00     0.217 HD
ENDBRANCH  11  12
ENDBRANCH   1   5
BRANCH   3  14
ATOM     14  N   UNL d   1      21.569 -18.929   0.400  0.00  0.00    -0.267 N 
ATOM     15  C   UNL d   1      20.543 -19.701  -0.153  0.00  0.00     0.240 C 
ATOM     16  O   UNL d   1      20.286 -19.658  -1.359  0.00  0.00    -0.271 OA
ATOM     17  H   UNL d   1      21.881 -19.011   1.365  0.00  0.00     0.190 HD
BRANCH  15  18
ATOM     18  C   UNL d   1      19.918 -20.783   0.682  0.00  0.00     0.083 A 
ATOM     19  C   UNL d   1      18.946 -20.501   1.808  0.00  0.00     0.019 A 
ATOM     20  C   UNL d   1      18.532 -21.433   0.698  0.00  0.00    -0.005 A 
ATOM     21  C   UNL d   1      17.326 -21.200  -0.142  0.00  0.00     0.011 C 
ENDBRANCH  15  18
ENDBRANCH   3  14
TORSDOF 4
ENDMDL
MODEL 5
REMARK VINA RESULT:    -6.282      1.765      2.526
REMARK INTER + INTRA:          -9.206
REMARK INTER:                  -7.475
REMARK INTRA:                  -1.731
REMARK CONF_INDEPENDENT:        1.193
REMARK UNBOUND:                -1.731
REMARK  4 active torsions:
REMARK  status: ('A' for Active; 'I' for Inactive)
REMARK    1  A    between atoms: C_5  and  C_6 
REMARK       I    between atoms: C_6  and  N_8 
REMARK    2  A    between atoms: N_8  and  N_9 
REMARK       I    between atoms: N_9  and  C_10 
REMARK    3  A    between atoms: C_12  and  C_10 
REMARK    4  A    between atoms: C_16  and  O_17 
ROOT
ATOM      1  C   UNL d   1      24.757 -17.105  -0.901  0.00  0.00     0.272 C 
ATOM      2  O   UNL d   1      25.515 -17.670  -0.105  0.00  0.00    -0.266 OA
ATOM      3  N   UNL d   1      23.384 -17.357  -0.919  0.00  0.00    -0.263 N 
ATOM      4  H   UNL d   1      22.728 -16.938  -1.573  0.00  0.00     0.190 HD
ENDROOT
BRANCH   1   5
ATOM      5  C   UNL d   1      25.346 -16.104  -1.878  0.00  0.00     0.066 A 
ATOM      6  C   UNL d   1      24.566 -15.119  -2.506  0.00  0.00     0.020 A 
ATOM      7  C   UNL d   1      25.142 -14.180  -3.387  0.00  0.00     0.008 A 
ATOM      8  C   UNL d   1      26.514 -14.193  -3.657  0.00  0.00    -0.059 A 
ATOM      9  C   UNL d   1      27.160 -13.190  -4.571  0.00  0.00     0.048 C 
ATOM     10  C   UNL d   1      27.299 -15.174  -3.048  0.00  0.00     0.044 A 
ATOM     11  C   UNL d   1      26.725 -16.117  -2.181  0.00  0.00     0.082 A 
BRANCH  11  12
ATOM     12  O   UNL d   1      27.613 -17.030  -1.671  0.00  0.00    -0.360 OA
ATOM     13  H   UNL d   1      27.464 -17.097  -0.704  0.00  0.00     0.217 HD
ENDBRANCH  11  12
ENDBRANCH   1   5
BRANCH   3  14
ATOM     14  N   UNL d   1      22.783 -18.244   0.050  0.00  0.00    -0.267 N 
ATOM     15  C   UNL d   1      21.443 -18.610  -0.113  0.00  0.00     0.240 C 
ATOM     16  O   UNL d   1      20.738 -18.092  -0.983  0.00  0.00    -0.271 OA
ATOM     17  H   UNL d   1      23.425 -18.716   0.682  0.00  0.00     0.190 HD
BRANCH  15  18
ATOM     18  C   UNL d   1      20.930 -19.826   0.605  0.00  0.00     0.083 A 
ATOM     19  C   UNL d   1      19.920 -19.756   1.730  0.00  0.00     0.019 A 
ATOM     20  C   UNL d   1      19.624 -20.619   0.531  0.00  0.00    -0.005 A 
ATOM     21  C   UNL d   1      18.409 -20.440  -0.311  0.00  0.00     0.011 C 
ENDBRANCH  15  18
ENDBRANCH   3  14
TORSDOF 4
ENDMDL
MODEL 6
REMARK VINA RESULT:    -6.023      4.241      6.038
REMARK INTER + INTRA:          -9.009
REMARK INTER:                  -7.216
REMARK INTRA:                  -1.793
REMARK CONF_INDEPENDENT:        1.193
REMARK UNBOUND:                -1.793
REMARK  4 active torsions:
REMARK  status: ('A' for Active; 'I' for Inactive)
REMARK    1  A    between atoms: C_5  and  C_6 
REMARK       I    between atoms: C_6  and  N_8 
REMARK    2  A    between atoms: N_8  and  N_9 
REMARK       I    between atoms: N_9  and  C_10 
REMARK    3  A    between atoms: C_12  and  C_10 
REMARK    4  A    between atoms: C_16  and  O_17 
ROOT
ATOM      1  C   UNL d   1      25.520 -14.583  -4.105  0.00  0.00     0.272 C 
ATOM      2  O   UNL d   1      24.379 -14.123  -4.216  0.00  0.00    -0.266 OA
ATOM      3  N   UNL d   1      25.823 -15.595  -3.191  0.00  0.00    -0.263 N 
ATOM      4  H   UNL d   1      26.751 -15.983  -3.045  0.00  0.00     0.190 HD
ENDROOT
BRANCH   1   5
ATOM      5  C   UNL d   1      26.616 -14.030  -4.997  0.00  0.00     0.066 A 
ATOM      6  C   UNL d   1      27.667 -14.827  -5.478  0.00  0.00     0.020 A 
ATOM      7  C   UNL d   1      28.658 -14.297  -6.331  0.00  0.00     0.008 A 
ATOM      8  C   UNL d   1      28.619 -12.960  -6.736  0.00  0.00    -0.059 A 
ATOM      9  C   UNL d   1      29.645 -12.373  -7.664  0.00  0.00     0.048 C 
ATOM     10  C   UNL d   1      27.585 -12.153  -6.255  0.00  0.00     0.044 A 
ATOM     11  C   UNL d   1      26.607 -12.675  -5.395  0.00  0.00     0.082 A 
BRANCH  11  12
ATOM     12  O   UNL d   1      25.665 -11.763  -4.991  0.00  0.00    -0.360 OA
ATOM     13  H   UNL d   1      24.780 -12.181  -5.068  0.00  0.00     0.217 HD
ENDBRANCH  11  12
ENDBRANCH   1   5
BRANCH   3  14
ATOM     14  N   UNL d   1      24.786 -16.196  -2.384  0.00  0.00    -0.267 N 
ATOM     15  C   UNL d   1      25.154 -17.082  -1.368  0.00  0.00     0.240 C 
ATOM     16  O   UNL d   1      26.322 -17.457  -1.234  0.00  0.00    -0.271 OA
ATOM     17  H   UNL d   1      23.860 -15.783  -2.466  0.00  0.00     0.190 HD
BRANCH  15  18
ATOM     18  C   UNL d   1      24.170 -17.379  -0.272  0.00  0.00     0.083 A 
ATOM     19  C   UNL d   1      22.836 -16.673  -0.145  0.00  0.00     0.019 A 
ATOM     20  C   UNL d   1      22.865 -18.178  -0.216  0.00  0.00    -0.005 A 
ATOM     21  C   UNL d   1      22.138 -18.950  -1.260  0.00  0.00     0.011 C 
ENDBRANCH  15  18
ENDBRANCH   3  14
TORSDOF 4
ENDMDL
MODEL 7
REMARK VINA RESULT:    -5.656      3.802      8.199
REMARK INTER + INTRA:          -8.542
REMARK INTER:                  -6.849
REMARK INTRA:                  -1.693
REMARK CONF_INDEPENDENT:        1.193
REMARK UNBOUND:                -1.693
REMARK  4 active torsions:
REMARK  status: ('A' for Active; 'I' for Inactive)
REMARK    1  A    between atoms: C_5  and  C_6 
REMARK       I    between atoms: C_6  and  N_8 
REMARK    2  A    between atoms: N_8  and  N_9 
REMARK       I    between atoms: N_9  and  C_10 
REMARK    3  A    between atoms: C_12  and  C_10 
REMARK    4  A    between atoms: C_16  and  O_17 
ROOT
ATOM      1  C   UNL d   1      26.189 -16.325  -1.637  0.00  0.00     0.272 C 
ATOM      2  O   UNL d   1      27.142 -16.172  -0.867  0.00  0.00    -0.266 OA
ATOM      3  N   UNL d   1      26.253 -15.934  -2.977  0.00  0.00    -0.263 N 
ATOM      4  H   UNL d   1      25.485 -16.015  -3.639  0.00  0.00     0.190 HD
ENDROOT
BRANCH   1   5
ATOM      5  C   UNL d   1      24.920 -16.964  -1.105  0.00  0.00     0.066 A 
ATOM      6  C   UNL d   1      23.654 -16.385  -1.287  0.00  0.00     0.020 A 
ATOM      7  C   UNL d   1      22.485 -17.014  -0.809  0.00  0.00     0.008 A 
ATOM      8  C   UNL d   1      22.548 -18.243  -0.147  0.00  0.00    -0.059 A 
ATOM      9  C   UNL d   1      21.319 -18.950   0.351  0.00  0.00     0.048 C 
ATOM     10  C   UNL d   1      23.803 -18.825   0.051  0.00  0.00     0.044 A 
ATOM     11  C   UNL d   1      24.967 -18.193  -0.412  0.00  0.00     0.082 A 
BRANCH  11  12
ATOM     12  O   UNL d   1      26.127 -18.871  -0.131  0.00  0.00    -0.360 OA
ATOM     13  H   UNL d   1      26.873 -18.236  -0.176  0.00  0.00     0.217 HD
ENDBRANCH  11  12
ENDBRANCH   1   5
BRANCH   3  14
ATOM     14  N   UNL d   1      27.472 -15.396  -3.533  0.00  0.00    -0.267 N 
ATOM     15  C   UNL d   1      27.548 -15.188  -4.913  0.00  0.00     0.240 C 
ATOM     16  O   UNL d   1      26.654 -15.574  -5.670  0.00  0.00    -0.271 OA
ATOM     17  H   UNL d   1      28.133 -15.006  -2.865  0.00  0.00     0.190 HD
BRANCH  15  18
ATOM     18  C   UNL d   1      28.602 -14.262  -5.451  0.00  0.00     0.083 A 
ATOM     19  C   UNL d   1      28.908 -14.127  -6.928  0.00  0.00     0.019 A 
ATOM     20  C   UNL d   1      28.551 -12.895  -6.137  0.00  0.00    -0.005 A 
ATOM     21  C   UNL d   1      27.405 -12.013  -6.493  0.00  0.00     0.011 C 
ENDBRANCH  15  18
ENDBRANCH   3  14
TORSDOF 4
ENDMDL
MODEL 8
REMARK VINA RESULT:    -5.599      3.436      4.983
REMARK INTER + INTRA:          -8.569
REMARK INTER:                  -6.793
REMARK INTRA:                  -1.777
REMARK CONF_INDEPENDENT:        1.193
REMARK UNBOUND:                -1.777
REMARK  4 active torsions:
REMARK  status: ('A' for Active; 'I' for Inactive)
REMARK    1  A    between atoms: C_5  and  C_6 
REMARK       I    between atoms: C_6  and  N_8 
REMARK    2  A    between atoms: N_8  and  N_9 
REMARK       I    between atoms: N_9  and  C_10 
REMARK    3  A    between atoms: C_12  and  C_10 
REMARK    4  A    between atoms: C_16  and  O_17 
ROOT
ATOM      1  C   UNL d   1      26.087 -15.447  -2.738  0.00  0.00     0.272 C 
ATOM      2  O   UNL d   1      27.013 -16.246  -2.574  0.00  0.00    -0.266 OA
ATOM      3  N   UNL d   1      24.821 -15.659  -2.187  0.00  0.00    -0.263 N 
ATOM      4  H   UNL d   1      24.022 -15.044  -2.319  0.00  0.00     0.190 HD
ENDROOT
BRANCH   1   5
ATOM      5  C   UNL d   1      26.342 -14.197  -3.559  0.00  0.00     0.066 A 
ATOM      6  C   UNL d   1      27.630 -13.663  -3.735  0.00  0.00     0.020 A 
ATOM      7  C   UNL d   1      27.847 -12.517  -4.529  0.00  0.00     0.008 A 
ATOM      8  C   UNL d   1      26.785 -11.879  -5.177  0.00  0.00    -0.059 A 
ATOM      9  C   UNL d   1      26.987 -10.673  -6.050  0.00  0.00     0.048 C 
ATOM     10  C   UNL d   1      25.498 -12.393  -5.002  0.00  0.00     0.044 A 
ATOM     11  C   UNL d   1      25.279 -13.525  -4.201  0.00  0.00     0.082 A 
BRANCH  11  12
ATOM     12  O   UNL d   1      23.964 -13.905  -4.107  0.00  0.00    -0.360 OA
ATOM     13  H   UNL d   1      23.646 -14.136  -5.005  0.00  0.00     0.217 HD
ENDBRANCH  11  12
ENDBRANCH   1   5
BRANCH   3  14
ATOM     14  N   UNL d   1      24.568 -16.799  -1.336  0.00  0.00    -0.267 N 
ATOM     15  C   UNL d   1      23.273 -17.002  -0.851  0.00  0.00     0.240 C 
ATOM     16  O   UNL d   1      22.383 -16.166  -1.028  0.00  0.00    -0.271 OA
ATOM     17  H   UNL d   1      25.301 -17.503  -1.303  0.00  0.00     0.190 HD
BRANCH  15  18
ATOM     18  C   UNL d   1      22.895 -18.363  -0.338  0.00  0.00     0.083 A 
ATOM     19  C   UNL d   1      21.937 -18.575   0.815  0.00  0.00     0.019 A 
ATOM     20  C   UNL d   1      21.655 -19.245  -0.505  0.00  0.00    -0.005 A 
ATOM     21  C   UNL d   1      20.391 -19.033  -1.262  0.00  0.00     0.011 C 
ENDBRANCH  15  18
ENDBRANCH   3  14
TORSDOF 4
ENDMDL
MODEL 9
REMARK VINA RESULT:    -5.453      5.424      8.717
REMARK INTER + INTRA:          -8.461
REMARK INTER:                  -6.647
REMARK INTRA:                  -1.814
REMARK CONF_INDEPENDENT:        1.193
REMARK UNBOUND:                -1.814
REMARK  4 active torsions:
REMARK  status: ('A' for Active; 'I' for Inactive)
REMARK    1  A    between atoms: C_5  and  C_6 
REMARK       I    between atoms: C_6  and  N_8 
REMARK    2  A    between atoms: N_8  and  N_9 
REMARK       I    between atoms: N_9  and  C_10 
REMARK    3  A    between atoms: C_12  and  C_10 
REMARK    4  A    between atoms: C_16  and  O_17 
ROOT
ATOM      1  C   UNL d   1      25.169 -14.107  -3.178  0.00  0.00     0.272 C 
ATOM      2  O   UNL d   1      24.620 -14.443  -4.232  0.00  0.00    -0.266 OA
ATOM      3  N   UNL d   1      25.561 -12.788  -2.938  0.00  0.00    -0.263 N 
ATOM      4  H   UNL d   1      26.040 -12.471  -2.099  0.00  0.00     0.190 HD
ENDROOT
BRANCH   1   5
ATOM      5  C   UNL d   1      25.413 -15.163  -2.117  0.00  0.00     0.066 A 
ATOM      6  C   UNL d   1      24.631 -16.326  -2.020  0.00  0.00     0.020 A 
ATOM      7  C   UNL d   1      24.897 -17.309  -1.044  0.00  0.00     0.008 A 
ATOM      8  C   UNL d   1      25.958 -17.163  -0.145  0.00  0.00    -0.059 A 
ATOM      9  C   UNL d   1      26.283 -18.204   0.888  0.00  0.00     0.048 C 
ATOM     10  C   UNL d   1      26.737 -16.006  -0.224  0.00  0.00     0.044 A 
ATOM     11  C   UNL d   1      26.465 -15.021  -1.186  0.00  0.00     0.082 A 
BRANCH  11  12
ATOM     12  O   UNL d   1      27.300 -13.934  -1.133  0.00  0.00    -0.360 OA
ATOM     13  H   UNL d   1      28.202 -14.250  -0.913  0.00  0.00     0.217 HD
ENDBRANCH  11  12
ENDBRANCH   1   5
BRANCH   3  14
ATOM     14  N   UNL d   1      25.271 -11.745  -3.895  0.00  0.00    -0.267 N 
ATOM     15  C   UNL d   1      25.905 -10.507  -3.753  0.00  0.00     0.240 C 
ATOM     16  O   UNL d   1      26.597 -10.250  -2.764  0.00  0.00    -0.271 OA
ATOM     17  H   UNL d   1      24.780 -12.035  -4.736  0.00  0.00     0.190 HD
BRANCH  15  18
ATOM     18  C   UNL d   1      25.956  -9.578  -4.932  0.00  0.00     0.083 A 
ATOM     19  C   UNL d   1      25.198  -9.833  -6.218  0.00  0.00     0.019 A 
ATOM     20  C   UNL d   1      24.990  -8.530  -5.490  0.00  0.00    -0.005 A 
ATOM     21  C   UNL d   1      23.654  -8.074  -5.020  0.00  0.00     0.011 C 
ENDBRANCH  15  18
ENDBRANCH   3  14
TORSDOF 4
ENDMDL
