MODEL 1
REMARK VINA RESULT:    -9.645      0.000      0.000
REMARK INTER + INTRA:         -13.855
REMARK INTER:                 -12.628
REMARK INTRA:                  -1.227
REMARK CONF_INDEPENDENT:        2.983
REMARK UNBOUND:                -1.227
REMARK  10 active torsions:
REMARK  status: ('A' for Active; 'I' for Inactive)
REMARK    1  A    between atoms: O_2  and  C_3 
REMARK    2  A    between atoms: C_6  and  C_7 
REMARK    3  A    between atoms: C_7  and  S_8 
REMARK    4  A    between atoms: S_8  and  C_9 
REMARK    5  A    between atoms: N_17  and  C_18 
REMARK    6  A    between atoms: C_18  and  C_19 
REMARK       I    between atoms: C_19  and  N_21 
REMARK    7  A    between atoms: N_21  and  C_22 
REMARK    8  A    between atoms: C_22  and  C_23 
REMARK    9  A    between atoms: C_26  and  O_27 
REMARK   10  A    between atoms: C_29  and  O_30 
ROOT
ATOM      1  C   UNL d   1      25.699 -17.680  -0.431  0.00  0.00     0.082 C 
ATOM      2  N   UNL d   1      26.822 -17.883   0.251  0.00  0.00    -0.360 N 
ATOM      3  C   UNL d   1      27.939 -17.162   0.160  0.00  0.00     0.091 C 
ATOM      4  C   UNL d   1      28.092 -16.204  -0.828  0.00  0.00     0.047 C 
ATOM      5  C   UNL d   1      27.002 -16.044  -1.686  0.00  0.00     0.049 A 
ATOM      6  C   UNL d   1      25.803 -16.754  -1.468  0.00  0.00     0.026 A 
ATOM      7  C   UNL d   1      24.868 -16.285  -2.409  0.00  0.00     0.034 A 
ATOM      8  C   UNL d   1      25.513 -15.400  -3.215  0.00  0.00     0.093 A 
ATOM      9  N   UNL d   1      26.799 -15.219  -2.789  0.00  0.00    -0.347 N 
ATOM     10  H   UNL d   1      26.759 -18.615   0.958  0.00  0.00     0.166 HD
ENDROOT
BRANCH   9  11
ATOM     11  C   UNL d   1      27.794 -14.318  -3.398  0.00  0.00     0.231 C 
BRANCH  11  12
ATOM     12  C   UNL d   1      28.413 -14.823  -4.698  0.00  0.00     0.236 C 
ATOM     13  O   UNL d   1      27.788 -15.201  -5.696  0.00  0.00    -0.272 OA
ATOM     14  N   UNL d   1      29.773 -14.858  -4.773  0.00  0.00    -0.355 N 
ATOM     15  H   UNL d   1      30.366 -14.626  -3.990  0.00  0.00     0.162 HD
BRANCH  14  16
ATOM     16  C   UNL d   1      30.337 -15.326  -6.022  0.00  0.00     0.161 C 
BRANCH  16  17
ATOM     17  C   UNL d   1      30.430 -16.810  -6.127  0.00  0.00    -0.038 A 
ATOM     18  C   UNL d   1      30.243 -17.639  -5.021  0.00  0.00     0.012 A 
ATOM     19  C   UNL d   1      30.545 -18.988  -5.104  0.00  0.00     0.040 A 
ATOM     20  C   UNL d   1      30.977 -19.552  -6.310  0.00  0.00     0.101 A 
ATOM     21  C   UNL d   1      31.171 -18.726  -7.432  0.00  0.00     0.102 A 
ATOM     22  C   UNL d   1      30.885 -17.364  -7.331  0.00  0.00     0.048 A 
BRANCH  20  23
ATOM     23  O   UNL d   1      31.167 -20.907  -6.220  0.00  0.00    -0.353 OA
ATOM     24  C   UNL d   1      31.100 -21.485  -4.923  0.00  0.00     0.210 C 
ENDBRANCH  20  23
BRANCH  21  25
ATOM     25  O   UNL d   1      31.675 -19.290  -8.568  0.00  0.00    -0.353 OA
ATOM     26  C   UNL d   1      30.781 -19.811  -9.534  0.00  0.00     0.210 C 
ENDBRANCH  21  25
ENDBRANCH  16  17
ENDBRANCH  14  16
ENDBRANCH  11  12
ENDBRANCH   9  11
BRANCH   1  27
ATOM     27  S   UNL d   1      24.203 -18.120   0.344  0.00  0.00    -0.107 SA
BRANCH  27  28
ATOM     28  C   UNL d   1      22.898 -18.164  -0.950  0.00  0.00     0.119 C 
BRANCH  28  29
ATOM     29  C   UNL d   1      21.585 -18.738  -0.425  0.00  0.00    -0.048 A 
ATOM     30  C   UNL d   1      21.406 -18.951   0.951  0.00  0.00     0.011 A 
ATOM     31  C   UNL d   1      20.241 -19.573   1.438  0.00  0.00     0.037 A 
ATOM     32  C   UNL d   1      19.204 -19.931   0.572  0.00  0.00     0.068 A 
ATOM     33  C   UNL d   1      19.359 -19.699  -0.785  0.00  0.00     0.037 A 
ATOM     34  C   UNL d   1      20.528 -19.119  -1.270  0.00  0.00     0.011 A 
BRANCH  32  35
ATOM     35  O   UNL d   1      18.057 -20.405   1.142  0.00  0.00    -0.356 OA
ATOM     36  C   UNL d   1      17.950 -21.824   1.259  0.00  0.00     0.210 C 
ENDBRANCH  32  35
ENDBRANCH  28  29
ENDBRANCH  27  28
ENDBRANCH   1  27
TORSDOF 10
ENDMDL
MODEL 2
REMARK VINA RESULT:    -8.880      0.850      1.742
REMARK INTER + INTRA:         -13.143
REMARK INTER:                 -11.863
REMARK INTRA:                  -1.279
REMARK CONF_INDEPENDENT:        2.983
REMARK UNBOUND:                -1.279
REMARK  10 active torsions:
REMARK  status: ('A' for Active; 'I' for Inactive)
REMARK    1  A    between atoms: O_2  and  C_3 
REMARK    2  A    between atoms: C_6  and  C_7 
REMARK    3  A    between atoms: C_7  and  S_8 
REMARK    4  A    between atoms: S_8  and  C_9 
REMARK    5  A    between atoms: N_17  and  C_18 
REMARK    6  A    between atoms: C_18  and  C_19 
REMARK       I    between atoms: C_19  and  N_21 
REMARK    7  A    between atoms: N_21  and  C_22 
REMARK    8  A    between atoms: C_22  and  C_23 
REMARK    9  A    between atoms: C_26  and  O_27 
REMARK   10  A    between atoms: C_29  and  O_30 
ROOT
ATOM      1  C   UNL d   1      25.678 -17.750  -0.605  0.00  0.00     0.082 C 
ATOM      2  N   UNL d   1      26.842 -18.066  -0.045  0.00  0.00    -0.360 N 
ATOM      3  C   UNL d   1      27.985 -17.394  -0.174  0.00  0.00     0.091 C 
ATOM      4  C   UNL d   1      28.107 -16.360  -1.087  0.00  0.00     0.047 C 
ATOM      5  C   UNL d   1      26.959 -16.074  -1.829  0.00  0.00     0.049 A 
ATOM      6  C   UNL d   1      25.745 -16.742  -1.565  0.00  0.00     0.026 A 
ATOM      7  C   UNL d   1      24.761 -16.147  -2.377  0.00  0.00     0.034 A 
ATOM      8  C   UNL d   1      25.383 -15.226  -3.159  0.00  0.00     0.093 A 
ATOM      9  N   UNL d   1      26.709 -15.145  -2.837  0.00  0.00    -0.347 N 
ATOM     10  H   UNL d   1      26.798 -18.853   0.600  0.00  0.00     0.166 HD
ENDROOT
BRANCH   9  11
ATOM     11  C   UNL d   1      27.697 -14.243  -3.454  0.00  0.00     0.231 C 
BRANCH  11  12
ATOM     12  C   UNL d   1      28.244 -14.707  -4.801  0.00  0.00     0.236 C 
ATOM     13  O   UNL d   1      27.617 -15.346  -5.652  0.00  0.00    -0.272 OA
ATOM     14  N   UNL d   1      29.535 -14.386  -5.097  0.00  0.00    -0.355 N 
ATOM     15  H   UNL d   1      30.143 -13.918  -4.441  0.00  0.00     0.162 HD
BRANCH  14  16
ATOM     16  C   UNL d   1      30.026 -14.823  -6.387  0.00  0.00     0.161 C 
BRANCH  16  17
ATOM     17  C   UNL d   1      30.592 -16.203  -6.385  0.00  0.00    -0.038 A 
ATOM     18  C   UNL d   1      31.091 -16.795  -7.545  0.00  0.00     0.012 A 
ATOM     19  C   UNL d   1      31.409 -18.143  -7.555  0.00  0.00     0.040 A 
ATOM     20  C   UNL d   1      31.298 -18.914  -6.393  0.00  0.00     0.101 A 
ATOM     21  C   UNL d   1      30.795 -18.328  -5.217  0.00  0.00     0.102 A 
ATOM     22  C   UNL d   1      30.457 -16.974  -5.223  0.00  0.00     0.048 A 
BRANCH  20  23
ATOM     23  O   UNL d   1      31.715 -20.207  -6.576  0.00  0.00    -0.353 OA
ATOM     24  C   UNL d   1      31.171 -20.911  -7.685  0.00  0.00     0.210 C 
ENDBRANCH  20  23
BRANCH  21  25
ATOM     25  O   UNL d   1      30.618 -19.125  -4.124  0.00  0.00    -0.353 OA
ATOM     26  C   UNL d   1      31.458 -18.947  -2.998  0.00  0.00     0.210 C 
ENDBRANCH  21  25
ENDBRANCH  16  17
ENDBRANCH  14  16
ENDBRANCH  11  12
ENDBRANCH   9  11
BRANCH   1  27
ATOM     27  S   UNL d   1      24.231 -18.185   0.260  0.00  0.00    -0.107 SA
BRANCH  27  28
ATOM     28  C   UNL d   1      22.813 -17.997  -0.896  0.00  0.00     0.119 C 
BRANCH  28  29
ATOM     29  C   UNL d   1      21.561 -18.711  -0.394  0.00  0.00    -0.048 A 
ATOM     30  C   UNL d   1      21.385 -18.950   0.978  0.00  0.00     0.011 A 
ATOM     31  C   UNL d   1      20.287 -19.696   1.444  0.00  0.00     0.037 A 
ATOM     32  C   UNL d   1      19.308 -20.159   0.559  0.00  0.00     0.068 A 
ATOM     33  C   UNL d   1      19.458 -19.904  -0.794  0.00  0.00     0.037 A 
ATOM     34  C   UNL d   1      20.565 -19.198  -1.258  0.00  0.00     0.011 A 
BRANCH  32  35
ATOM     35  O   UNL d   1      18.209 -20.757   1.110  0.00  0.00    -0.356 OA
ATOM     36  C   UNL d   1      17.432 -21.574   0.235  0.00  0.00     0.210 C 
ENDBRANCH  32  35
ENDBRANCH  28  29
ENDBRANCH  27  28
ENDBRANCH   1  27
TORSDOF 10
ENDMDL
MODEL 3
REMARK VINA RESULT:    -8.810      1.585      2.240
REMARK INTER + INTRA:         -13.593
REMARK INTER:                 -11.793
REMARK INTRA:                  -1.800
REMARK CONF_INDEPENDENT:        2.983
REMARK UNBOUND:                -1.800
REMARK  10 active torsions:
REMARK  status: ('A' for Active; 'I' for Inactive)
REMARK    1  A    between atoms: O_2  and  C_3 
REMARK    2  A    between atoms: C_6  and  C_7 
REMARK    3  A    between atoms: C_7  and  S_8 
REMARK    4  A    between atoms: S_8  and  C_9 
REMARK    5  A    between atoms: N_17  and  C_18 
REMARK    6  A    between atoms: C_18  and  C_19 
REMARK       I    between atoms: C_19  and  N_21 
REMARK    7  A    between atoms: N_21  and  C_22 
REMARK    8  A    between atoms: C_22  and  C_23 
REMARK    9  A    between atoms: C_26  and  O_27 
REMARK   10  A    between atoms: C_29  and  O_30 
ROOT
ATOM      1  C   UNL d   1      27.580 -16.568  -0.925  0.00  0.00     0.082 C 
ATOM      2  N   UNL d   1      28.872 -16.882  -0.911  0.00  0.00    -0.360 N 
ATOM      3  C   UNL d   1      29.825 -16.327  -1.659  0.00  0.00     0.091 C 
ATOM      4  C   UNL d   1      29.509 -15.459  -2.691  0.00  0.00     0.047 C 
ATOM      5  C   UNL d   1      28.147 -15.203  -2.866  0.00  0.00     0.049 A 
ATOM      6  C   UNL d   1      27.193 -15.727  -1.968  0.00  0.00     0.026 A 
ATOM      7  C   UNL d   1      25.944 -15.191  -2.332  0.00  0.00     0.034 A 
ATOM      8  C   UNL d   1      26.133 -14.452  -3.458  0.00  0.00     0.093 A 
ATOM      9  N   UNL d   1      27.457 -14.424  -3.793  0.00  0.00    -0.347 N 
ATOM     10  H   UNL d   1      29.133 -17.554  -0.191  0.00  0.00     0.166 HD
ENDROOT
BRANCH   9  11
ATOM     11  C   UNL d   1      28.047 -13.706  -4.937  0.00  0.00     0.231 C 
BRANCH  11  12
ATOM     12  C   UNL d   1      28.706 -14.595  -5.988  0.00  0.00     0.236 C 
ATOM     13  O   UNL d   1      28.120 -15.200  -6.892  0.00  0.00    -0.272 OA
ATOM     14  N   UNL d   1      30.061 -14.733  -5.932  0.00  0.00    -0.355 N 
ATOM     15  H   UNL d   1      30.619 -14.325  -5.196  0.00  0.00     0.162 HD
BRANCH  14  16
ATOM     16  C   UNL d   1      30.665 -15.567  -6.949  0.00  0.00     0.161 C 
BRANCH  16  17
ATOM     17  C   UNL d   1      30.570 -17.029  -6.668  0.00  0.00    -0.038 A 
ATOM     18  C   UNL d   1      30.278 -17.516  -5.395  0.00  0.00     0.012 A 
ATOM     19  C   UNL d   1      30.407 -18.868  -5.121  0.00  0.00     0.040 A 
ATOM     20  C   UNL d   1      30.767 -19.770  -6.127  0.00  0.00     0.101 A 
ATOM     21  C   UNL d   1      31.065 -19.291  -7.415  0.00  0.00     0.102 A 
ATOM     22  C   UNL d   1      30.953 -17.924  -7.675  0.00  0.00     0.048 A 
BRANCH  20  23
ATOM     23  O   UNL d   1      30.783 -21.070  -5.688  0.00  0.00    -0.353 OA
ATOM     24  C   UNL d   1      30.901 -21.277  -4.287  0.00  0.00     0.210 C 
ENDBRANCH  20  23
BRANCH  21  25
ATOM     25  O   UNL d   1      31.496 -20.185  -8.352  0.00  0.00    -0.353 OA
ATOM     26  C   UNL d   1      31.445 -19.827  -9.721  0.00  0.00     0.210 C 
ENDBRANCH  21  25
ENDBRANCH  16  17
ENDBRANCH  14  16
ENDBRANCH  11  12
ENDBRANCH   9  11
BRANCH   1  27
ATOM     27  S   UNL d   1      26.697 -16.752   0.563  0.00  0.00    -0.107 SA
BRANCH  27  28
ATOM     28  C   UNL d   1      25.817 -18.365   0.493  0.00  0.00     0.119 C 
BRANCH  28  29
ATOM     29  C   UNL d   1      24.363 -18.210   0.054  0.00  0.00    -0.048 A 
ATOM     30  C   UNL d   1      23.580 -19.344  -0.214  0.00  0.00     0.011 A 
ATOM     31  C   UNL d   1      22.272 -19.213  -0.716  0.00  0.00     0.037 A 
ATOM     32  C   UNL d   1      21.696 -17.952  -0.895  0.00  0.00     0.068 A 
ATOM     33  C   UNL d   1      22.451 -16.827  -0.606  0.00  0.00     0.037 A 
ATOM     34  C   UNL d   1      23.758 -16.957  -0.146  0.00  0.00     0.011 A 
BRANCH  32  35
ATOM     35  O   UNL d   1      20.379 -17.919  -1.258  0.00  0.00    -0.356 OA
ATOM     36  C   UNL d   1      19.545 -18.933  -0.698  0.00  0.00     0.210 C 
ENDBRANCH  32  35
ENDBRANCH  28  29
ENDBRANCH  27  28
ENDBRANCH   1  27
TORSDOF 10
ENDMDL
MODEL 4
REMARK VINA RESULT:    -8.349      5.675      9.034
REMARK INTER + INTRA:         -13.020
REMARK INTER:                 -11.332
REMARK INTRA:                  -1.688
REMARK CONF_INDEPENDENT:        2.983
REMARK UNBOUND:                -1.688
REMARK  10 active torsions:
REMARK  status: ('A' for Active; 'I' for Inactive)
REMARK    1  A    between atoms: O_2  and  C_3 
REMARK    2  A    between atoms: C_6  and  C_7 
REMARK    3  A    between atoms: C_7  and  S_8 
REMARK    4  A    between atoms: S_8  and  C_9 
REMARK    5  A    between atoms: N_17  and  C_18 
REMARK    6  A    between atoms: C_18  and  C_19 
REMARK       I    between atoms: C_19  and  N_21 
REMARK    7  A    between atoms: N_21  and  C_22 
REMARK    8  A    between atoms: C_22  and  C_23 
REMARK    9  A    between atoms: C_26  and  O_27 
REMARK   10  A    between atoms: C_29  and  O_30 
ROOT
ATOM      1  C   UNL d   1      26.266 -15.096  -2.502  0.00  0.00     0.082 C 
ATOM      2  N   UNL d   1      25.621 -15.423  -3.618  0.00  0.00    -0.360 N 
ATOM      3  C   UNL d   1      25.358 -14.611  -4.642  0.00  0.00     0.091 C 
ATOM      4  C   UNL d   1      25.588 -13.248  -4.550  0.00  0.00     0.047 C 
ATOM      5  C   UNL d   1      26.124 -12.808  -3.337  0.00  0.00     0.049 A 
ATOM      6  C   UNL d   1      26.490 -13.730  -2.334  0.00  0.00     0.026 A 
ATOM      7  C   UNL d   1      27.109 -12.997  -1.305  0.00  0.00     0.034 A 
ATOM      8  C   UNL d   1      27.030 -11.681  -1.640  0.00  0.00     0.093 A 
ATOM      9  N   UNL d   1      26.457 -11.538  -2.872  0.00  0.00    -0.347 N 
ATOM     10  H   UNL d   1      25.395 -16.413  -3.699  0.00  0.00     0.166 HD
ENDROOT
BRANCH   9  11
ATOM     11  C   UNL d   1      26.225 -10.265  -3.577  0.00  0.00     0.231 C 
BRANCH  11  12
ATOM     12  C   UNL d   1      26.577  -9.011  -2.781  0.00  0.00     0.236 C 
ATOM     13  O   UNL d   1      27.707  -8.698  -2.391  0.00  0.00    -0.272 OA
ATOM     14  N   UNL d   1      25.560  -8.158  -2.474  0.00  0.00    -0.355 N 
ATOM     15  H   UNL d   1      24.596  -8.358  -2.697  0.00  0.00     0.162 HD
BRANCH  14  16
ATOM     16  C   UNL d   1      25.921  -6.968  -1.732  0.00  0.00     0.161 C 
BRANCH  16  17
ATOM     17  C   UNL d   1      26.012  -7.177  -0.258  0.00  0.00    -0.038 A 
ATOM     18  C   UNL d   1      26.534  -6.202   0.592  0.00  0.00     0.012 A 
ATOM     19  C   UNL d   1      26.802  -6.506   1.917  0.00  0.00     0.040 A 
ATOM     20  C   UNL d   1      26.496  -7.767   2.437  0.00  0.00     0.101 A 
ATOM     21  C   UNL d   1      25.971  -8.759   1.590  0.00  0.00     0.102 A 
ATOM     22  C   UNL d   1      25.725  -8.450   0.251  0.00  0.00     0.048 A 
BRANCH  20  23
ATOM     23  O   UNL d   1      26.771  -7.866   3.777  0.00  0.00    -0.353 OA
ATOM     24  C   UNL d   1      27.975  -8.529   4.142  0.00  0.00     0.210 C 
ENDBRANCH  20  23
BRANCH  21  25
ATOM     25  O   UNL d   1      25.762 -10.005   2.106  0.00  0.00    -0.353 OA
ATOM     26  C   UNL d   1      26.655 -11.050   1.766  0.00  0.00     0.210 C 
ENDBRANCH  21  25
ENDBRANCH  16  17
ENDBRANCH  14  16
ENDBRANCH  11  12
ENDBRANCH   9  11
BRANCH   1  27
ATOM     27  S   UNL d   1      27.193 -16.345  -1.721  0.00  0.00    -0.107 SA
BRANCH  27  28
ATOM     28  C   UNL d   1      26.345 -16.763  -0.143  0.00  0.00     0.119 C 
BRANCH  28  29
ATOM     29  C   UNL d   1      24.892 -17.175  -0.361  0.00  0.00    -0.048 A 
ATOM     30  C   UNL d   1      23.937 -16.222  -0.748  0.00  0.00     0.011 A 
ATOM     31  C   UNL d   1      22.577 -16.567  -0.853  0.00  0.00     0.037 A 
ATOM     32  C   UNL d   1      22.153 -17.883  -0.641  0.00  0.00     0.068 A 
ATOM     33  C   UNL d   1      23.092 -18.837  -0.287  0.00  0.00     0.037 A 
ATOM     34  C   UNL d   1      24.432 -18.485  -0.146  0.00  0.00     0.011 A 
BRANCH  32  35
ATOM     35  O   UNL d   1      20.839 -18.158  -0.895  0.00  0.00    -0.356 OA
ATOM     36  C   UNL d   1      20.423 -19.505  -0.676  0.00  0.00     0.210 C 
ENDBRANCH  32  35
ENDBRANCH  28  29
ENDBRANCH  27  28
ENDBRANCH   1  27
TORSDOF 10
ENDMDL
MODEL 5
REMARK VINA RESULT:    -8.150      2.022      3.176
REMARK INTER + INTRA:         -13.108
REMARK INTER:                 -11.133
REMARK INTRA:                  -1.975
REMARK CONF_INDEPENDENT:        2.983
REMARK UNBOUND:                -1.975
REMARK  10 active torsions:
REMARK  status: ('A' for Active; 'I' for Inactive)
REMARK    1  A    between atoms: O_2  and  C_3 
REMARK    2  A    between atoms: C_6  and  C_7 
REMARK    3  A    between atoms: C_7  and  S_8 
REMARK    4  A    between atoms: S_8  and  C_9 
REMARK    5  A    between atoms: N_17  and  C_18 
REMARK    6  A    between atoms: C_18  and  C_19 
REMARK       I    between atoms: C_19  and  N_21 
REMARK    7  A    between atoms: N_21  and  C_22 
REMARK    8  A    between atoms: C_22  and  C_23 
REMARK    9  A    between atoms: C_26  and  O_27 
REMARK   10  A    between atoms: C_29  and  O_30 
ROOT
ATOM      1  C   UNL d   1      27.735 -16.095  -1.556  0.00  0.00     0.082 C 
ATOM      2  N   UNL d   1      29.061 -16.113  -1.457  0.00  0.00    -0.360 N 
ATOM      3  C   UNL d   1      29.919 -15.499  -2.270  0.00  0.00     0.091 C 
ATOM      4  C   UNL d   1      29.491 -14.910  -3.448  0.00  0.00     0.047 C 
ATOM      5  C   UNL d   1      28.119 -14.990  -3.697  0.00  0.00     0.049 A 
ATOM      6  C   UNL d   1      27.244 -15.549  -2.742  0.00  0.00     0.026 A 
ATOM      7  C   UNL d   1      25.935 -15.369  -3.224  0.00  0.00     0.034 A 
ATOM      8  C   UNL d   1      26.032 -14.809  -4.459  0.00  0.00     0.093 A 
ATOM      9  N   UNL d   1      27.338 -14.550  -4.764  0.00  0.00    -0.347 N 
ATOM     10  H   UNL d   1      29.414 -16.580  -0.623  0.00  0.00     0.166 HD
ENDROOT
BRANCH   9  11
ATOM     11  C   UNL d   1      27.832 -13.927  -6.004  0.00  0.00     0.231 C 
BRANCH  11  12
ATOM     12  C   UNL d   1      29.083 -14.568  -6.597  0.00  0.00     0.236 C 
ATOM     13  O   UNL d   1      29.947 -13.985  -7.262  0.00  0.00    -0.272 OA
ATOM     14  N   UNL d   1      29.272 -15.899  -6.373  0.00  0.00    -0.355 N 
ATOM     15  H   UNL d   1      28.592 -16.471  -5.893  0.00  0.00     0.162 HD
BRANCH  14  16
ATOM     16  C   UNL d   1      30.473 -16.482  -6.932  0.00  0.00     0.161 C 
BRANCH  16  17
ATOM     17  C   UNL d   1      30.870 -17.774  -6.301  0.00  0.00    -0.038 A 
ATOM     18  C   UNL d   1      31.043 -18.936  -7.052  0.00  0.00     0.012 A 
ATOM     19  C   UNL d   1      31.200 -20.157  -6.416  0.00  0.00     0.040 A 
ATOM     20  C   UNL d   1      31.254 -20.236  -5.020  0.00  0.00     0.101 A 
ATOM     21  C   UNL d   1      31.081 -19.070  -4.252  0.00  0.00     0.102 A 
ATOM     22  C   UNL d   1      30.901 -17.848  -4.902  0.00  0.00     0.048 A 
BRANCH  20  23
ATOM     23  O   UNL d   1      31.477 -21.512  -4.572  0.00  0.00    -0.353 OA
ATOM     24  C   UNL d   1      30.405 -22.156  -3.895  0.00  0.00     0.210 C 
ENDBRANCH  20  23
BRANCH  21  25
ATOM     25  O   UNL d   1      31.053 -19.191  -2.893  0.00  0.00    -0.353 OA
ATOM     26  C   UNL d   1      32.260 -19.452  -2.200  0.00  0.00     0.210 C 
ENDBRANCH  21  25
ENDBRANCH  16  17
ENDBRANCH  14  16
ENDBRANCH  11  12
ENDBRANCH   9  11
BRANCH   1  27
ATOM     27  S   UNL d   1      26.822 -16.211  -0.079  0.00  0.00    -0.107 SA
BRANCH  27  28
ATOM     28  C   UNL d   1      26.049 -17.879  -0.032  0.00  0.00     0.119 C 
BRANCH  28  29
ATOM     29  C   UNL d   1      24.545 -17.825  -0.287  0.00  0.00    -0.048 A 
ATOM     30  C   UNL d   1      23.779 -19.001  -0.258  0.00  0.00     0.011 A 
ATOM     31  C   UNL d   1      22.412 -18.978  -0.591  0.00  0.00     0.037 A 
ATOM     32  C   UNL d   1      21.768 -17.774  -0.892  0.00  0.00     0.068 A 
ATOM     33  C   UNL d   1      22.508 -16.604  -0.895  0.00  0.00     0.037 A 
ATOM     34  C   UNL d   1      23.870 -16.633  -0.602  0.00  0.00     0.011 A 
BRANCH  32  35
ATOM     35  O   UNL d   1      20.413 -17.825  -1.071  0.00  0.00    -0.356 OA
ATOM     36  C   UNL d   1      19.794 -19.090  -0.843  0.00  0.00     0.210 C 
ENDBRANCH  32  35
ENDBRANCH  28  29
ENDBRANCH  27  28
ENDBRANCH   1  27
TORSDOF 10
ENDMDL
MODEL 6
REMARK VINA RESULT:    -8.046      2.924      4.856
REMARK INTER + INTRA:         -12.932
REMARK INTER:                 -11.029
REMARK INTRA:                  -1.902
REMARK CONF_INDEPENDENT:        2.983
REMARK UNBOUND:                -1.902
REMARK  10 active torsions:
REMARK  status: ('A' for Active; 'I' for Inactive)
REMARK    1  A    between atoms: O_2  and  C_3 
REMARK    2  A    between atoms: C_6  and  C_7 
REMARK    3  A    between atoms: C_7  and  S_8 
REMARK    4  A    between atoms: S_8  and  C_9 
REMARK    5  A    between atoms: N_17  and  C_18 
REMARK    6  A    between atoms: C_18  and  C_19 
REMARK       I    between atoms: C_19  and  N_21 
REMARK    7  A    between atoms: N_21  and  C_22 
REMARK    8  A    between atoms: C_22  and  C_23 
REMARK    9  A    between atoms: C_26  and  O_27 
REMARK   10  A    between atoms: C_29  and  O_30 
ROOT
ATOM      1  C   UNL d   1      26.188 -15.631  -2.277  0.00  0.00     0.082 C 
ATOM      2  N   UNL d   1      25.704 -15.935  -3.477  0.00  0.00    -0.360 N 
ATOM      3  C   UNL d   1      25.531 -15.089  -4.493  0.00  0.00     0.091 C 
ATOM      4  C   UNL d   1      25.680 -13.723  -4.318  0.00  0.00     0.047 C 
ATOM      5  C   UNL d   1      26.037 -13.316  -3.031  0.00  0.00     0.049 A 
ATOM      6  C   UNL d   1      26.321 -14.266  -2.027  0.00  0.00     0.026 A 
ATOM      7  C   UNL d   1      26.770 -13.554  -0.899  0.00  0.00     0.034 A 
ATOM      8  C   UNL d   1      26.667 -12.229  -1.189  0.00  0.00     0.093 A 
ATOM      9  N   UNL d   1      26.246 -12.055  -2.477  0.00  0.00    -0.347 N 
ATOM     10  H   UNL d   1      25.539 -16.929  -3.625  0.00  0.00     0.166 HD
ENDROOT
BRANCH   9  11
ATOM     11  C   UNL d   1      26.040 -10.762  -3.154  0.00  0.00     0.231 C 
BRANCH  11  12
ATOM     12  C   UNL d   1      26.756 -10.612  -4.493  0.00  0.00     0.236 C 
ATOM     13  O   UNL d   1      27.886 -10.139  -4.658  0.00  0.00    -0.272 OA
ATOM     14  N   UNL d   1      26.098 -11.040  -5.607  0.00  0.00    -0.355 N 
ATOM     15  H   UNL d   1      25.150 -11.386  -5.579  0.00  0.00     0.162 HD
BRANCH  14  16
ATOM     16  C   UNL d   1      26.803 -10.903  -6.864  0.00  0.00     0.161 C 
BRANCH  16  17
ATOM     17  C   UNL d   1      28.003 -11.780  -6.985  0.00  0.00    -0.038 A 
ATOM     18  C   UNL d   1      29.159 -11.358  -7.640  0.00  0.00     0.012 A 
ATOM     19  C   UNL d   1      30.169 -12.265  -7.921  0.00  0.00     0.040 A 
ATOM     20  C   UNL d   1      30.075 -13.595  -7.498  0.00  0.00     0.101 A 
ATOM     21  C   UNL d   1      28.913 -14.032  -6.837  0.00  0.00     0.102 A 
ATOM     22  C   UNL d   1      27.892 -13.116  -6.579  0.00  0.00     0.048 A 
BRANCH  20  23
ATOM     23  O   UNL d   1      31.191 -14.328  -7.809  0.00  0.00    -0.353 OA
ATOM     24  C   UNL d   1      31.999 -13.852  -8.879  0.00  0.00     0.210 C 
ENDBRANCH  20  23
BRANCH  21  25
ATOM     25  O   UNL d   1      28.814 -15.354  -6.513  0.00  0.00    -0.353 OA
ATOM     26  C   UNL d   1      29.971 -16.046  -6.080  0.00  0.00     0.210 C 
ENDBRANCH  21  25
ENDBRANCH  16  17
ENDBRANCH  14  16
ENDBRANCH  11  12
ENDBRANCH   9  11
BRANCH   1  27
ATOM     27  S   UNL d   1      27.071 -16.872  -1.435  0.00  0.00    -0.107 SA
BRANCH  27  28
ATOM     28  C   UNL d   1      26.113 -17.314   0.072  0.00  0.00     0.119 C 
BRANCH  28  29
ATOM     29  C   UNL d   1      24.624 -17.480  -0.221  0.00  0.00    -0.048 A 
ATOM     30  C   UNL d   1      24.052 -18.761  -0.270  0.00  0.00     0.011 A 
ATOM     31  C   UNL d   1      22.705 -18.934  -0.639  0.00  0.00     0.037 A 
ATOM     32  C   UNL d   1      21.886 -17.831  -0.898  0.00  0.00     0.068 A 
ATOM     33  C   UNL d   1      22.434 -16.561  -0.825  0.00  0.00     0.037 A 
ATOM     34  C   UNL d   1      23.777 -16.394  -0.497  0.00  0.00     0.011 A 
BRANCH  32  35
ATOM     35  O   UNL d   1      20.560 -18.082  -1.117  0.00  0.00    -0.356 OA
ATOM     36  C   UNL d   1      20.025 -19.242  -0.481  0.00  0.00     0.210 C 
ENDBRANCH  32  35
ENDBRANCH  28  29
ENDBRANCH  27  28
ENDBRANCH   1  27
TORSDOF 10
ENDMDL
MODEL 7
REMARK VINA RESULT:    -7.831      3.162      6.429
REMARK INTER + INTRA:         -12.936
REMARK INTER:                 -10.814
REMARK INTRA:                  -2.122
REMARK CONF_INDEPENDENT:        2.983
REMARK UNBOUND:                -2.122
REMARK  10 active torsions:
REMARK  status: ('A' for Active; 'I' for Inactive)
REMARK    1  A    between atoms: O_2  and  C_3 
REMARK    2  A    between atoms: C_6  and  C_7 
REMARK    3  A    between atoms: C_7  and  S_8 
REMARK    4  A    between atoms: S_8  and  C_9 
REMARK    5  A    between atoms: N_17  and  C_18 
REMARK    6  A    between atoms: C_18  and  C_19 
REMARK       I    between atoms: C_19  and  N_21 
REMARK    7  A    between atoms: N_21  and  C_22 
REMARK    8  A    between atoms: C_22  and  C_23 
REMARK    9  A    between atoms: C_26  and  O_27 
REMARK   10  A    between atoms: C_29  and  O_30 
ROOT
ATOM      1  C   UNL d   1      26.824 -15.601  -1.282  0.00  0.00     0.082 C 
ATOM      2  N   UNL d   1      25.771 -15.033  -1.863  0.00  0.00    -0.360 N 
ATOM      3  C   UNL d   1      25.597 -14.853  -3.172  0.00  0.00     0.091 C 
ATOM      4  C   UNL d   1      26.624 -15.092  -4.069  0.00  0.00     0.047 C 
ATOM      5  C   UNL d   1      27.820 -15.545  -3.508  0.00  0.00     0.049 A 
ATOM      6  C   UNL d   1      27.908 -15.829  -2.129  0.00  0.00     0.026 A 
ATOM      7  C   UNL d   1      29.181 -16.381  -1.900  0.00  0.00     0.034 A 
ATOM      8  C   UNL d   1      29.858 -16.341  -3.079  0.00  0.00     0.093 A 
ATOM      9  N   UNL d   1      29.054 -15.859  -4.073  0.00  0.00    -0.347 N 
ATOM     10  H   UNL d   1      25.012 -14.802  -1.224  0.00  0.00     0.166 HD
ENDROOT
BRANCH   9  11
ATOM     11  C   UNL d   1      29.431 -15.692  -5.488  0.00  0.00     0.231 C 
BRANCH  11  12
ATOM     12  C   UNL d   1      29.272 -14.277  -6.037  0.00  0.00     0.236 C 
ATOM     13  O   UNL d   1      30.069 -13.346  -5.875  0.00  0.00    -0.272 OA
ATOM     14  N   UNL d   1      28.158 -14.012  -6.776  0.00  0.00    -0.355 N 
ATOM     15  H   UNL d   1      27.423 -14.691  -6.912  0.00  0.00     0.162 HD
BRANCH  14  16
ATOM     16  C   UNL d   1      28.037 -12.668  -7.299  0.00  0.00     0.161 C 
BRANCH  16  17
ATOM     17  C   UNL d   1      27.072 -11.811  -6.553  0.00  0.00    -0.038 A 
ATOM     18  C   UNL d   1      26.507 -10.671  -7.124  0.00  0.00     0.012 A 
ATOM     19  C   UNL d   1      25.786  -9.785  -6.339  0.00  0.00     0.040 A 
ATOM     20  C   UNL d   1      25.559 -10.050  -4.985  0.00  0.00     0.101 A 
ATOM     21  C   UNL d   1      26.124 -11.197  -4.398  0.00  0.00     0.102 A 
ATOM     22  C   UNL d   1      26.867 -12.072  -5.192  0.00  0.00     0.048 A 
BRANCH  20  23
ATOM     23  O   UNL d   1      24.775  -9.098  -4.385  0.00  0.00    -0.353 OA
ATOM     24  C   UNL d   1      24.281  -8.053  -5.213  0.00  0.00     0.210 C 
ENDBRANCH  20  23
BRANCH  21  25
ATOM     25  O   UNL d   1      25.956 -11.384  -3.056  0.00  0.00    -0.353 OA
ATOM     26  C   UNL d   1      27.054 -11.828  -2.280  0.00  0.00     0.210 C 
ENDBRANCH  21  25
ENDBRANCH  16  17
ENDBRANCH  14  16
ENDBRANCH  11  12
ENDBRANCH   9  11
BRANCH   1  27
ATOM     27  S   UNL d   1      26.548 -16.456   0.209  0.00  0.00    -0.107 SA
BRANCH  27  28
ATOM     28  C   UNL d   1      25.922 -18.132  -0.218  0.00  0.00     0.119 C 
BRANCH  28  29
ATOM     29  C   UNL d   1      24.411 -18.145  -0.433  0.00  0.00    -0.048 A 
ATOM     30  C   UNL d   1      23.708 -16.940  -0.584  0.00  0.00     0.011 A 
ATOM     31  C   UNL d   1      22.304 -16.933  -0.681  0.00  0.00     0.037 A 
ATOM     32  C   UNL d   1      21.581 -18.129  -0.697  0.00  0.00     0.068 A 
ATOM     33  C   UNL d   1      22.268 -19.326  -0.577  0.00  0.00     0.037 A 
ATOM     34  C   UNL d   1      23.655 -19.329  -0.443  0.00  0.00     0.011 A 
BRANCH  32  35
ATOM     35  O   UNL d   1      20.237 -18.037  -0.929  0.00  0.00    -0.356 OA
ATOM     36  C   UNL d   1      19.506 -19.263  -0.894  0.00  0.00     0.210 C 
ENDBRANCH  32  35
ENDBRANCH  28  29
ENDBRANCH  27  28
ENDBRANCH   1  27
TORSDOF 10
ENDMDL
MODEL 8
REMARK VINA RESULT:    -7.779      2.107      3.718
REMARK INTER + INTRA:         -12.992
REMARK INTER:                 -10.762
REMARK INTRA:                  -2.230
REMARK CONF_INDEPENDENT:        2.983
REMARK UNBOUND:                -2.230
REMARK  10 active torsions:
REMARK  status: ('A' for Active; 'I' for Inactive)
REMARK    1  A    between atoms: O_2  and  C_3 
REMARK    2  A    between atoms: C_6  and  C_7 
REMARK    3  A    between atoms: C_7  and  S_8 
REMARK    4  A    between atoms: S_8  and  C_9 
REMARK    5  A    between atoms: N_17  and  C_18 
REMARK    6  A    between atoms: C_18  and  C_19 
REMARK       I    between atoms: C_19  and  N_21 
REMARK    7  A    between atoms: N_21  and  C_22 
REMARK    8  A    between atoms: C_22  and  C_23 
REMARK    9  A    between atoms: C_26  and  O_27 
REMARK   10  A    between atoms: C_29  and  O_30 
ROOT
ATOM      1  C   UNL d   1      25.971 -14.835  -1.902  0.00  0.00     0.082 C 
ATOM      2  N   UNL d   1      25.681 -15.742  -2.829  0.00  0.00    -0.360 N 
ATOM      3  C   UNL d   1      25.907 -15.630  -4.138  0.00  0.00     0.091 C 
ATOM      4  C   UNL d   1      26.319 -14.429  -4.691  0.00  0.00     0.047 C 
ATOM      5  C   UNL d   1      26.494 -13.379  -3.788  0.00  0.00     0.049 A 
ATOM      6  C   UNL d   1      26.354 -13.590  -2.400  0.00  0.00     0.026 A 
ATOM      7  C   UNL d   1      26.716 -12.390  -1.760  0.00  0.00     0.034 A 
ATOM      8  C   UNL d   1      26.971 -11.473  -2.732  0.00  0.00     0.093 A 
ATOM      9  N   UNL d   1      26.865 -12.048  -3.967  0.00  0.00    -0.347 N 
ATOM     10  H   UNL d   1      25.331 -16.625  -2.459  0.00  0.00     0.166 HD
ENDROOT
BRANCH   9  11
ATOM     11  C   UNL d   1      27.092 -11.374  -5.258  0.00  0.00     0.231 C 
BRANCH  11  12
ATOM     12  C   UNL d   1      27.936 -12.159  -6.258  0.00  0.00     0.236 C 
ATOM     13  O   UNL d   1      27.684 -12.301  -7.460  0.00  0.00    -0.272 OA
ATOM     14  N   UNL d   1      29.070 -12.752  -5.791  0.00  0.00    -0.355 N 
ATOM     15  H   UNL d   1      29.327 -12.741  -4.815  0.00  0.00     0.162 HD
BRANCH  14  16
ATOM     16  C   UNL d   1      29.863 -13.478  -6.761  0.00  0.00     0.161 C 
BRANCH  16  17
ATOM     17  C   UNL d   1      30.157 -14.887  -6.372  0.00  0.00    -0.038 A 
ATOM     18  C   UNL d   1      30.717 -15.796  -7.269  0.00  0.00     0.012 A 
ATOM     19  C   UNL d   1      30.779 -17.142  -6.947  0.00  0.00     0.040 A 
ATOM     20  C   UNL d   1      30.344 -17.600  -5.698  0.00  0.00     0.101 A 
ATOM     21  C   UNL d   1      29.777 -16.692  -4.785  0.00  0.00     0.102 A 
ATOM     22  C   UNL d   1      29.699 -15.342  -5.128  0.00  0.00     0.048 A 
BRANCH  20  23
ATOM     23  O   UNL d   1      30.539 -18.947  -5.533  0.00  0.00    -0.353 OA
ATOM     24  C   UNL d   1      30.990 -19.679  -6.666  0.00  0.00     0.210 C 
ENDBRANCH  20  23
BRANCH  21  25
ATOM     25  O   UNL d   1      29.284 -17.182  -3.610  0.00  0.00    -0.353 OA
ATOM     26  C   UNL d   1      29.153 -16.311  -2.502  0.00  0.00     0.210 C 
ENDBRANCH  21  25
ENDBRANCH  16  17
ENDBRANCH  14  16
ENDBRANCH  11  12
ENDBRANCH   9  11
BRANCH   1  27
ATOM     27  S   UNL d   1      26.370 -15.418  -0.311  0.00  0.00    -0.107 SA
BRANCH  27  28
ATOM     28  C   UNL d   1      25.985 -17.216  -0.264  0.00  0.00     0.119 C 
BRANCH  28  29
ATOM     29  C   UNL d   1      24.494 -17.491  -0.437  0.00  0.00    -0.048 A 
ATOM     30  C   UNL d   1      24.023 -18.810  -0.524  0.00  0.00     0.011 A 
ATOM     31  C   UNL d   1      22.666 -19.074  -0.785  0.00  0.00     0.037 A 
ATOM     32  C   UNL d   1      21.741 -18.032  -0.895  0.00  0.00     0.068 A 
ATOM     33  C   UNL d   1      22.191 -16.727  -0.782  0.00  0.00     0.037 A 
ATOM     34  C   UNL d   1      23.541 -16.465  -0.562  0.00  0.00     0.011 A 
BRANCH  32  35
ATOM     35  O   UNL d   1      20.425 -18.382  -1.014  0.00  0.00    -0.356 OA
ATOM     36  C   UNL d   1      19.935 -19.326  -0.063  0.00  0.00     0.210 C 
ENDBRANCH  32  35
ENDBRANCH  28  29
ENDBRANCH  27  28
ENDBRANCH   1  27
TORSDOF 10
ENDMDL
MODEL 9
REMARK VINA RESULT:    -7.749      2.974      5.419
REMARK INTER + INTRA:         -12.988
REMARK INTER:                 -10.732
REMARK INTRA:                  -2.256
REMARK CONF_INDEPENDENT:        2.983
REMARK UNBOUND:                -2.256
REMARK  10 active torsions:
REMARK  status: ('A' for Active; 'I' for Inactive)
REMARK    1  A    between atoms: O_2  and  C_3 
REMARK    2  A    between atoms: C_6  and  C_7 
REMARK    3  A    between atoms: C_7  and  S_8 
REMARK    4  A    between atoms: S_8  and  C_9 
REMARK    5  A    between atoms: N_17  and  C_18 
REMARK    6  A    between atoms: C_18  and  C_19 
REMARK       I    between atoms: C_19  and  N_21 
REMARK    7  A    between atoms: N_21  and  C_22 
REMARK    8  A    between atoms: C_22  and  C_23 
REMARK    9  A    between atoms: C_26  and  O_27 
REMARK   10  A    between atoms: C_29  and  O_30 
ROOT
ATOM      1  C   UNL d   1      28.037 -15.892  -0.225  0.00  0.00     0.082 C 
ATOM      2  N   UNL d   1      27.704 -14.671  -0.635  0.00  0.00    -0.360 N 
ATOM      3  C   UNL d   1      28.122 -14.074  -1.751  0.00  0.00     0.091 C 
ATOM      4  C   UNL d   1      29.126 -14.631  -2.526  0.00  0.00     0.047 C 
ATOM      5  C   UNL d   1      29.636 -15.847  -2.066  0.00  0.00     0.049 A 
ATOM      6  C   UNL d   1      29.072 -16.488  -0.943  0.00  0.00     0.026 A 
ATOM      7  C   UNL d   1      29.711 -17.735  -0.815  0.00  0.00     0.034 A 
ATOM      8  C   UNL d   1      30.681 -17.794  -1.766  0.00  0.00     0.093 A 
ATOM      9  N   UNL d   1      30.646 -16.675  -2.551  0.00  0.00    -0.347 N 
ATOM     10  H   UNL d   1      26.998 -14.213  -0.060  0.00  0.00     0.166 HD
ENDROOT
BRANCH   9  11
ATOM     11  C   UNL d   1      31.528 -16.393  -3.697  0.00  0.00     0.231 C 
BRANCH  11  12
ATOM     12  C   UNL d   1      30.901 -15.550  -4.804  0.00  0.00     0.236 C 
ATOM     13  O   UNL d   1      31.186 -14.376  -5.065  0.00  0.00    -0.272 OA
ATOM     14  N   UNL d   1      29.947 -16.140  -5.577  0.00  0.00    -0.355 N 
ATOM     15  H   UNL d   1      29.607 -17.075  -5.402  0.00  0.00     0.162 HD
BRANCH  14  16
ATOM     16  C   UNL d   1      29.379 -15.326  -6.631  0.00  0.00     0.161 C 
BRANCH  16  17
ATOM     17  C   UNL d   1      28.286 -14.420  -6.174  0.00  0.00    -0.038 A 
ATOM     18  C   UNL d   1      28.432 -13.033  -6.175  0.00  0.00     0.012 A 
ATOM     19  C   UNL d   1      27.488 -12.235  -5.549  0.00  0.00     0.040 A 
ATOM     20  C   UNL d   1      26.348 -12.798  -4.966  0.00  0.00     0.101 A 
ATOM     21  C   UNL d   1      26.190 -14.195  -4.958  0.00  0.00     0.102 A 
ATOM     22  C   UNL d   1      27.157 -14.992  -5.572  0.00  0.00     0.048 A 
BRANCH  20  23
ATOM     23  O   UNL d   1      25.497 -11.853  -4.451  0.00  0.00    -0.353 OA
ATOM     24  C   UNL d   1      26.090 -10.693  -3.881  0.00  0.00     0.210 C 
ENDBRANCH  20  23
BRANCH  21  25
ATOM     25  O   UNL d   1      25.111 -14.719  -4.307  0.00  0.00    -0.353 OA
ATOM     26  C   UNL d   1      24.629 -14.075  -3.142  0.00  0.00     0.210 C 
ENDBRANCH  21  25
ENDBRANCH  16  17
ENDBRANCH  14  16
ENDBRANCH  11  12
ENDBRANCH   9  11
BRANCH   1  27
ATOM     27  S   UNL d   1      26.858 -16.770   0.707  0.00  0.00    -0.107 SA
BRANCH  27  28
ATOM     28  C   UNL d   1      26.161 -18.085  -0.373  0.00  0.00     0.119 C 
BRANCH  28  29
ATOM     29  C   UNL d   1      24.645 -17.977  -0.507  0.00  0.00    -0.048 A 
ATOM     30  C   UNL d   1      23.849 -19.134  -0.498  0.00  0.00     0.011 A 
ATOM     31  C   UNL d   1      22.462 -19.055  -0.723  0.00  0.00     0.037 A 
ATOM     32  C   UNL d   1      21.833 -17.819  -0.892  0.00  0.00     0.068 A 
ATOM     33  C   UNL d   1      22.605 -16.669  -0.875  0.00  0.00     0.037 A 
ATOM     34  C   UNL d   1      23.983 -16.751  -0.690  0.00  0.00     0.011 A 
BRANCH  32  35
ATOM     35  O   UNL d   1      20.468 -17.825  -0.970  0.00  0.00    -0.356 OA
ATOM     36  C   UNL d   1      19.835 -19.098  -0.847  0.00  0.00     0.210 C 
ENDBRANCH  32  35
ENDBRANCH  28  29
ENDBRANCH  27  28
ENDBRANCH   1  27
TORSDOF 10
ENDMDL
