MODEL 1
REMARK VINA RESULT:    -8.220      0.000      0.000
REMARK INTER + INTRA:         -13.274
REMARK INTER:                 -10.308
REMARK INTRA:                  -2.965
REMARK CONF_INDEPENDENT:        2.088
REMARK UNBOUND:                -2.965
REMARK  7 active torsions:
REMARK  status: ('A' for Active; 'I' for Inactive)
REMARK    1  A    between atoms: C_8  and  C_7 
REMARK    2  A    between atoms: C_8  and  N_16 
REMARK    3  A    between atoms: C_8  and  C_9 
REMARK       I    between atoms: C_9  and  N_11 
REMARK    4  A    between atoms: N_11  and  C_12 
REMARK       I    between atoms: N_16  and  C_17 
REMARK    5  A    between atoms: N_16  and  C_28 
REMARK    6  A    between atoms: C_17  and  C_19 
REMARK    7  A    between atoms: C_23  and  N_24 
ROOT
ATOM      1  N   UNL d   1      27.469 -13.774  -1.203  0.00  0.00    -0.296 N 
ATOM      2  C   UNL d   1      27.087 -12.442  -1.078  0.00  0.00     0.259 C 
ATOM      3  O   UNL d   1      26.280 -11.922  -1.868  0.00  0.00    -0.267 OA
ENDROOT
BRANCH   1   4
ATOM      4  C   UNL d   1      27.449 -14.746  -0.045  0.00  0.00     0.219 C 
BRANCH   4   5
ATOM      5  C   UNL d   1      27.370 -14.293   1.487  0.00  0.00     0.246 C 
ATOM      6  O   UNL d   1      26.463 -13.507   1.784  0.00  0.00    -0.271 OA
ATOM      7  N   UNL d   1      28.357 -14.620   2.436  0.00  0.00    -0.351 N 
ATOM      8  H   UNL d   1      29.132 -15.234   2.199  0.00  0.00     0.163 HD
BRANCH   7   9
ATOM      9  C   UNL d   1      28.454 -13.901   3.740  0.00  0.00     0.022 C 
ATOM     10  C   UNL d   1      28.230 -12.384   3.585  0.00  0.00     0.037 C 
ATOM     11  C   UNL d   1      27.405 -14.450   4.701  0.00  0.00     0.037 C 
ATOM     12  C   UNL d   1      29.838 -14.075   4.405  0.00  0.00     0.037 C 
ENDBRANCH   7   9
ENDBRANCH   4   5
BRANCH   4  13
ATOM     13  C   UNL d   1      26.536 -15.981  -0.227  0.00  0.00    -0.020 C 
ATOM     14  C   UNL d   1      25.146 -15.818  -0.399  0.00  0.00     0.010 C 
ATOM     15  C   UNL d   1      24.293 -16.922  -0.265  0.00  0.00     0.001 C 
ATOM     16  C   UNL d   1      24.813 -18.207  -0.143  0.00  0.00     0.001 C 
ATOM     17  C   UNL d   1      26.179 -18.398  -0.147  0.00  0.00     0.007 C 
ATOM     18  C   UNL d   1      27.029 -17.300  -0.132  0.00  0.00    -0.053 C 
ATOM     19  C   UNL d   1      28.474 -17.603  -0.145  0.00  0.00     0.049 C 
ENDBRANCH   4  13
ENDBRANCH   1   4
BRANCH   1  20
ATOM     20  C   UNL d   1      27.863 -14.210  -2.542  0.00  0.00     0.040 A 
ATOM     21  C   UNL d   1      27.311 -13.618  -3.686  0.00  0.00     0.030 A 
ATOM     22  C   UNL d   1      27.636 -14.086  -4.977  0.00  0.00     0.004 A 
ATOM     23  C   UNL d   1      28.608 -15.067  -5.162  0.00  0.00     0.024 A 
ATOM     24  C   UNL d   1      29.174 -15.650  -4.049  0.00  0.00     0.036 A 
ATOM     25 CL   UNL d   1      30.353 -16.894  -4.210  0.00  0.00    -0.084 Cl
ATOM     26  C   UNL d   1      28.736 -15.273  -2.779  0.00  0.00     0.053 A 
ENDBRANCH   1  20
BRANCH   2  27
ATOM     27  C   UNL d   1      27.649 -11.578   0.010  0.00  0.00     0.035 A 
ATOM     28  C   UNL d   1      29.045 -11.463   0.123  0.00  0.00     0.017 A 
ATOM     29  C   UNL d   1      29.613 -10.565   1.034  0.00  0.00     0.003 A 
ATOM     30  C   UNL d   1      28.796  -9.740   1.811  0.00  0.00     0.036 A 
ATOM     31  C   UNL d   1      27.406  -9.852   1.702  0.00  0.00     0.103 A 
ATOM     32  C   UNL d   1      26.838 -10.815   0.861  0.00  0.00     0.053 A 
BRANCH  31  33
ATOM     33  N   UNL d   1      26.527  -8.863   2.355  0.00  0.00    -0.116 N 
ATOM     34  O   UNL d   1      25.530  -8.477   1.729  0.00  0.00    -0.532 OA
ATOM     35  O   UNL d   1      26.822  -8.501   3.503  0.00  0.00    -0.532 OA
ENDBRANCH  31  33
ENDBRANCH   2  27
TORSDOF 7
ENDMDL
MODEL 2
REMARK VINA RESULT:    -8.132      3.107      6.721
REMARK INTER + INTRA:         -13.393
REMARK INTER:                 -10.220
REMARK INTRA:                  -3.173
REMARK CONF_INDEPENDENT:        2.088
REMARK UNBOUND:                -3.173
REMARK  7 active torsions:
REMARK  status: ('A' for Active; 'I' for Inactive)
REMARK    1  A    between atoms: C_8  and  C_7 
REMARK    2  A    between atoms: C_8  and  N_16 
REMARK    3  A    between atoms: C_8  and  C_9 
REMARK       I    between atoms: C_9  and  N_11 
REMARK    4  A    between atoms: N_11  and  C_12 
REMARK       I    between atoms: N_16  and  C_17 
REMARK    5  A    between atoms: N_16  and  C_28 
REMARK    6  A    between atoms: C_17  and  C_19 
REMARK    7  A    between atoms: C_23  and  N_24 
ROOT
ATOM      1  N   UNL d   1      26.215 -14.787  -1.998  0.00  0.00    -0.296 N 
ATOM      2  C   UNL d   1      25.637 -14.524  -3.236  0.00  0.00     0.259 C 
ATOM      3  O   UNL d   1      24.403 -14.517  -3.387  0.00  0.00    -0.267 OA
ENDROOT
BRANCH   1   4
ATOM      4  C   UNL d   1      27.282 -13.908  -1.387  0.00  0.00     0.219 C 
BRANCH   4   5
ATOM      5  C   UNL d   1      27.573 -12.410  -1.866  0.00  0.00     0.246 C 
ATOM      6  O   UNL d   1      28.683 -11.946  -1.583  0.00  0.00    -0.271 OA
ATOM      7  N   UNL d   1      26.588 -11.581  -2.436  0.00  0.00    -0.351 N 
ATOM      8  H   UNL d   1      25.658 -11.935  -2.641  0.00  0.00     0.163 HD
BRANCH   7   9
ATOM      9  C   UNL d   1      26.776 -10.104  -2.539  0.00  0.00     0.022 C 
ATOM     10  C   UNL d   1      25.534  -9.400  -3.120  0.00  0.00     0.037 C 
ATOM     11  C   UNL d   1      27.053  -9.531  -1.154  0.00  0.00     0.037 C 
ATOM     12  C   UNL d   1      27.963  -9.725  -3.453  0.00  0.00     0.037 C 
ENDBRANCH   7   9
ENDBRANCH   4   5
BRANCH   4  13
ATOM     13  C   UNL d   1      27.373 -13.944   0.157  0.00  0.00    -0.020 C 
ATOM     14  C   UNL d   1      26.413 -13.271   0.940  0.00  0.00     0.010 C 
ATOM     15  C   UNL d   1      26.655 -13.052   2.303  0.00  0.00     0.001 C 
ATOM     16  C   UNL d   1      27.746 -13.645   2.932  0.00  0.00     0.001 C 
ATOM     17  C   UNL d   1      28.601 -14.450   2.208  0.00  0.00     0.007 C 
ATOM     18  C   UNL d   1      28.451 -14.554   0.833  0.00  0.00    -0.053 C 
ATOM     19  C   UNL d   1      29.408 -15.444   0.145  0.00  0.00     0.049 C 
ENDBRANCH   4  13
ENDBRANCH   1   4
BRANCH   1  20
ATOM     20  C   UNL d   1      25.705 -15.955  -1.282  0.00  0.00     0.040 A 
ATOM     21  C   UNL d   1      26.573 -16.822  -0.603  0.00  0.00     0.030 A 
ATOM     22  C   UNL d   1      26.091 -17.989   0.027  0.00  0.00     0.004 A 
ATOM     23  C   UNL d   1      24.724 -18.253   0.103  0.00  0.00     0.024 A 
ATOM     24  C   UNL d   1      23.855 -17.403  -0.545  0.00  0.00     0.036 A 
ATOM     25 CL   UNL d   1      22.157 -17.695  -0.521  0.00  0.00    -0.084 Cl
ATOM     26  C   UNL d   1      24.361 -16.333  -1.282  0.00  0.00     0.053 A 
ENDBRANCH   1  20
BRANCH   2  27
ATOM     27  C   UNL d   1      26.487 -14.254  -4.440  0.00  0.00     0.035 A 
ATOM     28  C   UNL d   1      26.442 -12.975  -5.021  0.00  0.00     0.017 A 
ATOM     29  C   UNL d   1      27.315 -12.637  -6.061  0.00  0.00     0.003 A 
ATOM     30  C   UNL d   1      28.273 -13.552  -6.503  0.00  0.00     0.036 A 
ATOM     31  C   UNL d   1      28.320 -14.827  -5.928  0.00  0.00     0.103 A 
ATOM     32  C   UNL d   1      27.387 -15.198  -4.954  0.00  0.00     0.053 A 
BRANCH  31  33
ATOM     33  N   UNL d   1      29.441 -15.737  -6.230  0.00  0.00    -0.116 N 
ATOM     34  O   UNL d   1      30.086 -15.533  -7.268  0.00  0.00    -0.532 OA
ATOM     35  O   UNL d   1      29.691 -16.632  -5.410  0.00  0.00    -0.532 OA
ENDBRANCH  31  33
ENDBRANCH   2  27
TORSDOF 7
ENDMDL
MODEL 3
REMARK VINA RESULT:    -8.016      2.879      6.170
REMARK INTER + INTRA:         -13.655
REMARK INTER:                 -10.104
REMARK INTRA:                  -3.552
REMARK CONF_INDEPENDENT:        2.088
REMARK UNBOUND:                -3.552
REMARK  7 active torsions:
REMARK  status: ('A' for Active; 'I' for Inactive)
REMARK    1  A    between atoms: C_8  and  C_7 
REMARK    2  A    between atoms: C_8  and  N_16 
REMARK    3  A    between atoms: C_8  and  C_9 
REMARK       I    between atoms: C_9  and  N_11 
REMARK    4  A    between atoms: N_11  and  C_12 
REMARK       I    between atoms: N_16  and  C_17 
REMARK    5  A    between atoms: N_16  and  C_28 
REMARK    6  A    between atoms: C_17  and  C_19 
REMARK    7  A    between atoms: C_23  and  N_24 
ROOT
ATOM      1  N   UNL d   1      25.822 -15.009  -1.601  0.00  0.00    -0.296 N 
ATOM      2  C   UNL d   1      25.189 -14.568  -2.759  0.00  0.00     0.259 C 
ATOM      3  O   UNL d   1      23.953 -14.452  -2.817  0.00  0.00    -0.267 OA
ENDROOT
BRANCH   1   4
ATOM      4  C   UNL d   1      26.995 -14.286  -0.980  0.00  0.00     0.219 C 
BRANCH   4   5
ATOM      5  C   UNL d   1      27.105 -13.959   0.582  0.00  0.00     0.246 C 
ATOM      6  O   UNL d   1      26.199 -13.271   1.067  0.00  0.00    -0.271 OA
ATOM      7  N   UNL d   1      28.235 -14.282   1.357  0.00  0.00    -0.351 N 
ATOM      8  H   UNL d   1      29.007 -14.814   0.965  0.00  0.00     0.163 HD
BRANCH   7   9
ATOM      9  C   UNL d   1      28.468 -13.660   2.693  0.00  0.00     0.022 C 
ATOM     10  C   UNL d   1      27.405 -14.085   3.725  0.00  0.00     0.037 C 
ATOM     11  C   UNL d   1      29.840 -14.074   3.213  0.00  0.00     0.037 C 
ATOM     12  C   UNL d   1      28.432 -12.116   2.637  0.00  0.00     0.037 C 
ENDBRANCH   7   9
ENDBRANCH   4   5
BRANCH   4  13
ATOM     13  C   UNL d   1      28.391 -14.730  -1.475  0.00  0.00    -0.020 C 
ATOM     14  C   UNL d   1      28.762 -16.089  -1.427  0.00  0.00     0.010 C 
ATOM     15  C   UNL d   1      30.106 -16.451  -1.590  0.00  0.00     0.001 C 
ATOM     16  C   UNL d   1      31.052 -15.506  -1.976  0.00  0.00     0.001 C 
ATOM     17  C   UNL d   1      30.666 -14.200  -2.194  0.00  0.00     0.007 C 
ATOM     18  C   UNL d   1      29.370 -13.804  -1.895  0.00  0.00    -0.053 C 
ATOM     19  C   UNL d   1      29.048 -12.389  -2.169  0.00  0.00     0.049 C 
ENDBRANCH   4  13
ENDBRANCH   1   4
BRANCH   1  20
ATOM     20  C   UNL d   1      25.265 -16.209  -0.977  0.00  0.00     0.040 A 
ATOM     21  C   UNL d   1      26.042 -17.007  -0.125  0.00  0.00     0.030 A 
ATOM     22  C   UNL d   1      25.529 -18.202   0.420  0.00  0.00     0.004 A 
ATOM     23  C   UNL d   1      24.197 -18.566   0.231  0.00  0.00     0.024 A 
ATOM     24  C   UNL d   1      23.414 -17.785  -0.590  0.00  0.00     0.036 A 
ATOM     25 CL   UNL d   1      21.770 -18.200  -0.895  0.00  0.00    -0.084 Cl
ATOM     26  C   UNL d   1      23.979 -16.684  -1.234  0.00  0.00     0.053 A 
ENDBRANCH   1  20
BRANCH   2  27
ATOM     27  C   UNL d   1      25.979 -14.230  -3.986  0.00  0.00     0.035 A 
ATOM     28  C   UNL d   1      25.868 -12.935  -4.521  0.00  0.00     0.017 A 
ATOM     29  C   UNL d   1      26.686 -12.533  -5.583  0.00  0.00     0.003 A 
ATOM     30  C   UNL d   1      27.654 -13.400  -6.094  0.00  0.00     0.036 A 
ATOM     31  C   UNL d   1      27.767 -14.691  -5.566  0.00  0.00     0.103 A 
ATOM     32  C   UNL d   1      26.887 -15.126  -4.569  0.00  0.00     0.053 A 
BRANCH  31  33
ATOM     33  N   UNL d   1      28.903 -15.552  -5.944  0.00  0.00    -0.116 N 
ATOM     34  O   UNL d   1      29.215 -16.467  -5.169  0.00  0.00    -0.532 OA
ATOM     35  O   UNL d   1      29.457 -15.329  -7.029  0.00  0.00    -0.532 OA
ENDBRANCH  31  33
ENDBRANCH   2  27
TORSDOF 7
ENDMDL
MODEL 4
REMARK VINA RESULT:    -7.972      2.323      4.824
REMARK INTER + INTRA:         -13.000
REMARK INTER:                 -10.060
REMARK INTRA:                  -2.940
REMARK CONF_INDEPENDENT:        2.088
REMARK UNBOUND:                -2.940
REMARK  7 active torsions:
REMARK  status: ('A' for Active; 'I' for Inactive)
REMARK    1  A    between atoms: C_8  and  C_7 
REMARK    2  A    between atoms: C_8  and  N_16 
REMARK    3  A    between atoms: C_8  and  C_9 
REMARK       I    between atoms: C_9  and  N_11 
REMARK    4  A    between atoms: N_11  and  C_12 
REMARK       I    between atoms: N_16  and  C_17 
REMARK    5  A    between atoms: N_16  and  C_28 
REMARK    6  A    between atoms: C_17  and  C_19 
REMARK    7  A    between atoms: C_23  and  N_24 
ROOT
ATOM      1  N   UNL d   1      27.606 -13.933   1.611  0.00  0.00    -0.296 N 
ATOM      2  C   UNL d   1      26.741 -12.844   1.634  0.00  0.00     0.259 C 
ATOM      3  O   UNL d   1      25.508 -12.997   1.683  0.00  0.00    -0.267 OA
ENDROOT
BRANCH   1   4
ATOM      4  C   UNL d   1      28.797 -14.056   2.534  0.00  0.00     0.219 C 
BRANCH   4   5
ATOM      5  C   UNL d   1      30.313 -13.973   2.034  0.00  0.00     0.246 C 
ATOM      6  O   UNL d   1      30.732 -12.852   1.724  0.00  0.00    -0.271 OA
ATOM      7  N   UNL d   1      31.106 -15.112   1.793  0.00  0.00    -0.351 N 
ATOM      8  H   UNL d   1      30.764 -16.045   2.006  0.00  0.00     0.163 HD
BRANCH   7   9
ATOM      9  C   UNL d   1      32.366 -15.032   0.998  0.00  0.00     0.022 C 
ATOM     10  C   UNL d   1      33.027 -16.412   0.816  0.00  0.00     0.037 C 
ATOM     11  C   UNL d   1      32.060 -14.455  -0.380  0.00  0.00     0.037 C 
ATOM     12  C   UNL d   1      33.424 -14.123   1.664  0.00  0.00     0.037 C 
ENDBRANCH   7   9
ENDBRANCH   4   5
BRANCH   4  13
ATOM     13  C   UNL d   1      28.689 -13.281   3.868  0.00  0.00    -0.020 C 
ATOM     14  C   UNL d   1      29.034 -11.915   3.926  0.00  0.00     0.010 C 
ATOM     15  C   UNL d   1      29.222 -11.296   5.169  0.00  0.00     0.001 C 
ATOM     16  C   UNL d   1      28.900 -11.962   6.347  0.00  0.00     0.001 C 
ATOM     17  C   UNL d   1      28.397 -13.245   6.294  0.00  0.00     0.007 C 
ATOM     18  C   UNL d   1      28.344 -13.916   5.080  0.00  0.00    -0.053 C 
ATOM     19  C   UNL d   1      27.783 -15.281   5.122  0.00  0.00     0.049 C 
ENDBRANCH   4  13
ENDBRANCH   1   4
BRANCH   1  20
ATOM     20  C   UNL d   1      27.283 -14.995   0.658  0.00  0.00     0.040 A 
ATOM     21  C   UNL d   1      27.496 -16.343   0.980  0.00  0.00     0.030 A 
ATOM     22  C   UNL d   1      27.253 -17.363   0.037  0.00  0.00     0.004 A 
ATOM     23  C   UNL d   1      26.677 -17.077  -1.200  0.00  0.00     0.024 A 
ATOM     24  C   UNL d   1      26.445 -15.759  -1.527  0.00  0.00     0.036 A 
ATOM     25 CL   UNL d   1      25.771 -15.336  -3.055  0.00  0.00    -0.084 Cl
ATOM     26  C   UNL d   1      26.824 -14.754  -0.637  0.00  0.00     0.053 A 
ENDBRANCH   1  20
BRANCH   2  27
ATOM     27  C   UNL d   1      27.266 -11.442   1.584  0.00  0.00     0.035 A 
ATOM     28  C   UNL d   1      28.463 -11.196   0.889  0.00  0.00     0.017 A 
ATOM     29  C   UNL d   1      28.920  -9.887   0.702  0.00  0.00     0.003 A 
ATOM     30  C   UNL d   1      28.167  -8.805   1.165  0.00  0.00     0.036 A 
ATOM     31  C   UNL d   1      26.977  -9.045   1.859  0.00  0.00     0.103 A 
ATOM     32  C   UNL d   1      26.567 -10.355   2.129  0.00  0.00     0.053 A 
BRANCH  31  33
ATOM     33  N   UNL d   1      26.066  -7.929   2.181  0.00  0.00    -0.116 N 
ATOM     34  O   UNL d   1      26.284  -7.289   3.219  0.00  0.00    -0.532 OA
ATOM     35  O   UNL d   1      25.158  -7.679   1.377  0.00  0.00    -0.532 OA
ENDBRANCH  31  33
ENDBRANCH   2  27
TORSDOF 7
ENDMDL
MODEL 5
REMARK VINA RESULT:    -7.917      2.849      6.133
REMARK INTER + INTRA:         -13.558
REMARK INTER:                 -10.005
REMARK INTRA:                  -3.553
REMARK CONF_INDEPENDENT:        2.088
REMARK UNBOUND:                -3.553
REMARK  7 active torsions:
REMARK  status: ('A' for Active; 'I' for Inactive)
REMARK    1  A    between atoms: C_8  and  C_7 
REMARK    2  A    between atoms: C_8  and  N_16 
REMARK    3  A    between atoms: C_8  and  C_9 
REMARK       I    between atoms: C_9  and  N_11 
REMARK    4  A    between atoms: N_11  and  C_12 
REMARK       I    between atoms: N_16  and  C_17 
REMARK    5  A    between atoms: N_16  and  C_28 
REMARK    6  A    between atoms: C_17  and  C_19 
REMARK    7  A    between atoms: C_23  and  N_24 
ROOT
ATOM      1  N   UNL d   1      25.620 -14.651  -1.660  0.00  0.00    -0.296 N 
ATOM      2  C   UNL d   1      25.006 -14.354  -2.873  0.00  0.00     0.259 C 
ATOM      3  O   UNL d   1      23.775 -14.450  -3.015  0.00  0.00    -0.267 OA
ENDROOT
BRANCH   1   4
ATOM      4  C   UNL d   1      26.610 -13.723  -0.992  0.00  0.00     0.219 C 
BRANCH   4   5
ATOM      5  C   UNL d   1      26.948 -13.770   0.570  0.00  0.00     0.246 C 
ATOM      6  O   UNL d   1      26.057 -13.391   1.339  0.00  0.00    -0.271 OA
ATOM      7  N   UNL d   1      28.231 -14.064   1.070  0.00  0.00    -0.351 N 
ATOM      8  H   UNL d   1      28.986 -14.340   0.449  0.00  0.00     0.163 HD
BRANCH   7   9
ATOM      9  C   UNL d   1      28.609 -13.753   2.480  0.00  0.00     0.022 C 
ATOM     10  C   UNL d   1      27.780 -14.563   3.496  0.00  0.00     0.037 C 
ATOM     11  C   UNL d   1      30.084 -14.075   2.692  0.00  0.00     0.037 C 
ATOM     12  C   UNL d   1      28.397 -12.263   2.829  0.00  0.00     0.037 C 
ENDBRANCH   7   9
ENDBRANCH   4   5
BRANCH   4  13
ATOM     13  C   UNL d   1      27.931 -13.492  -1.762  0.00  0.00    -0.020 C 
ATOM     14  C   UNL d   1      28.326 -12.186  -2.118  0.00  0.00     0.010 C 
ATOM     15  C   UNL d   1      29.349 -11.999  -3.057  0.00  0.00     0.001 C 
ATOM     16  C   UNL d   1      30.102 -13.079  -3.509  0.00  0.00     0.001 C 
ATOM     17  C   UNL d   1      29.835 -14.347  -3.034  0.00  0.00     0.007 C 
ATOM     18  C   UNL d   1      28.734 -14.560  -2.217  0.00  0.00    -0.053 C 
ATOM     19  C   UNL d   1      28.535 -15.948  -1.751  0.00  0.00     0.049 C 
ENDBRANCH   4  13
ENDBRANCH   1   4
BRANCH   1  20
ATOM     20  C   UNL d   1      25.228 -15.910  -1.028  0.00  0.00     0.040 A 
ATOM     21  C   UNL d   1      26.112 -16.603  -0.189  0.00  0.00     0.030 A 
ATOM     22  C   UNL d   1      25.763 -17.853   0.364  0.00  0.00     0.004 A 
ATOM     23  C   UNL d   1      24.484 -18.381   0.195  0.00  0.00     0.024 A 
ATOM     24  C   UNL d   1      23.596 -17.706  -0.614  0.00  0.00     0.036 A 
ATOM     25 CL   UNL d   1      22.013 -18.325  -0.893  0.00  0.00    -0.084 Cl
ATOM     26  C   UNL d   1      24.008 -16.544  -1.266  0.00  0.00     0.053 A 
ENDBRANCH   1  20
BRANCH   2  27
ATOM     27  C   UNL d   1      25.812 -13.920  -4.059  0.00  0.00     0.035 A 
ATOM     28  C   UNL d   1      25.798 -12.563  -4.421  0.00  0.00     0.017 A 
ATOM     29  C   UNL d   1      26.638 -12.089  -5.435  0.00  0.00     0.003 A 
ATOM     30  C   UNL d   1      27.535 -12.953  -6.068  0.00  0.00     0.036 A 
ATOM     31  C   UNL d   1      27.551 -14.306  -5.711  0.00  0.00     0.103 A 
ATOM     32  C   UNL d   1      26.646 -14.799  -4.764  0.00  0.00     0.053 A 
BRANCH  31  33
ATOM     33  N   UNL d   1      28.617 -15.194  -6.213  0.00  0.00    -0.116 N 
ATOM     34  O   UNL d   1      29.180 -14.877  -7.270  0.00  0.00    -0.532 OA
ATOM     35  O   UNL d   1      28.906 -16.187  -5.531  0.00  0.00    -0.532 OA
ENDBRANCH  31  33
ENDBRANCH   2  27
TORSDOF 7
ENDMDL
MODEL 6
REMARK VINA RESULT:    -7.810      2.543      4.466
REMARK INTER + INTRA:         -12.985
REMARK INTER:                  -9.898
REMARK INTRA:                  -3.087
REMARK CONF_INDEPENDENT:        2.088
REMARK UNBOUND:                -3.087
REMARK  7 active torsions:
REMARK  status: ('A' for Active; 'I' for Inactive)
REMARK    1  A    between atoms: C_8  and  C_7 
REMARK    2  A    between atoms: C_8  and  N_16 
REMARK    3  A    between atoms: C_8  and  C_9 
REMARK       I    between atoms: C_9  and  N_11 
REMARK    4  A    between atoms: N_11  and  C_12 
REMARK       I    between atoms: N_16  and  C_17 
REMARK    5  A    between atoms: N_16  and  C_28 
REMARK    6  A    between atoms: C_17  and  C_19 
REMARK    7  A    between atoms: C_23  and  N_24 
ROOT
ATOM      1  N   UNL d   1      27.810 -14.629   0.381  0.00  0.00    -0.296 N 
ATOM      2  C   UNL d   1      27.395 -13.665   1.294  0.00  0.00     0.259 C 
ATOM      3  O   UNL d   1      27.025 -13.974   2.440  0.00  0.00    -0.267 OA
ENDROOT
BRANCH   1   4
ATOM      4  C   UNL d   1      29.101 -14.521  -0.398  0.00  0.00     0.219 C 
BRANCH   4   5
ATOM      5  C   UNL d   1      30.547 -14.532   0.285  0.00  0.00     0.246 C 
ATOM      6  O   UNL d   1      31.338 -13.655  -0.082  0.00  0.00    -0.271 OA
ATOM      7  N   UNL d   1      30.986 -15.562   1.139  0.00  0.00    -0.351 N 
ATOM      8  H   UNL d   1      30.362 -16.313   1.421  0.00  0.00     0.163 HD
BRANCH   7   9
ATOM      9  C   UNL d   1      32.431 -15.740   1.468  0.00  0.00     0.022 C 
ATOM     10  C   UNL d   1      33.308 -15.826   0.204  0.00  0.00     0.037 C 
ATOM     11  C   UNL d   1      32.908 -14.562   2.310  0.00  0.00     0.037 C 
ATOM     12  C   UNL d   1      32.694 -17.033   2.274  0.00  0.00     0.037 C 
ENDBRANCH   7   9
ENDBRANCH   4   5
BRANCH   4  13
ATOM     13  C   UNL d   1      29.175 -15.369  -1.689  0.00  0.00    -0.020 C 
ATOM     14  C   UNL d   1      30.045 -16.476  -1.763  0.00  0.00     0.010 C 
ATOM     15  C   UNL d   1      30.332 -17.055  -3.006  0.00  0.00     0.001 C 
ATOM     16  C   UNL d   1      29.633 -16.669  -4.145  0.00  0.00     0.001 C 
ATOM     17  C   UNL d   1      28.652 -15.702  -4.053  0.00  0.00     0.007 C 
ATOM     18  C   UNL d   1      28.464 -15.023  -2.858  0.00  0.00    -0.053 C 
ATOM     19  C   UNL d   1      27.386 -14.013  -2.853  0.00  0.00     0.049 C 
ENDBRANCH   4  13
ENDBRANCH   1   4
BRANCH   1  20
ATOM     20  C   UNL d   1      26.941 -15.796   0.234  0.00  0.00     0.040 A 
ATOM     21  C   UNL d   1      27.402 -17.084   0.541  0.00  0.00     0.030 A 
ATOM     22  C   UNL d   1      26.590 -18.218   0.331  0.00  0.00     0.004 A 
ATOM     23  C   UNL d   1      25.261 -18.085  -0.070  0.00  0.00     0.024 A 
ATOM     24  C   UNL d   1      24.785 -16.826  -0.360  0.00  0.00     0.036 A 
ATOM     25 CL   UNL d   1      23.163 -16.600  -0.896  0.00  0.00    -0.084 Cl
ATOM     26  C   UNL d   1      25.646 -15.732  -0.283  0.00  0.00     0.053 A 
ENDBRANCH   1  20
BRANCH   2  27
ATOM     27  C   UNL d   1      27.365 -12.214   0.920  0.00  0.00     0.035 A 
ATOM     28  C   UNL d   1      27.683 -11.853  -0.400  0.00  0.00     0.017 A 
ATOM     29  C   UNL d   1      27.537 -10.529  -0.829  0.00  0.00     0.003 A 
ATOM     30  C   UNL d   1      27.031  -9.559   0.039  0.00  0.00     0.036 A 
ATOM     31  C   UNL d   1      26.715  -9.913   1.354  0.00  0.00     0.103 A 
ATOM     32  C   UNL d   1      26.948 -11.215   1.812  0.00  0.00     0.053 A 
BRANCH  31  33
ATOM     33  N   UNL d   1      25.995  -8.966   2.227  0.00  0.00    -0.116 N 
ATOM     34  O   UNL d   1      26.280  -8.963   3.432  0.00  0.00    -0.532 OA
ATOM     35  O   UNL d   1      25.171  -8.208   1.696  0.00  0.00    -0.532 OA
ENDBRANCH  31  33
ENDBRANCH   2  27
TORSDOF 7
ENDMDL
MODEL 7
REMARK VINA RESULT:    -7.650      3.033      6.385
REMARK INTER + INTRA:         -12.979
REMARK INTER:                  -9.738
REMARK INTRA:                  -3.241
REMARK CONF_INDEPENDENT:        2.088
REMARK UNBOUND:                -3.241
REMARK  7 active torsions:
REMARK  status: ('A' for Active; 'I' for Inactive)
REMARK    1  A    between atoms: C_8  and  C_7 
REMARK    2  A    between atoms: C_8  and  N_16 
REMARK    3  A    between atoms: C_8  and  C_9 
REMARK       I    between atoms: C_9  and  N_11 
REMARK    4  A    between atoms: N_11  and  C_12 
REMARK       I    between atoms: N_16  and  C_17 
REMARK    5  A    between atoms: N_16  and  C_28 
REMARK    6  A    between atoms: C_17  and  C_19 
REMARK    7  A    between atoms: C_23  and  N_24 
ROOT
ATOM      1  N   UNL d   1      26.397 -14.713  -1.969  0.00  0.00    -0.296 N 
ATOM      2  C   UNL d   1      25.848 -14.425  -3.214  0.00  0.00     0.259 C 
ATOM      3  O   UNL d   1      24.619 -14.450  -3.402  0.00  0.00    -0.267 OA
ENDROOT
BRANCH   1   4
ATOM      4  C   UNL d   1      27.417 -13.824  -1.296  0.00  0.00     0.219 C 
BRANCH   4   5
ATOM      5  C   UNL d   1      27.697 -12.311  -1.735  0.00  0.00     0.246 C 
ATOM      6  O   UNL d   1      28.760 -11.812  -1.350  0.00  0.00    -0.271 OA
ATOM      7  N   UNL d   1      26.738 -11.511  -2.386  0.00  0.00    -0.351 N 
ATOM      8  H   UNL d   1      25.843 -11.894  -2.676  0.00  0.00     0.163 HD
BRANCH   7   9
ATOM      9  C   UNL d   1      26.882 -10.027  -2.460  0.00  0.00     0.022 C 
ATOM     10  C   UNL d   1      28.123  -9.603  -3.269  0.00  0.00     0.037 C 
ATOM     11  C   UNL d   1      25.645  -9.431  -3.122  0.00  0.00     0.037 C 
ATOM     12  C   UNL d   1      27.027  -9.381  -1.063  0.00  0.00     0.037 C 
ENDBRANCH   7   9
ENDBRANCH   4   5
BRANCH   4  13
ATOM     13  C   UNL d   1      27.442 -13.886   0.249  0.00  0.00    -0.020 C 
ATOM     14  C   UNL d   1      26.463 -13.207   1.002  0.00  0.00     0.010 C 
ATOM     15  C   UNL d   1      26.651 -13.015   2.378  0.00  0.00     0.001 C 
ATOM     16  C   UNL d   1      27.702 -13.640   3.043  0.00  0.00     0.001 C 
ATOM     17  C   UNL d   1      28.571 -14.450   2.342  0.00  0.00     0.007 C 
ATOM     18  C   UNL d   1      28.478 -14.528   0.959  0.00  0.00    -0.053 C 
ATOM     19  C   UNL d   1      29.446 -15.427   0.298  0.00  0.00     0.049 C 
ENDBRANCH   4  13
ENDBRANCH   1   4
BRANCH   1  20
ATOM     20  C   UNL d   1      25.902 -15.920  -1.308  0.00  0.00     0.040 A 
ATOM     21  C   UNL d   1      26.787 -16.835  -0.720  0.00  0.00     0.030 A 
ATOM     22  C   UNL d   1      26.318 -18.035  -0.146  0.00  0.00     0.004 A 
ATOM     23  C   UNL d   1      24.953 -18.293  -0.034  0.00  0.00     0.024 A 
ATOM     24  C   UNL d   1      24.068 -17.397  -0.592  0.00  0.00     0.036 A 
ATOM     25 CL   UNL d   1      22.369 -17.677  -0.520  0.00  0.00    -0.084 Cl
ATOM     26  C   UNL d   1      24.556 -16.287  -1.280  0.00  0.00     0.053 A 
ENDBRANCH   1  20
BRANCH   2  27
ATOM     27  C   UNL d   1      26.724 -14.088  -4.382  0.00  0.00     0.035 A 
ATOM     28  C   UNL d   1      27.507 -15.106  -4.952  0.00  0.00     0.017 A 
ATOM     29  C   UNL d   1      28.235 -14.872  -6.123  0.00  0.00     0.003 A 
ATOM     30  C   UNL d   1      28.156 -13.634  -6.766  0.00  0.00     0.036 A 
ATOM     31  C   UNL d   1      27.378 -12.617  -6.202  0.00  0.00     0.103 A 
ATOM     32  C   UNL d   1      26.726 -12.820  -4.981  0.00  0.00     0.053 A 
BRANCH  31  33
ATOM     33  N   UNL d   1      27.116 -11.377  -6.957  0.00  0.00    -0.116 N 
ATOM     34  O   UNL d   1      28.092 -10.728  -7.357  0.00  0.00    -0.532 OA
ATOM     35  O   UNL d   1      25.934 -11.075  -7.173  0.00  0.00    -0.532 OA
ENDBRANCH  31  33
ENDBRANCH   2  27
TORSDOF 7
ENDMDL
MODEL 8
REMARK VINA RESULT:    -7.134      2.130      4.520
REMARK INTER + INTRA:         -13.483
REMARK INTER:                  -9.223
REMARK INTRA:                  -4.261
REMARK CONF_INDEPENDENT:        2.088
REMARK UNBOUND:                -4.261
REMARK  7 active torsions:
REMARK  status: ('A' for Active; 'I' for Inactive)
REMARK    1  A    between atoms: C_8  and  C_7 
REMARK    2  A    between atoms: C_8  and  N_16 
REMARK    3  A    between atoms: C_8  and  C_9 
REMARK       I    between atoms: C_9  and  N_11 
REMARK    4  A    between atoms: N_11  and  C_12 
REMARK       I    between atoms: N_16  and  C_17 
REMARK    5  A    between atoms: N_16  and  C_28 
REMARK    6  A    between atoms: C_17  and  C_19 
REMARK    7  A    between atoms: C_23  and  N_24 
ROOT
ATOM      1  N   UNL d   1      27.117 -14.184   0.261  0.00  0.00    -0.296 N 
ATOM      2  C   UNL d   1      27.691 -13.976   1.511  0.00  0.00     0.259 C 
ATOM      3  O   UNL d   1      28.462 -14.810   2.017  0.00  0.00    -0.267 OA
ENDROOT
BRANCH   1   4
ATOM      4  C   UNL d   1      27.141 -13.145  -0.836  0.00  0.00     0.219 C 
BRANCH   4   5
ATOM      5  C   UNL d   1      28.333 -12.097  -1.034  0.00  0.00     0.246 C 
ATOM      6  O   UNL d   1      29.454 -12.570  -1.248  0.00  0.00    -0.271 OA
ATOM      7  N   UNL d   1      28.182 -10.713  -0.822  0.00  0.00    -0.351 N 
ATOM      8  H   UNL d   1      27.274 -10.310  -0.607  0.00  0.00     0.163 HD
BRANCH   7   9
ATOM      9  C   UNL d   1      29.363  -9.815  -0.658  0.00  0.00     0.022 C 
ATOM     10  C   UNL d   1      28.951  -8.342  -0.466  0.00  0.00     0.037 C 
ATOM     11  C   UNL d   1      30.170 -10.255   0.558  0.00  0.00     0.037 C 
ATOM     12  C   UNL d   1      30.302  -9.852  -1.885  0.00  0.00     0.037 C 
ENDBRANCH   7   9
ENDBRANCH   4   5
BRANCH   4  13
ATOM     13  C   UNL d   1      26.701 -13.639  -2.234  0.00  0.00    -0.020 C 
ATOM     14  C   UNL d   1      25.529 -13.132  -2.830  0.00  0.00     0.010 C 
ATOM     15  C   UNL d   1      24.974 -13.783  -3.941  0.00  0.00     0.001 C 
ATOM     16  C   UNL d   1      25.661 -14.815  -4.572  0.00  0.00     0.001 C 
ATOM     17  C   UNL d   1      26.896 -15.207  -4.099  0.00  0.00     0.007 C 
ATOM     18  C   UNL d   1      27.384 -14.668  -2.917  0.00  0.00    -0.053 C 
ATOM     19  C   UNL d   1      28.718 -15.143  -2.494  0.00  0.00     0.049 C 
ENDBRANCH   4  13
ENDBRANCH   1   4
BRANCH   1  20
ATOM     20  C   UNL d   1      26.509 -15.495   0.039  0.00  0.00     0.040 A 
ATOM     21  C   UNL d   1      27.266 -16.670   0.151  0.00  0.00     0.030 A 
ATOM     22  C   UNL d   1      26.700 -17.931  -0.133  0.00  0.00     0.004 A 
ATOM     23  C   UNL d   1      25.341 -18.061  -0.414  0.00  0.00     0.024 A 
ATOM     24  C   UNL d   1      24.578 -16.919  -0.512  0.00  0.00     0.036 A 
ATOM     25 CL   UNL d   1      22.900 -17.011  -0.893  0.00  0.00    -0.084 Cl
ATOM     26  C   UNL d   1      25.186 -15.672  -0.368  0.00  0.00     0.053 A 
ENDBRANCH   1  20
BRANCH   2  27
ATOM     27  C   UNL d   1      27.387 -12.741   2.303  0.00  0.00     0.035 A 
ATOM     28  C   UNL d   1      27.929 -12.618   3.593  0.00  0.00     0.017 A 
ATOM     29  C   UNL d   1      27.785 -11.428   4.314  0.00  0.00     0.003 A 
ATOM     30  C   UNL d   1      27.138 -10.331   3.741  0.00  0.00     0.036 A 
ATOM     31  C   UNL d   1      26.594 -10.449   2.458  0.00  0.00     0.103 A 
ATOM     32  C   UNL d   1      26.656 -11.668   1.773  0.00  0.00     0.053 A 
BRANCH  31  33
ATOM     33  N   UNL d   1      26.087  -9.256   1.752  0.00  0.00    -0.116 N 
ATOM     34  O   UNL d   1      25.531  -8.380   2.429  0.00  0.00    -0.532 OA
ATOM     35  O   UNL d   1      26.277  -9.188   0.530  0.00  0.00    -0.532 OA
ENDBRANCH  31  33
ENDBRANCH   2  27
TORSDOF 7
ENDMDL
MODEL 9
REMARK VINA RESULT:    -6.609      2.858      6.129
REMARK INTER + INTRA:         -12.884
REMARK INTER:                  -8.697
REMARK INTRA:                  -4.187
REMARK CONF_INDEPENDENT:        2.088
REMARK UNBOUND:                -4.187
REMARK  7 active torsions:
REMARK  status: ('A' for Active; 'I' for Inactive)
REMARK    1  A    between atoms: C_8  and  C_7 
REMARK    2  A    between atoms: C_8  and  N_16 
REMARK    3  A    between atoms: C_8  and  C_9 
REMARK       I    between atoms: C_9  and  N_11 
REMARK    4  A    between atoms: N_11  and  C_12 
REMARK       I    between atoms: N_16  and  C_17 
REMARK    5  A    between atoms: N_16  and  C_28 
REMARK    6  A    between atoms: C_17  and  C_19 
REMARK    7  A    between atoms: C_23  and  N_24 
ROOT
ATOM      1  N   UNL d   1      26.008 -15.286  -2.185  0.00  0.00    -0.296 N 
ATOM      2  C   UNL d   1      26.321 -15.576  -3.509  0.00  0.00     0.259 C 
ATOM      3  O   UNL d   1      25.528 -16.193  -4.242  0.00  0.00    -0.267 OA
ENDROOT
BRANCH   1   4
ATOM      4  C   UNL d   1      26.154 -13.904  -1.591  0.00  0.00     0.219 C 
BRANCH   4   5
ATOM      5  C   UNL d   1      26.925 -13.608  -0.221  0.00  0.00     0.246 C 
ATOM      6  O   UNL d   1      26.280 -13.031   0.662  0.00  0.00    -0.271 OA
ATOM      7  N   UNL d   1      28.305 -13.831  -0.053  0.00  0.00    -0.351 N 
ATOM      8  H   UNL d   1      28.859 -14.270  -0.784  0.00  0.00     0.163 HD
BRANCH   7   9
ATOM      9  C   UNL d   1      29.061 -13.224   1.081  0.00  0.00     0.022 C 
ATOM     10  C   UNL d   1      29.071 -11.684   1.013  0.00  0.00     0.037 C 
ATOM     11  C   UNL d   1      28.424 -13.647   2.399  0.00  0.00     0.037 C 
ATOM     12  C   UNL d   1      30.540 -13.672   1.107  0.00  0.00     0.037 C 
ENDBRANCH   7   9
ENDBRANCH   4   5
BRANCH   4  13
ATOM     13  C   UNL d   1      26.509 -12.781  -2.593  0.00  0.00    -0.020 C 
ATOM     14  C   UNL d   1      27.650 -11.980  -2.385  0.00  0.00     0.010 C 
ATOM     15  C   UNL d   1      27.808 -10.791  -3.110  0.00  0.00     0.001 C 
ATOM     16  C   UNL d   1      26.947 -10.481  -4.159  0.00  0.00     0.001 C 
ATOM     17  C   UNL d   1      25.923 -11.347  -4.484  0.00  0.00     0.007 C 
ATOM     18  C   UNL d   1      25.673 -12.451  -3.680  0.00  0.00    -0.053 C 
ATOM     19  C   UNL d   1      24.562 -13.324  -4.113  0.00  0.00     0.049 C 
ENDBRANCH   4  13
ENDBRANCH   1   4
BRANCH   1  20
ATOM     20  C   UNL d   1      25.486 -16.395  -1.386  0.00  0.00     0.040 A 
ATOM     21  C   UNL d   1      26.303 -17.074  -0.472  0.00  0.00     0.030 A 
ATOM     22  C   UNL d   1      25.822 -18.188   0.247  0.00  0.00     0.004 A 
ATOM     23  C   UNL d   1      24.485 -18.574   0.163  0.00  0.00     0.024 A 
ATOM     24  C   UNL d   1      23.663 -17.908  -0.719  0.00  0.00     0.036 A 
ATOM     25 CL   UNL d   1      22.010 -18.362  -0.896  0.00  0.00    -0.084 Cl
ATOM     26  C   UNL d   1      24.193 -16.901  -1.524  0.00  0.00     0.053 A 
ENDBRANCH   1  20
BRANCH   2  27
ATOM     27  C   UNL d   1      27.636 -15.166  -4.098  0.00  0.00     0.035 A 
ATOM     28  C   UNL d   1      27.688 -14.833  -5.462  0.00  0.00     0.017 A 
ATOM     29  C   UNL d   1      28.860 -14.316  -6.023  0.00  0.00     0.003 A 
ATOM     30  C   UNL d   1      29.981 -14.083  -5.223  0.00  0.00     0.036 A 
ATOM     31  C   UNL d   1      29.935 -14.415  -3.865  0.00  0.00     0.103 A 
ATOM     32  C   UNL d   1      28.795 -15.019  -3.323  0.00  0.00     0.053 A 
BRANCH  31  33
ATOM     33  N   UNL d   1      31.023 -13.997  -2.960  0.00  0.00    -0.116 N 
ATOM     34  O   UNL d   1      32.090 -13.632  -3.472  0.00  0.00    -0.532 OA
ATOM     35  O   UNL d   1      30.792 -14.005  -1.743  0.00  0.00    -0.532 OA
ENDBRANCH  31  33
ENDBRANCH   2  27
TORSDOF 7
ENDMDL
