MODEL 1
REMARK VINA RESULT:   -10.190      0.000      0.000
REMARK INTER + INTRA:         -15.148
REMARK INTER:                 -12.576
REMARK INTRA:                  -2.571
REMARK CONF_INDEPENDENT:        2.386
REMARK UNBOUND:                -2.571
REMARK  8 active torsions:
REMARK  status: ('A' for Active; 'I' for Inactive)
REMARK       I    between atoms: C_2  and  N_3 
REMARK    1  A    between atoms: C_2  and  C_27 
REMARK    2  A    between atoms: N_3  and  C_4 
REMARK    3  A    between atoms: C_7  and  C_8 
REMARK    4  A    between atoms: C_8  and  C_9 
REMARK    5  A    between atoms: C_12  and  N_13 
REMARK       I    between atoms: N_13  and  C_14 
REMARK    6  A    between atoms: C_16  and  C_14 
REMARK    7  A    between atoms: C_21  and  O_22 
REMARK    8  A    between atoms: C_25  and  O_26 
ROOT
ATOM      1  C   UNL d   1      26.725 -16.346  -1.612  0.00  0.00     0.077 C 
ENDROOT
BRANCH   1   2
ATOM      2  C   UNL d   1      25.386 -16.856  -1.112  0.00  0.00    -0.051 A 
ATOM      3  C   UNL d   1      24.337 -15.957  -0.895  0.00  0.00     0.010 A 
ATOM      4  C   UNL d   1      23.075 -16.421  -0.484  0.00  0.00     0.033 A 
ATOM      5  C   UNL d   1      22.864 -17.789  -0.249  0.00  0.00     0.068 A 
ATOM      6  C   UNL d   1      23.898 -18.681  -0.505  0.00  0.00     0.092 A 
ATOM      7  C   UNL d   1      25.148 -18.221  -0.880  0.00  0.00     0.046 A 
BRANCH   5   8
ATOM      8  N   UNL d   1      21.624 -18.259   0.229  0.00  0.00    -0.323 N 
ATOM      9  C   UNL d   1      20.732 -19.006  -0.560  0.00  0.00     0.251 C 
ATOM     10  O   UNL d   1      20.985 -19.482  -1.667  0.00  0.00    -0.270 OA
ATOM     11  H   UNL d   1      21.402 -18.106   1.204  0.00  0.00     0.169 HD
BRANCH   9  12
ATOM     12  C   UNL d   1      19.417 -19.318   0.176  0.00  0.00     0.213 C 
ATOM     13  C   UNL d   1      19.499 -19.605   1.676  0.00  0.00     0.044 C 
ATOM     14  C   UNL d   1      18.332 -20.543   1.886  0.00  0.00     0.029 C 
ATOM     15  C   UNL d   1      18.324 -21.338   0.603  0.00  0.00     0.168 C 
ATOM     16  O   UNL d   1      18.763 -20.448  -0.430  0.00  0.00    -0.376 OA
ENDBRANCH   9  12
ENDBRANCH   5   8
BRANCH   6  17
ATOM     17  O   UNL d   1      23.657 -20.030  -0.520  0.00  0.00    -0.358 OA
ATOM     18  H   UNL d   1      23.348 -20.301   0.357  0.00  0.00     0.217 HD
ENDBRANCH   6  17
ENDBRANCH   1   2
BRANCH   1  19
ATOM     19  C   UNL d   1      26.660 -15.012  -2.314  0.00  0.00    -0.051 A 
ATOM     20  C   UNL d   1      27.524 -13.948  -2.021  0.00  0.00     0.010 A 
ATOM     21  C   UNL d   1      27.291 -12.669  -2.559  0.00  0.00     0.033 A 
ATOM     22  C   UNL d   1      26.237 -12.450  -3.473  0.00  0.00     0.068 A 
ATOM     23  C   UNL d   1      25.430 -13.555  -3.786  0.00  0.00     0.092 A 
ATOM     24  C   UNL d   1      25.624 -14.798  -3.205  0.00  0.00     0.046 A 
BRANCH  22  25
ATOM     25  N   UNL d   1      26.076 -11.130  -3.996  0.00  0.00    -0.323 N 
ATOM     26  C   UNL d   1      25.911 -10.771  -5.321  0.00  0.00     0.251 C 
ATOM     27  O   UNL d   1      25.894 -11.567  -6.269  0.00  0.00    -0.270 OA
ATOM     28  H   UNL d   1      26.086 -10.395  -3.299  0.00  0.00     0.169 HD
BRANCH  26  29
ATOM     29  C   UNL d   1      25.794  -9.307  -5.710  0.00  0.00     0.213 C 
ATOM     30  C   UNL d   1      24.425  -8.856  -6.146  0.00  0.00     0.044 C 
ATOM     31  C   UNL d   1      23.889  -8.221  -4.888  0.00  0.00     0.029 C 
ATOM     32  C   UNL d   1      25.126  -7.660  -4.219  0.00  0.00     0.168 C 
ATOM     33  O   UNL d   1      26.217  -8.480  -4.625  0.00  0.00    -0.376 OA
ENDBRANCH  26  29
ENDBRANCH  22  25
BRANCH  23  34
ATOM     34  O   UNL d   1      24.376 -13.615  -4.644  0.00  0.00    -0.358 OA
ATOM     35  H   UNL d   1      24.592 -13.101  -5.443  0.00  0.00     0.217 HD
ENDBRANCH  23  34
ENDBRANCH   1  19
TORSDOF 8
ENDMDL
MODEL 2
REMARK VINA RESULT:    -9.662      1.784      2.173
REMARK INTER + INTRA:         -14.777
REMARK INTER:                 -12.049
REMARK INTRA:                  -2.728
REMARK CONF_INDEPENDENT:        2.386
REMARK UNBOUND:                -2.728
REMARK  8 active torsions:
REMARK  status: ('A' for Active; 'I' for Inactive)
REMARK       I    between atoms: C_2  and  N_3 
REMARK    1  A    between atoms: C_2  and  C_27 
REMARK    2  A    between atoms: N_3  and  C_4 
REMARK    3  A    between atoms: C_7  and  C_8 
REMARK    4  A    between atoms: C_8  and  C_9 
REMARK    5  A    between atoms: C_12  and  N_13 
REMARK       I    between atoms: N_13  and  C_14 
REMARK    6  A    between atoms: C_16  and  C_14 
REMARK    7  A    between atoms: C_21  and  O_22 
REMARK    8  A    between atoms: C_25  and  O_26 
ROOT
ATOM      1  C   UNL d   1      26.685 -16.334  -1.645  0.00  0.00     0.077 C 
ENDROOT
BRANCH   1   2
ATOM      2  C   UNL d   1      25.352 -16.845  -1.132  0.00  0.00    -0.051 A 
ATOM      3  C   UNL d   1      24.293 -15.950  -0.940  0.00  0.00     0.010 A 
ATOM      4  C   UNL d   1      23.035 -16.417  -0.519  0.00  0.00     0.033 A 
ATOM      5  C   UNL d   1      22.838 -17.780  -0.247  0.00  0.00     0.068 A 
ATOM      6  C   UNL d   1      23.882 -18.668  -0.478  0.00  0.00     0.092 A 
ATOM      7  C   UNL d   1      25.128 -18.205  -0.864  0.00  0.00     0.046 A 
BRANCH   5   8
ATOM      8  N   UNL d   1      21.602 -18.251   0.242  0.00  0.00    -0.323 N 
ATOM      9  C   UNL d   1      20.696 -18.983  -0.544  0.00  0.00     0.251 C 
ATOM     10  O   UNL d   1      20.931 -19.445  -1.660  0.00  0.00    -0.270 OA
ATOM     11  H   UNL d   1      21.395 -18.109   1.222  0.00  0.00     0.169 HD
BRANCH   9  12
ATOM     12  C   UNL d   1      19.390 -19.298   0.207  0.00  0.00     0.213 C 
ATOM     13  C   UNL d   1      19.508 -19.958   1.581  0.00  0.00     0.044 C 
ATOM     14  C   UNL d   1      18.230 -20.761   1.661  0.00  0.00     0.029 C 
ATOM     15  C   UNL d   1      18.040 -21.204   0.231  0.00  0.00     0.168 C 
ATOM     16  O   UNL d   1      18.549 -20.148  -0.593  0.00  0.00    -0.376 OA
ENDBRANCH   9  12
ENDBRANCH   5   8
BRANCH   6  17
ATOM     17  O   UNL d   1      23.656 -20.019  -0.457  0.00  0.00    -0.358 OA
ATOM     18  H   UNL d   1      22.779 -20.194  -0.830  0.00  0.00     0.217 HD
ENDBRANCH   6  17
ENDBRANCH   1   2
BRANCH   1  19
ATOM     19  C   UNL d   1      26.580 -15.187  -2.620  0.00  0.00    -0.051 A 
ATOM     20  C   UNL d   1      26.048 -13.936  -2.278  0.00  0.00     0.010 A 
ATOM     21  C   UNL d   1      25.789 -12.975  -3.272  0.00  0.00     0.033 A 
ATOM     22  C   UNL d   1      26.139 -13.213  -4.619  0.00  0.00     0.068 A 
ATOM     23  C   UNL d   1      26.723 -14.456  -4.911  0.00  0.00     0.092 A 
ATOM     24  C   UNL d   1      26.918 -15.425  -3.939  0.00  0.00     0.046 A 
BRANCH  22  25
ATOM     25  N   UNL d   1      25.867 -12.181  -5.569  0.00  0.00    -0.323 N 
ATOM     26  C   UNL d   1      26.718 -11.701  -6.548  0.00  0.00     0.251 C 
ATOM     27  O   UNL d   1      27.875 -12.102  -6.732  0.00  0.00    -0.270 OA
ATOM     28  H   UNL d   1      24.943 -11.774  -5.497  0.00  0.00     0.169 HD
BRANCH  26  29
ATOM     29  C   UNL d   1      26.280 -10.563  -7.454  0.00  0.00     0.213 C 
ATOM     30  C   UNL d   1      27.118  -9.315  -7.383  0.00  0.00     0.044 C 
ATOM     31  C   UNL d   1      28.021  -9.476  -8.580  0.00  0.00     0.029 C 
ATOM     32  C   UNL d   1      27.163 -10.231  -9.573  0.00  0.00     0.168 C 
ATOM     33  O   UNL d   1      26.245 -11.008  -8.810  0.00  0.00    -0.376 OA
ENDBRANCH  26  29
ENDBRANCH  22  25
BRANCH  23  34
ATOM     34  O   UNL d   1      27.166 -14.921  -6.110  0.00  0.00    -0.358 OA
ATOM     35  H   UNL d   1      27.636 -14.203  -6.570  0.00  0.00     0.217 HD
ENDBRANCH  23  34
ENDBRANCH   1  19
TORSDOF 8
ENDMDL
MODEL 3
REMARK VINA RESULT:    -9.645      1.265     10.135
REMARK INTER + INTRA:         -14.871
REMARK INTER:                 -12.032
REMARK INTRA:                  -2.839
REMARK CONF_INDEPENDENT:        2.386
REMARK UNBOUND:                -2.839
REMARK  8 active torsions:
REMARK  status: ('A' for Active; 'I' for Inactive)
REMARK       I    between atoms: C_2  and  N_3 
REMARK    1  A    between atoms: C_2  and  C_27 
REMARK    2  A    between atoms: N_3  and  C_4 
REMARK    3  A    between atoms: C_7  and  C_8 
REMARK    4  A    between atoms: C_8  and  C_9 
REMARK    5  A    between atoms: C_12  and  N_13 
REMARK       I    between atoms: N_13  and  C_14 
REMARK    6  A    between atoms: C_16  and  C_14 
REMARK    7  A    between atoms: C_21  and  O_22 
REMARK    8  A    between atoms: C_25  and  O_26 
ROOT
ATOM      1  C   UNL d   1      26.918 -15.648  -0.872  0.00  0.00     0.077 C 
ENDROOT
BRANCH   1   2
ATOM      2  C   UNL d   1      26.584 -14.488  -1.791  0.00  0.00    -0.051 A 
ATOM      3  C   UNL d   1      27.129 -13.225  -1.541  0.00  0.00     0.010 A 
ATOM      4  C   UNL d   1      26.873 -12.153  -2.415  0.00  0.00     0.033 A 
ATOM      5  C   UNL d   1      26.034 -12.330  -3.527  0.00  0.00     0.068 A 
ATOM      6  C   UNL d   1      25.528 -13.596  -3.792  0.00  0.00     0.092 A 
ATOM      7  C   UNL d   1      25.756 -14.643  -2.915  0.00  0.00     0.046 A 
BRANCH   5   8
ATOM      8  N   UNL d   1      25.713 -11.247  -4.372  0.00  0.00    -0.323 N 
ATOM      9  C   UNL d   1      26.644 -10.259  -4.737  0.00  0.00     0.251 C 
ATOM     10  O   UNL d   1      27.855 -10.306  -4.524  0.00  0.00    -0.270 OA
ATOM     11  H   UNL d   1      24.790 -11.224  -4.783  0.00  0.00     0.169 HD
BRANCH   9  12
ATOM     12  C   UNL d   1      26.013  -9.148  -5.595  0.00  0.00     0.213 C 
ATOM     13  C   UNL d   1      25.788  -7.787  -4.934  0.00  0.00     0.044 C 
ATOM     14  C   UNL d   1      24.582  -7.265  -5.681  0.00  0.00     0.029 C 
ATOM     15  C   UNL d   1      23.786  -8.524  -5.927  0.00  0.00     0.168 C 
ATOM     16  O   UNL d   1      24.739  -9.578  -6.108  0.00  0.00    -0.376 OA
ENDBRANCH   9  12
ENDBRANCH   5   8
BRANCH   6  17
ATOM     17  O   UNL d   1      24.911 -13.857  -4.987  0.00  0.00    -0.358 OA
ATOM     18  H   UNL d   1      23.960 -13.702  -4.888  0.00  0.00     0.217 HD
ENDBRANCH   6  17
ENDBRANCH   1   2
BRANCH   1  19
ATOM     19  C   UNL d   1      25.748 -16.543  -0.546  0.00  0.00    -0.051 A 
ATOM     20  C   UNL d   1      25.884 -17.905  -0.242  0.00  0.00     0.010 A 
ATOM     21  C   UNL d   1      24.751 -18.732  -0.146  0.00  0.00     0.033 A 
ATOM     22  C   UNL d   1      23.450 -18.194  -0.263  0.00  0.00     0.068 A 
ATOM     23  C   UNL d   1      23.355 -16.815  -0.509  0.00  0.00     0.092 A 
ATOM     24  C   UNL d   1      24.475 -16.016  -0.668  0.00  0.00     0.046 A 
BRANCH  22  25
ATOM     25  N   UNL d   1      22.346 -19.092  -0.130  0.00  0.00    -0.323 N 
ATOM     26  C   UNL d   1      21.067 -18.922  -0.629  0.00  0.00     0.251 C 
ATOM     27  O   UNL d   1      20.687 -17.933  -1.268  0.00  0.00    -0.270 OA
ATOM     28  H   UNL d   1      22.549 -19.937   0.390  0.00  0.00     0.169 HD
BRANCH  26  29
ATOM     29  C   UNL d   1      19.995 -19.964  -0.358  0.00  0.00     0.213 C 
ATOM     30  C   UNL d   1      20.335 -20.992   0.688  0.00  0.00     0.044 C 
ATOM     31  C   UNL d   1      19.637 -20.442   1.906  0.00  0.00     0.029 C 
ATOM     32  C   UNL d   1      18.423 -19.741   1.333  0.00  0.00     0.168 C 
ATOM     33  O   UNL d   1      18.777 -19.322   0.019  0.00  0.00    -0.376 OA
ENDBRANCH  26  29
ENDBRANCH  22  25
BRANCH  23  34
ATOM     34  O   UNL d   1      22.233 -16.056  -0.641  0.00  0.00    -0.358 OA
ATOM     35  H   UNL d   1      21.464 -16.583  -0.361  0.00  0.00     0.217 HD
ENDBRANCH  23  34
ENDBRANCH   1  19
TORSDOF 8
ENDMDL
MODEL 4
REMARK VINA RESULT:    -9.414      5.924      9.965
REMARK INTER + INTRA:         -14.507
REMARK INTER:                 -11.800
REMARK INTRA:                  -2.707
REMARK CONF_INDEPENDENT:        2.386
REMARK UNBOUND:                -2.707
REMARK  8 active torsions:
REMARK  status: ('A' for Active; 'I' for Inactive)
REMARK       I    between atoms: C_2  and  N_3 
REMARK    1  A    between atoms: C_2  and  C_27 
REMARK    2  A    between atoms: N_3  and  C_4 
REMARK    3  A    between atoms: C_7  and  C_8 
REMARK    4  A    between atoms: C_8  and  C_9 
REMARK    5  A    between atoms: C_12  and  N_13 
REMARK       I    between atoms: N_13  and  C_14 
REMARK    6  A    between atoms: C_16  and  C_14 
REMARK    7  A    between atoms: C_21  and  O_22 
REMARK    8  A    between atoms: C_25  and  O_26 
ROOT
ATOM      1  C   UNL d   1      27.336 -14.244  -0.615  0.00  0.00     0.077 C 
ENDROOT
BRANCH   1   2
ATOM      2  C   UNL d   1      27.750 -13.890   0.800  0.00  0.00    -0.051 A 
ATOM      3  C   UNL d   1      26.896 -13.126   1.603  0.00  0.00     0.010 A 
ATOM      4  C   UNL d   1      27.241 -12.837   2.936  0.00  0.00     0.033 A 
ATOM      5  C   UNL d   1      28.466 -13.276   3.463  0.00  0.00     0.068 A 
ATOM      6  C   UNL d   1      29.291 -14.068   2.673  0.00  0.00     0.092 A 
ATOM      7  C   UNL d   1      28.965 -14.327   1.353  0.00  0.00     0.046 A 
BRANCH   5   8
ATOM      8  N   UNL d   1      28.855 -12.935   4.774  0.00  0.00    -0.323 N 
ATOM      9  C   UNL d   1      29.194 -13.891   5.746  0.00  0.00     0.251 C 
ATOM     10  O   UNL d   1      29.365 -15.092   5.537  0.00  0.00    -0.270 OA
ATOM     11  H   UNL d   1      28.956 -11.954   4.999  0.00  0.00     0.169 HD
BRANCH   9  12
ATOM     12  C   UNL d   1      29.497 -13.255   7.115  0.00  0.00     0.213 C 
ATOM     13  C   UNL d   1      29.243 -14.105   8.360  0.00  0.00     0.044 C 
ATOM     14  C   UNL d   1      28.904 -13.059   9.397  0.00  0.00     0.029 C 
ATOM     15  C   UNL d   1      28.155 -12.031   8.584  0.00  0.00     0.168 C 
ATOM     16  O   UNL d   1      28.742 -12.041   7.277  0.00  0.00    -0.376 OA
ENDBRANCH   9  12
ENDBRANCH   5   8
BRANCH   6  17
ATOM     17  O   UNL d   1      30.367 -14.710   3.227  0.00  0.00    -0.358 OA
ATOM     18  H   UNL d   1      30.080 -15.575   3.555  0.00  0.00     0.217 HD
ENDBRANCH   6  17
ENDBRANCH   1   2
BRANCH   1  19
ATOM     19  C   UNL d   1      26.403 -15.425  -0.714  0.00  0.00    -0.051 A 
ATOM     20  C   UNL d   1      25.224 -15.410  -1.474  0.00  0.00     0.010 A 
ATOM     21  C   UNL d   1      24.294 -16.460  -1.370  0.00  0.00     0.033 A 
ATOM     22  C   UNL d   1      24.566 -17.591  -0.569  0.00  0.00     0.068 A 
ATOM     23  C   UNL d   1      25.783 -17.594   0.131  0.00  0.00     0.092 A 
ATOM     24  C   UNL d   1      26.668 -16.529   0.075  0.00  0.00     0.046 A 
BRANCH  22  25
ATOM     25  N   UNL d   1      23.584 -18.629  -0.531  0.00  0.00    -0.323 N 
ATOM     26  C   UNL d   1      22.211 -18.484  -0.612  0.00  0.00     0.251 C 
ATOM     27  O   UNL d   1      21.624 -17.400  -0.718  0.00  0.00    -0.270 OA
ATOM     28  H   UNL d   1      23.962 -19.564  -0.434  0.00  0.00     0.169 HD
BRANCH  26  29
ATOM     29  C   UNL d   1      21.305 -19.700  -0.514  0.00  0.00     0.213 C 
ATOM     30  C   UNL d   1      20.638 -19.908   0.819  0.00  0.00     0.044 C 
ATOM     31  C   UNL d   1      19.269 -19.323   0.579  0.00  0.00     0.029 C 
ATOM     32  C   UNL d   1      19.019 -19.597  -0.888  0.00  0.00     0.168 C 
ATOM     33  O   UNL d   1      20.294 -19.635  -1.520  0.00  0.00    -0.376 OA
ENDBRANCH  26  29
ENDBRANCH  22  25
BRANCH  23  34
ATOM     34  O   UNL d   1      26.288 -18.561   0.944  0.00  0.00    -0.358 OA
ATOM     35  H   UNL d   1      25.678 -18.691   1.691  0.00  0.00     0.217 HD
ENDBRANCH  23  34
ENDBRANCH   1  19
TORSDOF 8
ENDMDL
MODEL 5
REMARK VINA RESULT:    -9.298      3.739      5.134
REMARK INTER + INTRA:         -15.630
REMARK INTER:                 -11.685
REMARK INTRA:                  -3.945
REMARK CONF_INDEPENDENT:        2.386
REMARK UNBOUND:                -3.945
REMARK  8 active torsions:
REMARK  status: ('A' for Active; 'I' for Inactive)
REMARK       I    between atoms: C_2  and  N_3 
REMARK    1  A    between atoms: C_2  and  C_27 
REMARK    2  A    between atoms: N_3  and  C_4 
REMARK    3  A    between atoms: C_7  and  C_8 
REMARK    4  A    between atoms: C_8  and  C_9 
REMARK    5  A    between atoms: C_12  and  N_13 
REMARK       I    between atoms: N_13  and  C_14 
REMARK    6  A    between atoms: C_16  and  C_14 
REMARK    7  A    between atoms: C_21  and  O_22 
REMARK    8  A    between atoms: C_25  and  O_26 
ROOT
ATOM      1  C   UNL d   1      25.619 -15.069  -1.405  0.00  0.00     0.077 C 
ENDROOT
BRANCH   1   2
ATOM      2  C   UNL d   1      24.641 -16.158  -1.006  0.00  0.00    -0.051 A 
ATOM      3  C   UNL d   1      25.103 -17.293  -0.332  0.00  0.00     0.010 A 
ATOM      4  C   UNL d   1      24.201 -18.285   0.094  0.00  0.00     0.033 A 
ATOM      5  C   UNL d   1      22.831 -18.166  -0.189  0.00  0.00     0.068 A 
ATOM      6  C   UNL d   1      22.374 -17.018  -0.822  0.00  0.00     0.092 A 
ATOM      7  C   UNL d   1      23.265 -16.057  -1.267  0.00  0.00     0.046 A 
BRANCH   5   8
ATOM      8  N   UNL d   1      21.926 -19.186   0.171  0.00  0.00    -0.323 N 
ATOM      9  C   UNL d   1      20.850 -19.577  -0.644  0.00  0.00     0.251 C 
ATOM     10  O   UNL d   1      20.671 -19.222  -1.808  0.00  0.00    -0.270 OA
ATOM     11  H   UNL d   1      22.105 -19.700   1.024  0.00  0.00     0.169 HD
BRANCH   9  12
ATOM     12  C   UNL d   1      19.969 -20.649   0.023  0.00  0.00     0.213 C 
ATOM     13  C   UNL d   1      18.455 -20.523  -0.145  0.00  0.00     0.044 C 
ATOM     14  C   UNL d   1      17.939 -21.158   1.126  0.00  0.00     0.029 C 
ATOM     15  C   UNL d   1      18.981 -20.746   2.137  0.00  0.00     0.168 C 
ATOM     16  O   UNL d   1      20.230 -20.699   1.437  0.00  0.00    -0.376 OA
ENDBRANCH   9  12
ENDBRANCH   5   8
BRANCH   6  17
ATOM     17  O   UNL d   1      21.031 -16.759  -0.896  0.00  0.00    -0.358 OA
ATOM     18  H   UNL d   1      20.702 -17.056  -1.758  0.00  0.00     0.217 HD
ENDBRANCH   6  17
ENDBRANCH   1   2
BRANCH   1  19
ATOM     19  C   UNL d   1      26.667 -15.506  -2.398  0.00  0.00    -0.051 A 
ATOM     20  C   UNL d   1      27.907 -16.039  -2.020  0.00  0.00     0.010 A 
ATOM     21  C   UNL d   1      28.920 -16.240  -2.976  0.00  0.00     0.033 A 
ATOM     22  C   UNL d   1      28.681 -15.994  -4.346  0.00  0.00     0.068 A 
ATOM     23  C   UNL d   1      27.406 -15.516  -4.691  0.00  0.00     0.092 A 
ATOM     24  C   UNL d   1      26.433 -15.259  -3.738  0.00  0.00     0.046 A 
BRANCH  22  25
ATOM     25  N   UNL d   1      29.749 -16.244  -5.262  0.00  0.00    -0.323 N 
ATOM     26  C   UNL d   1      29.935 -15.669  -6.505  0.00  0.00     0.251 C 
ATOM     27  O   UNL d   1      29.170 -14.842  -7.019  0.00  0.00    -0.270 OA
ATOM     28  H   UNL d   1      30.432 -16.919  -4.940  0.00  0.00     0.169 HD
BRANCH  26  29
ATOM     29  C   UNL d   1      31.112 -16.081  -7.372  0.00  0.00     0.213 C 
ATOM     30  C   UNL d   1      32.216 -15.066  -7.498  0.00  0.00     0.044 C 
ATOM     31  C   UNL d   1      33.217 -15.565  -6.485  0.00  0.00     0.029 C 
ATOM     32  C   UNL d   1      33.026 -17.066  -6.508  0.00  0.00     0.168 C 
ATOM     33  O   UNL d   1      31.672 -17.301  -6.883  0.00  0.00    -0.376 OA
ENDBRANCH  26  29
ENDBRANCH  22  25
BRANCH  23  34
ATOM     34  O   UNL d   1      26.920 -15.224  -5.927  0.00  0.00    -0.358 OA
ATOM     35  H   UNL d   1      27.576 -14.684  -6.403  0.00  0.00     0.217 HD
ENDBRANCH  23  34
ENDBRANCH   1  19
TORSDOF 8
ENDMDL
MODEL 6
REMARK VINA RESULT:    -9.235      6.379     10.402
REMARK INTER + INTRA:         -14.502
REMARK INTER:                 -11.621
REMARK INTRA:                  -2.881
REMARK CONF_INDEPENDENT:        2.386
REMARK UNBOUND:                -2.881
REMARK  8 active torsions:
REMARK  status: ('A' for Active; 'I' for Inactive)
REMARK       I    between atoms: C_2  and  N_3 
REMARK    1  A    between atoms: C_2  and  C_27 
REMARK    2  A    between atoms: N_3  and  C_4 
REMARK    3  A    between atoms: C_7  and  C_8 
REMARK    4  A    between atoms: C_8  and  C_9 
REMARK    5  A    between atoms: C_12  and  N_13 
REMARK       I    between atoms: N_13  and  C_14 
REMARK    6  A    between atoms: C_16  and  C_14 
REMARK    7  A    between atoms: C_21  and  O_22 
REMARK    8  A    between atoms: C_25  and  O_26 
ROOT
ATOM      1  C   UNL d   1      28.097 -15.085  -0.045  0.00  0.00     0.077 C 
ENDROOT
BRANCH   1   2
ATOM      2  C   UNL d   1      28.662 -14.724   1.315  0.00  0.00    -0.051 A 
ATOM      3  C   UNL d   1      27.794 -14.473   2.384  0.00  0.00     0.010 A 
ATOM      4  C   UNL d   1      28.305 -14.191   3.664  0.00  0.00     0.033 A 
ATOM      5  C   UNL d   1      29.690 -14.119   3.875  0.00  0.00     0.068 A 
ATOM      6  C   UNL d   1      30.546 -14.408   2.820  0.00  0.00     0.092 A 
ATOM      7  C   UNL d   1      30.045 -14.656   1.554  0.00  0.00     0.046 A 
BRANCH   5   8
ATOM      8  N   UNL d   1      30.213 -13.769   5.137  0.00  0.00    -0.323 N 
ATOM      9  C   UNL d   1      29.554 -14.055   6.345  0.00  0.00     0.251 C 
ATOM     10  O   UNL d   1      28.565 -14.778   6.465  0.00  0.00    -0.270 OA
ATOM     11  H   UNL d   1      31.135 -13.354   5.170  0.00  0.00     0.169 HD
BRANCH   9  12
ATOM     12  C   UNL d   1      30.299 -13.490   7.568  0.00  0.00     0.213 C 
ATOM     13  C   UNL d   1      29.467 -13.138   8.801  0.00  0.00     0.044 C 
ATOM     14  C   UNL d   1      30.266 -12.011   9.415  0.00  0.00     0.029 C 
ATOM     15  C   UNL d   1      30.802 -11.297   8.197  0.00  0.00     0.168 C 
ATOM     16  O   UNL d   1      31.027 -12.304   7.203  0.00  0.00    -0.376 OA
ENDBRANCH   9  12
ENDBRANCH   5   8
BRANCH   6  17
ATOM     17  O   UNL d   1      31.886 -14.584   3.047  0.00  0.00    -0.358 OA
ATOM     18  H   UNL d   1      32.060 -14.473   3.993  0.00  0.00     0.217 HD
ENDBRANCH   6  17
ENDBRANCH   1   2
BRANCH   1  19
ATOM     19  C   UNL d   1      26.917 -16.024   0.000  0.00  0.00    -0.051 A 
ATOM     20  C   UNL d   1      26.970 -17.296   0.587  0.00  0.00     0.010 A 
ATOM     21  C   UNL d   1      25.907 -18.203   0.423  0.00  0.00     0.033 A 
ATOM     22  C   UNL d   1      24.729 -17.823  -0.257  0.00  0.00     0.068 A 
ATOM     23  C   UNL d   1      24.692 -16.520  -0.780  0.00  0.00     0.092 A 
ATOM     24  C   UNL d   1      25.767 -15.652  -0.672  0.00  0.00     0.046 A 
BRANCH  22  25
ATOM     25  N   UNL d   1      23.682 -18.790  -0.363  0.00  0.00    -0.323 N 
ATOM     26  C   UNL d   1      22.323 -18.545  -0.430  0.00  0.00     0.251 C 
ATOM     27  O   UNL d   1      21.808 -17.419  -0.392  0.00  0.00    -0.270 OA
ATOM     28  H   UNL d   1      23.997 -19.752  -0.392  0.00  0.00     0.169 HD
BRANCH  26  29
ATOM     29  C   UNL d   1      21.338 -19.700  -0.500  0.00  0.00     0.213 C 
ATOM     30  C   UNL d   1      20.628 -20.028   0.785  0.00  0.00     0.044 C 
ATOM     31  C   UNL d   1      19.305 -19.328   0.600  0.00  0.00     0.029 C 
ATOM     32  C   UNL d   1      19.072 -19.399  -0.894  0.00  0.00     0.168 C 
ATOM     33  O   UNL d   1      20.358 -19.443  -1.506  0.00  0.00    -0.376 OA
ENDBRANCH  26  29
ENDBRANCH  22  25
BRANCH  23  34
ATOM     34  O   UNL d   1      23.679 -15.908  -1.451  0.00  0.00    -0.358 OA
ATOM     35  H   UNL d   1      23.122 -16.589  -1.866  0.00  0.00     0.217 HD
ENDBRANCH  23  34
ENDBRANCH   1  19
TORSDOF 8
ENDMDL
MODEL 7
REMARK VINA RESULT:    -9.179      1.465      1.956
REMARK INTER + INTRA:         -14.928
REMARK INTER:                 -11.566
REMARK INTRA:                  -3.362
REMARK CONF_INDEPENDENT:        2.386
REMARK UNBOUND:                -3.362
REMARK  8 active torsions:
REMARK  status: ('A' for Active; 'I' for Inactive)
REMARK       I    between atoms: C_2  and  N_3 
REMARK    1  A    between atoms: C_2  and  C_27 
REMARK    2  A    between atoms: N_3  and  C_4 
REMARK    3  A    between atoms: C_7  and  C_8 
REMARK    4  A    between atoms: C_8  and  C_9 
REMARK    5  A    between atoms: C_12  and  N_13 
REMARK       I    between atoms: N_13  and  C_14 
REMARK    6  A    between atoms: C_16  and  C_14 
REMARK    7  A    between atoms: C_21  and  O_22 
REMARK    8  A    between atoms: C_25  and  O_26 
ROOT
ATOM      1  C   UNL d   1      26.612 -15.812  -1.736  0.00  0.00     0.077 C 
ENDROOT
BRANCH   1   2
ATOM      2  C   UNL d   1      25.454 -16.652  -1.232  0.00  0.00    -0.051 A 
ATOM      3  C   UNL d   1      25.708 -17.830  -0.520  0.00  0.00     0.010 A 
ATOM      4  C   UNL d   1      24.645 -18.589   0.002  0.00  0.00     0.033 A 
ATOM      5  C   UNL d   1      23.316 -18.197  -0.221  0.00  0.00     0.068 A 
ATOM      6  C   UNL d   1      23.072 -17.006  -0.893  0.00  0.00     0.092 A 
ATOM      7  C   UNL d   1      24.116 -16.274  -1.432  0.00  0.00     0.046 A 
BRANCH   5   8
ATOM      8  N   UNL d   1      22.241 -18.986   0.237  0.00  0.00    -0.323 N 
ATOM      9  C   UNL d   1      21.191 -19.407  -0.597  0.00  0.00     0.251 C 
ATOM     10  O   UNL d   1      21.166 -19.299  -1.823  0.00  0.00    -0.270 OA
ATOM     11  H   UNL d   1      22.268 -19.316   1.192  0.00  0.00     0.169 HD
BRANCH   9  12
ATOM     12  C   UNL d   1      20.106 -20.182   0.172  0.00  0.00     0.213 C 
ATOM     13  C   UNL d   1      18.828 -19.428   0.541  0.00  0.00     0.044 C 
ATOM     14  C   UNL d   1      18.401 -20.127   1.812  0.00  0.00     0.029 C 
ATOM     15  C   UNL d   1      19.724 -20.451   2.461  0.00  0.00     0.168 C 
ATOM     16  O   UNL d   1      20.646 -20.712   1.396  0.00  0.00    -0.376 OA
ENDBRANCH   9  12
ENDBRANCH   5   8
BRANCH   6  17
ATOM     17  O   UNL d   1      21.810 -16.473  -0.917  0.00  0.00    -0.358 OA
ATOM     18  H   UNL d   1      21.245 -17.032  -1.470  0.00  0.00     0.217 HD
ENDBRANCH   6  17
ENDBRANCH   1   2
BRANCH   1  19
ATOM     19  C   UNL d   1      26.201 -14.564  -2.476  0.00  0.00    -0.051 A 
ATOM     20  C   UNL d   1      25.571 -14.586  -3.728  0.00  0.00     0.010 A 
ATOM     21  C   UNL d   1      25.394 -13.398  -4.460  0.00  0.00     0.033 A 
ATOM     22  C   UNL d   1      25.763 -12.149  -3.913  0.00  0.00     0.068 A 
ATOM     23  C   UNL d   1      26.336 -12.163  -2.632  0.00  0.00     0.092 A 
ATOM     24  C   UNL d   1      26.568 -13.342  -1.942  0.00  0.00     0.046 A 
BRANCH  22  25
ATOM     25  N   UNL d   1      25.530 -10.983  -4.705  0.00  0.00    -0.323 N 
ATOM     26  C   UNL d   1      26.162  -9.758  -4.593  0.00  0.00     0.251 C 
ATOM     27  O   UNL d   1      27.034  -9.489  -3.756  0.00  0.00    -0.270 OA
ATOM     28  H   UNL d   1      24.821 -11.092  -5.420  0.00  0.00     0.169 HD
BRANCH  26  29
ATOM     29  C   UNL d   1      25.761  -8.604  -5.497  0.00  0.00     0.213 C 
ATOM     30  C   UNL d   1      24.407  -8.722  -6.143  0.00  0.00     0.044 C 
ATOM     31  C   UNL d   1      23.552  -7.872  -5.237  0.00  0.00     0.029 C 
ATOM     32  C   UNL d   1      24.505  -6.801  -4.752  0.00  0.00     0.168 C 
ATOM     33  O   UNL d   1      25.808  -7.376  -4.768  0.00  0.00    -0.376 OA
ENDBRANCH  26  29
ENDBRANCH  22  25
BRANCH  23  34
ATOM     34  O   UNL d   1      26.754 -11.109  -1.881  0.00  0.00    -0.358 OA
ATOM     35  H   UNL d   1      27.398 -10.592  -2.398  0.00  0.00     0.217 HD
ENDBRANCH  23  34
ENDBRANCH   1  19
TORSDOF 8
ENDMDL
MODEL 8
REMARK VINA RESULT:    -8.971      4.967      6.828
REMARK INTER + INTRA:         -14.785
REMARK INTER:                 -11.357
REMARK INTRA:                  -3.428
REMARK CONF_INDEPENDENT:        2.386
REMARK UNBOUND:                -3.428
REMARK  8 active torsions:
REMARK  status: ('A' for Active; 'I' for Inactive)
REMARK       I    between atoms: C_2  and  N_3 
REMARK    1  A    between atoms: C_2  and  C_27 
REMARK    2  A    between atoms: N_3  and  C_4 
REMARK    3  A    between atoms: C_7  and  C_8 
REMARK    4  A    between atoms: C_8  and  C_9 
REMARK    5  A    between atoms: C_12  and  N_13 
REMARK       I    between atoms: N_13  and  C_14 
REMARK    6  A    between atoms: C_16  and  C_14 
REMARK    7  A    between atoms: C_21  and  O_22 
REMARK    8  A    between atoms: C_25  and  O_26 
ROOT
ATOM      1  C   UNL d   1      25.986 -15.514  -1.548  0.00  0.00     0.077 C 
ENDROOT
BRANCH   1   2
ATOM      2  C   UNL d   1      24.930 -16.518  -1.126  0.00  0.00    -0.051 A 
ATOM      3  C   UNL d   1      25.312 -17.700  -0.482  0.00  0.00     0.010 A 
ATOM      4  C   UNL d   1      24.341 -18.614  -0.036  0.00  0.00     0.033 A 
ATOM      5  C   UNL d   1      22.978 -18.370  -0.268  0.00  0.00     0.068 A 
ATOM      6  C   UNL d   1      22.603 -17.177  -0.872  0.00  0.00     0.092 A 
ATOM      7  C   UNL d   1      23.560 -16.292  -1.337  0.00  0.00     0.046 A 
BRANCH   5   8
ATOM      8  N   UNL d   1      21.999 -19.311   0.113  0.00  0.00    -0.323 N 
ATOM      9  C   UNL d   1      20.901 -19.644  -0.699  0.00  0.00     0.251 C 
ATOM     10  O   UNL d   1      20.753 -19.308  -1.874  0.00  0.00    -0.270 OA
ATOM     11  H   UNL d   1      22.135 -19.814   0.979  0.00  0.00     0.169 HD
BRANCH   9  12
ATOM     12  C   UNL d   1      19.940 -20.631  -0.010  0.00  0.00     0.213 C 
ATOM     13  C   UNL d   1      18.440 -20.378  -0.162  0.00  0.00     0.044 C 
ATOM     14  C   UNL d   1      17.888 -20.954   1.122  0.00  0.00     0.029 C 
ATOM     15  C   UNL d   1      18.974 -20.622   2.116  0.00  0.00     0.168 C 
ATOM     16  O   UNL d   1      20.214 -20.688   1.401  0.00  0.00    -0.376 OA
ENDBRANCH   9  12
ENDBRANCH   5   8
BRANCH   6  17
ATOM     17  O   UNL d   1      21.286 -16.799  -0.895  0.00  0.00    -0.358 OA
ATOM     18  H   UNL d   1      20.735 -17.579  -0.729  0.00  0.00     0.217 HD
ENDBRANCH   6  17
ENDBRANCH   1   2
BRANCH   1  19
ATOM     19  C   UNL d   1      26.885 -15.050  -0.429  0.00  0.00    -0.051 A 
ATOM     20  C   UNL d   1      28.202 -15.502  -0.265  0.00  0.00     0.010 A 
ATOM     21  C   UNL d   1      28.923 -15.194   0.903  0.00  0.00     0.033 A 
ATOM     22  C   UNL d   1      28.372 -14.351   1.892  0.00  0.00     0.068 A 
ATOM     23  C   UNL d   1      27.073 -13.870   1.663  0.00  0.00     0.092 A 
ATOM     24  C   UNL d   1      26.342 -14.229   0.542  0.00  0.00     0.046 A 
BRANCH  22  25
ATOM     25  N   UNL d   1      29.173 -14.062   3.040  0.00  0.00    -0.323 N 
ATOM     26  C   UNL d   1      28.733 -13.856   4.335  0.00  0.00     0.251 C 
ATOM     27  O   UNL d   1      27.547 -13.880   4.687  0.00  0.00    -0.270 OA
ATOM     28  H   UNL d   1      30.168 -14.009   2.859  0.00  0.00     0.169 HD
BRANCH  26  29
ATOM     29  C   UNL d   1      29.724 -13.517   5.436  0.00  0.00     0.213 C 
ATOM     30  C   UNL d   1      29.476 -12.219   6.158  0.00  0.00     0.044 C 
ATOM     31  C   UNL d   1      28.763 -12.684   7.402  0.00  0.00     0.029 C 
ATOM     32  C   UNL d   1      29.360 -14.051   7.664  0.00  0.00     0.168 C 
ATOM     33  O   UNL d   1      29.760 -14.570   6.399  0.00  0.00    -0.376 OA
ENDBRANCH  26  29
ENDBRANCH  22  25
BRANCH  23  34
ATOM     34  O   UNL d   1      26.331 -13.035   2.440  0.00  0.00    -0.358 OA
ATOM     35  H   UNL d   1      26.580 -13.171   3.372  0.00  0.00     0.217 HD
ENDBRANCH  23  34
ENDBRANCH   1  19
TORSDOF 8
ENDMDL
MODEL 9
REMARK VINA RESULT:    -8.909      4.608      6.907
REMARK INTER + INTRA:         -14.742
REMARK INTER:                 -11.296
REMARK INTRA:                  -3.447
REMARK CONF_INDEPENDENT:        2.386
REMARK UNBOUND:                -3.447
REMARK  8 active torsions:
REMARK  status: ('A' for Active; 'I' for Inactive)
REMARK       I    between atoms: C_2  and  N_3 
REMARK    1  A    between atoms: C_2  and  C_27 
REMARK    2  A    between atoms: N_3  and  C_4 
REMARK    3  A    between atoms: C_7  and  C_8 
REMARK    4  A    between atoms: C_8  and  C_9 
REMARK    5  A    between atoms: C_12  and  N_13 
REMARK       I    between atoms: N_13  and  C_14 
REMARK    6  A    between atoms: C_16  and  C_14 
REMARK    7  A    between atoms: C_21  and  O_22 
REMARK    8  A    between atoms: C_25  and  O_26 
ROOT
ATOM      1  C   UNL d   1      25.672 -15.285  -1.416  0.00  0.00     0.077 C 
ENDROOT
BRANCH   1   2
ATOM      2  C   UNL d   1      24.656 -16.326  -0.985  0.00  0.00    -0.051 A 
ATOM      3  C   UNL d   1      25.074 -17.441  -0.250  0.00  0.00     0.010 A 
ATOM      4  C   UNL d   1      24.137 -18.386   0.204  0.00  0.00     0.033 A 
ATOM      5  C   UNL d   1      22.776 -18.243  -0.109  0.00  0.00     0.068 A 
ATOM      6  C   UNL d   1      22.363 -17.113  -0.804  0.00  0.00     0.092 A 
ATOM      7  C   UNL d   1      23.289 -16.199  -1.277  0.00  0.00     0.046 A 
BRANCH   5   8
ATOM      8  N   UNL d   1      21.836 -19.219   0.280  0.00  0.00    -0.323 N 
ATOM      9  C   UNL d   1      20.768 -19.624  -0.539  0.00  0.00     0.251 C 
ATOM     10  O   UNL d   1      20.625 -19.325  -1.724  0.00  0.00    -0.270 OA
ATOM     11  H   UNL d   1      21.981 -19.692   1.162  0.00  0.00     0.169 HD
BRANCH   9  12
ATOM     12  C   UNL d   1      19.844 -20.637   0.160  0.00  0.00     0.213 C 
ATOM     13  C   UNL d   1      18.336 -20.455  -0.015  0.00  0.00     0.044 C 
ATOM     14  C   UNL d   1      17.793 -21.027   1.275  0.00  0.00     0.029 C 
ATOM     15  C   UNL d   1      18.850 -20.624   2.274  0.00  0.00     0.168 C 
ATOM     16  O   UNL d   1      20.101 -20.651   1.576  0.00  0.00    -0.376 OA
ENDBRANCH   9  12
ENDBRANCH   5   8
BRANCH   6  17
ATOM     17  O   UNL d   1      21.029 -16.821  -0.916  0.00  0.00    -0.358 OA
ATOM     18  H   UNL d   1      20.701 -17.176  -1.755  0.00  0.00     0.217 HD
ENDBRANCH   6  17
ENDBRANCH   1   2
BRANCH   1  19
ATOM     19  C   UNL d   1      27.100 -15.627  -1.071  0.00  0.00    -0.051 A 
ATOM     20  C   UNL d   1      27.875 -16.527  -1.817  0.00  0.00     0.010 A 
ATOM     21  C   UNL d   1      29.125 -16.961  -1.338  0.00  0.00     0.033 A 
ATOM     22  C   UNL d   1      29.664 -16.436  -0.143  0.00  0.00     0.068 A 
ATOM     23  C   UNL d   1      28.883 -15.493   0.544  0.00  0.00     0.092 A 
ATOM     24  C   UNL d   1      27.625 -15.117   0.102  0.00  0.00     0.046 A 
BRANCH  22  25
ATOM     25  N   UNL d   1      30.949 -16.906   0.268  0.00  0.00    -0.323 N 
ATOM     26  C   UNL d   1      32.181 -16.498  -0.210  0.00  0.00     0.251 C 
ATOM     27  O   UNL d   1      32.345 -15.651  -1.098  0.00  0.00    -0.270 OA
ATOM     28  H   UNL d   1      30.928 -17.616   0.991  0.00  0.00     0.169 HD
BRANCH  26  29
ATOM     29  C   UNL d   1      33.456 -17.137   0.314  0.00  0.00     0.213 C 
ATOM     30  C   UNL d   1      34.558 -16.181   0.687  0.00  0.00     0.044 C 
ATOM     31  C   UNL d   1      34.391 -16.079   2.183  0.00  0.00     0.029 C 
ATOM     32  C   UNL d   1      33.871 -17.446   2.575  0.00  0.00     0.168 C 
ATOM     33  O   UNL d   1      33.161 -17.952   1.449  0.00  0.00    -0.376 OA
ENDBRANCH  26  29
ENDBRANCH  22  25
BRANCH  23  34
ATOM     34  O   UNL d   1      29.178 -14.828   1.693  0.00  0.00    -0.358 OA
ATOM     35  H   UNL d   1      29.618 -15.443   2.307  0.00  0.00     0.217 HD
ENDBRANCH  23  34
ENDBRANCH   1  19
TORSDOF 8
ENDMDL
