MODEL 1
REMARK VINA RESULT:    -5.281      0.000      0.000
REMARK INTER + INTRA:         -11.908
REMARK INTER:                  -7.966
REMARK INTRA:                  -3.943
REMARK CONF_INDEPENDENT:        2.685
REMARK UNBOUND:                -3.943
REMARK  9 active torsions:
REMARK  status: ('A' for Active; 'I' for Inactive)
REMARK    1  A    between atoms: C_2  and  C_4 
REMARK    2  A    between atoms: C_5  and  C_4 
REMARK    3  A    between atoms: C_5  and  C_10 
REMARK    4  A    between atoms: C_5  and  N_6 
REMARK       I    between atoms: N_6  and  C_7 
REMARK       I    between atoms: C_7  and  N_8 
REMARK       I    between atoms: C_10  and  N_12 
REMARK    5  A    between atoms: N_12  and  C_13 
REMARK    6  A    between atoms: C_13  and  C_14 
REMARK    7  A    between atoms: C_14  and  N_15 
REMARK    8  A    between atoms: N_15  and  C_16 
REMARK    9  A    between atoms: C_21  and  N_22 
ROOT
ATOM      1  C   UNL d   1      24.817 -15.708  -2.021  0.00  0.00     0.240 C 
ATOM      2  O   UNL d   1      23.608 -15.575  -1.826  0.00  0.00    -0.271 OA
ATOM      3  N   UNL d   1      25.512 -14.790  -2.766  0.00  0.00    -0.358 N 
ATOM      4  H   UNL d   1      26.466 -15.001  -3.030  0.00  0.00     0.162 HD
ENDROOT
BRANCH   3   5
ATOM      5  C   UNL d   1      24.820 -13.703  -3.450  0.00  0.00     0.142 C 
BRANCH   5   6
ATOM      6  C   UNL d   1      25.749 -12.500  -3.599  0.00  0.00     0.139 C 
BRANCH   6   7
ATOM      7  N   UNL d   1      25.875 -12.038  -4.970  0.00  0.00    -0.386 N 
ATOM      8  H   UNL d   1      25.155 -11.429  -5.350  0.00  0.00     0.159 HD
BRANCH   7   9
ATOM      9  C   UNL d   1      26.914 -12.392  -5.817  0.00  0.00     0.061 A 
ATOM     10  C   UNL d   1      27.170 -11.503  -6.893  0.00  0.00     0.031 A 
ATOM     11  C   UNL d   1      28.164 -11.745  -7.852  0.00  0.00     0.002 A 
ATOM     12  C   UNL d   1      28.987 -12.852  -7.728  0.00  0.00     0.003 A 
ATOM     13  C   UNL d   1      28.788 -13.732  -6.671  0.00  0.00     0.038 A 
ATOM     14  C   UNL d   1      27.762 -13.522  -5.727  0.00  0.00     0.129 A 
BRANCH  14  15
ATOM     15  N   UNL d   1      27.578 -14.609  -4.746  0.00  0.00    -0.113 N 
ATOM     16  O   UNL d   1      28.193 -14.477  -3.652  0.00  0.00    -0.532 OA
ATOM     17  O   UNL d   1      26.909 -15.588  -5.020  0.00  0.00    -0.532 OA
ENDBRANCH  14  15
ENDBRANCH   7   9
ENDBRANCH   6   7
ENDBRANCH   5   6
ENDBRANCH   3   5
BRANCH   1  18
ATOM     18  C   UNL d   1      25.676 -16.883  -1.444  0.00  0.00     0.178 C 
BRANCH  18  19
ATOM     19  N   UNL d   1      27.046 -16.509  -1.897  0.00  0.00    -0.330 N 
ATOM     20  C   UNL d   1      28.268 -16.828  -1.387  0.00  0.00     0.314 C 
ATOM     21  N   UNL d   1      28.346 -17.458  -0.205  0.00  0.00    -0.352 N 
ATOM     22  O   UNL d   1      29.320 -16.473  -1.956  0.00  0.00    -0.248 OA
ATOM     23  H   UNL d   1      27.584 -17.989   0.178  0.00  0.00     0.160 HD
ATOM     24  H   UNL d   1      29.280 -17.705   0.112  0.00  0.00     0.160 HD
ATOM     25  H   UNL d   1      27.150 -16.199  -2.857  0.00  0.00     0.165 HD
ENDBRANCH  18  19
BRANCH  18  26
ATOM     26  C   UNL d   1      25.327 -17.077   0.179  0.00  0.00     0.038 C 
BRANCH  26  27
ATOM     27  C   UNL d   1      23.447 -18.632  -0.232  0.00  0.00    -0.020 C 
ATOM     28  C   UNL d   1      22.179 -17.828  -0.520  0.00  0.00     0.009 C 
ATOM     29  C   UNL d   1      24.947 -18.575  -0.248  0.00  0.00     0.009 C 
ENDBRANCH  26  27
ENDBRANCH  18  26
ENDBRANCH   1  18
TORSDOF 9
ENDMDL
MODEL 2
REMARK VINA RESULT:    -4.670      1.966      3.427
REMARK INTER + INTRA:         -12.028
REMARK INTER:                  -7.355
REMARK INTRA:                  -4.673
REMARK CONF_INDEPENDENT:        2.685
REMARK UNBOUND:                -4.673
REMARK  9 active torsions:
REMARK  status: ('A' for Active; 'I' for Inactive)
REMARK    1  A    between atoms: C_2  and  C_4 
REMARK    2  A    between atoms: C_5  and  C_4 
REMARK    3  A    between atoms: C_5  and  C_10 
REMARK    4  A    between atoms: C_5  and  N_6 
REMARK       I    between atoms: N_6  and  C_7 
REMARK       I    between atoms: C_7  and  N_8 
REMARK       I    between atoms: C_10  and  N_12 
REMARK    5  A    between atoms: N_12  and  C_13 
REMARK    6  A    between atoms: C_13  and  C_14 
REMARK    7  A    between atoms: C_14  and  N_15 
REMARK    8  A    between atoms: N_15  and  C_16 
REMARK    9  A    between atoms: C_21  and  N_22 
ROOT
ATOM      1  C   UNL d   1      26.391 -16.426  -0.506  0.00  0.00     0.240 C 
ATOM      2  O   UNL d   1      27.184 -17.155  -1.104  0.00  0.00    -0.271 OA
ATOM      3  N   UNL d   1      26.836 -15.347   0.214  0.00  0.00    -0.358 N 
ATOM      4  H   UNL d   1      26.181 -14.857   0.810  0.00  0.00     0.162 HD
ENDROOT
BRANCH   3   5
ATOM      5  C   UNL d   1      28.263 -15.105   0.394  0.00  0.00     0.142 C 
BRANCH   5   6
ATOM      6  C   UNL d   1      28.815 -14.310  -0.788  0.00  0.00     0.139 C 
BRANCH   6   7
ATOM      7  N   UNL d   1      28.163 -14.626  -2.046  0.00  0.00    -0.386 N 
ATOM      8  H   UNL d   1      28.108 -15.599  -2.338  0.00  0.00     0.159 HD
BRANCH   7   9
ATOM      9  C   UNL d   1      27.620 -13.678  -2.900  0.00  0.00     0.061 A 
ATOM     10  C   UNL d   1      27.305 -12.424  -2.317  0.00  0.00     0.031 A 
ATOM     11  C   UNL d   1      26.718 -11.380  -3.046  0.00  0.00     0.002 A 
ATOM     12  C   UNL d   1      26.490 -11.529  -4.404  0.00  0.00     0.003 A 
ATOM     13  C   UNL d   1      26.812 -12.733  -5.018  0.00  0.00     0.038 A 
ATOM     14  C   UNL d   1      27.361 -13.804  -4.286  0.00  0.00     0.129 A 
BRANCH  14  15
ATOM     15  N   UNL d   1      27.519 -15.064  -5.039  0.00  0.00    -0.113 N 
ATOM     16  O   UNL d   1      28.226 -15.952  -4.487  0.00  0.00    -0.532 OA
ATOM     17  O   UNL d   1      27.029 -15.195  -6.145  0.00  0.00    -0.532 OA
ENDBRANCH  14  15
ENDBRANCH   7   9
ENDBRANCH   6   7
ENDBRANCH   5   6
ENDBRANCH   3   5
BRANCH   1  18
ATOM     18  C   UNL d   1      24.837 -16.623  -0.515  0.00  0.00     0.178 C 
BRANCH  18  19
ATOM     19  N   UNL d   1      24.403 -15.576  -1.482  0.00  0.00    -0.330 N 
ATOM     20  C   UNL d   1      24.780 -15.347  -2.771  0.00  0.00     0.314 C 
ATOM     21  N   UNL d   1      25.804 -16.038  -3.292  0.00  0.00    -0.352 N 
ATOM     22  O   UNL d   1      24.244 -14.450  -3.453  0.00  0.00    -0.248 OA
ATOM     23  H   UNL d   1      26.108 -16.921  -2.920  0.00  0.00     0.160 HD
ATOM     24  H   UNL d   1      26.019 -15.856  -4.268  0.00  0.00     0.160 HD
ATOM     25  H   UNL d   1      23.522 -15.109  -1.298  0.00  0.00     0.165 HD
ENDBRANCH  18  19
BRANCH  18  26
ATOM     26  C   UNL d   1      24.487 -18.236  -0.774  0.00  0.00     0.038 C 
BRANCH  26  27
ATOM     27  C   UNL d   1      22.042 -17.921  -0.559  0.00  0.00    -0.020 C 
ATOM     28  C   UNL d   1      21.353 -19.286  -0.576  0.00  0.00     0.009 C 
ATOM     29  C   UNL d   1      23.343 -17.226  -0.283  0.00  0.00     0.009 C 
ENDBRANCH  26  27
ENDBRANCH  18  26
ENDBRANCH   1  18
TORSDOF 9
ENDMDL
MODEL 3
REMARK VINA RESULT:    -4.539      3.434      6.491
REMARK INTER + INTRA:         -11.819
REMARK INTER:                  -7.224
REMARK INTRA:                  -4.596
REMARK CONF_INDEPENDENT:        2.685
REMARK UNBOUND:                -4.596
REMARK  9 active torsions:
REMARK  status: ('A' for Active; 'I' for Inactive)
REMARK    1  A    between atoms: C_2  and  C_4 
REMARK    2  A    between atoms: C_5  and  C_4 
REMARK    3  A    between atoms: C_5  and  C_10 
REMARK    4  A    between atoms: C_5  and  N_6 
REMARK       I    between atoms: N_6  and  C_7 
REMARK       I    between atoms: C_7  and  N_8 
REMARK       I    between atoms: C_10  and  N_12 
REMARK    5  A    between atoms: N_12  and  C_13 
REMARK    6  A    between atoms: C_13  and  C_14 
REMARK    7  A    between atoms: C_14  and  N_15 
REMARK    8  A    between atoms: N_15  and  C_16 
REMARK    9  A    between atoms: C_21  and  N_22 
ROOT
ATOM      1  C   UNL d   1      27.436 -16.479  -1.021  0.00  0.00     0.240 C 
ATOM      2  O   UNL d   1      28.108 -17.505  -1.122  0.00  0.00    -0.271 OA
ATOM      3  N   UNL d   1      28.029 -15.243  -1.075  0.00  0.00    -0.358 N 
ATOM      4  H   UNL d   1      27.476 -14.428  -0.843  0.00  0.00     0.162 HD
ENDROOT
BRANCH   3   5
ATOM      5  C   UNL d   1      29.481 -15.112  -1.127  0.00  0.00     0.142 C 
BRANCH   5   6
ATOM      6  C   UNL d   1      29.981 -14.321   0.080  0.00  0.00     0.139 C 
BRANCH   6   7
ATOM      7  N   UNL d   1      29.644 -14.938   1.350  0.00  0.00    -0.386 N 
ATOM      8  H   UNL d   1      29.970 -15.883   1.538  0.00  0.00     0.159 HD
BRANCH   7   9
ATOM      9  C   UNL d   1      28.878 -14.328   2.332  0.00  0.00     0.061 A 
ATOM     10  C   UNL d   1      29.359 -14.450   3.661  0.00  0.00     0.031 A 
ATOM     11  C   UNL d   1      28.675 -13.918   4.763  0.00  0.00     0.002 A 
ATOM     12  C   UNL d   1      27.519 -13.180   4.567  0.00  0.00     0.003 A 
ATOM     13  C   UNL d   1      27.031 -13.013   3.276  0.00  0.00     0.038 A 
ATOM     14  C   UNL d   1      27.687 -13.582   2.166  0.00  0.00     0.129 A 
BRANCH  14  15
ATOM     15  N   UNL d   1      26.979 -13.442   0.878  0.00  0.00    -0.113 N 
ATOM     16  O   UNL d   1      27.464 -12.604   0.070  0.00  0.00    -0.532 OA
ATOM     17  O   UNL d   1      25.962 -14.072   0.655  0.00  0.00    -0.532 OA
ENDBRANCH  14  15
ENDBRANCH   7   9
ENDBRANCH   6   7
ENDBRANCH   5   6
ENDBRANCH   3   5
BRANCH   1  18
ATOM     18  C   UNL d   1      25.879 -16.461  -0.849  0.00  0.00     0.178 C 
BRANCH  18  19
ATOM     19  N   UNL d   1      25.427 -16.068  -2.213  0.00  0.00    -0.330 N 
ATOM     20  C   UNL d   1      25.408 -14.852  -2.827  0.00  0.00     0.314 C 
ATOM     21  N   UNL d   1      25.693 -13.750  -2.117  0.00  0.00    -0.352 N 
ATOM     22  O   UNL d   1      25.054 -14.732  -4.017  0.00  0.00    -0.248 OA
ATOM     23  H   UNL d   1      26.219 -13.777  -1.261  0.00  0.00     0.160 HD
ATOM     24  H   UNL d   1      25.702 -12.874  -2.632  0.00  0.00     0.160 HD
ATOM     25  H   UNL d   1      25.362 -16.801  -2.911  0.00  0.00     0.165 HD
ENDBRANCH  18  19
BRANCH  18  26
ATOM     26  C   UNL d   1      25.384 -17.898  -0.155  0.00  0.00     0.038 C 
BRANCH  26  27
ATOM     27  C   UNL d   1      23.027 -17.629  -0.859  0.00  0.00    -0.020 C 
ATOM     28  C   UNL d   1      22.245 -18.892  -0.499  0.00  0.00     0.009 C 
ATOM     29  C   UNL d   1      24.250 -16.826  -0.524  0.00  0.00     0.009 C 
ENDBRANCH  26  27
ENDBRANCH  18  26
ENDBRANCH   1  18
TORSDOF 9
ENDMDL
MODEL 4
REMARK VINA RESULT:    -4.314      1.901      3.600
REMARK INTER + INTRA:         -12.303
REMARK INTER:                  -6.998
REMARK INTRA:                  -5.304
REMARK CONF_INDEPENDENT:        2.685
REMARK UNBOUND:                -5.304
REMARK  9 active torsions:
REMARK  status: ('A' for Active; 'I' for Inactive)
REMARK    1  A    between atoms: C_2  and  C_4 
REMARK    2  A    between atoms: C_5  and  C_4 
REMARK    3  A    between atoms: C_5  and  C_10 
REMARK    4  A    between atoms: C_5  and  N_6 
REMARK       I    between atoms: N_6  and  C_7 
REMARK       I    between atoms: C_7  and  N_8 
REMARK       I    between atoms: C_10  and  N_12 
REMARK    5  A    between atoms: N_12  and  C_13 
REMARK    6  A    between atoms: C_13  and  C_14 
REMARK    7  A    between atoms: C_14  and  N_15 
REMARK    8  A    between atoms: N_15  and  C_16 
REMARK    9  A    between atoms: C_21  and  N_22 
ROOT
ATOM      1  C   UNL d   1      26.367 -16.339  -0.546  0.00  0.00     0.240 C 
ATOM      2  O   UNL d   1      26.734 -15.250  -0.105  0.00  0.00    -0.271 OA
ATOM      3  N   UNL d   1      27.261 -17.366  -0.712  0.00  0.00    -0.358 N 
ATOM      4  H   UNL d   1      26.962 -18.195  -1.210  0.00  0.00     0.162 HD
ENDROOT
BRANCH   3   5
ATOM      5  C   UNL d   1      28.688 -17.159  -0.489  0.00  0.00     0.142 C 
BRANCH   5   6
ATOM      6  C   UNL d   1      29.336 -16.577  -1.744  0.00  0.00     0.139 C 
BRANCH   6   7
ATOM      7  N   UNL d   1      28.712 -15.345  -2.193  0.00  0.00    -0.386 N 
ATOM      8  H   UNL d   1      28.305 -14.722  -1.501  0.00  0.00     0.159 HD
BRANCH   7   9
ATOM      9  C   UNL d   1      28.614 -14.963  -3.522  0.00  0.00     0.061 A 
ATOM     10  C   UNL d   1      29.199 -15.844  -4.468  0.00  0.00     0.031 A 
ATOM     11  C   UNL d   1      29.210 -15.575  -5.844  0.00  0.00     0.002 A 
ATOM     12  C   UNL d   1      28.572 -14.447  -6.332  0.00  0.00     0.003 A 
ATOM     13  C   UNL d   1      27.961 -13.573  -5.440  0.00  0.00     0.038 A 
ATOM     14  C   UNL d   1      27.983 -13.812  -4.051  0.00  0.00     0.129 A 
BRANCH  14  15
ATOM     15  N   UNL d   1      27.420 -12.730  -3.219  0.00  0.00    -0.113 N 
ATOM     16  O   UNL d   1      27.474 -12.908  -1.971  0.00  0.00    -0.532 OA
ATOM     17  O   UNL d   1      26.896 -11.758  -3.731  0.00  0.00    -0.532 OA
ENDBRANCH  14  15
ENDBRANCH   7   9
ENDBRANCH   6   7
ENDBRANCH   5   6
ENDBRANCH   3   5
BRANCH   1  18
ATOM     18  C   UNL d   1      24.887 -16.678  -0.934  0.00  0.00     0.178 C 
BRANCH  18  19
ATOM     19  N   UNL d   1      24.882 -16.386  -2.395  0.00  0.00    -0.330 N 
ATOM     20  C   UNL d   1      25.155 -15.236  -3.073  0.00  0.00     0.314 C 
ATOM     21  N   UNL d   1      25.330 -14.095  -2.391  0.00  0.00    -0.352 N 
ATOM     22  O   UNL d   1      25.167 -15.207  -4.320  0.00  0.00    -0.248 OA
ATOM     23  H   UNL d   1      25.585 -14.076  -1.419  0.00  0.00     0.160 HD
ATOM     24  H   UNL d   1      25.568 -13.275  -2.942  0.00  0.00     0.160 HD
ATOM     25  H   UNL d   1      24.948 -17.176  -3.027  0.00  0.00     0.165 HD
ENDBRANCH  18  19
BRANCH  18  26
ATOM     26  C   UNL d   1      24.499 -18.196  -0.354  0.00  0.00     0.038 C 
BRANCH  26  27
ATOM     27  C   UNL d   1      22.093 -17.977  -0.889  0.00  0.00    -0.020 C 
ATOM     28  C   UNL d   1      21.326 -19.137  -0.254  0.00  0.00     0.009 C 
ATOM     29  C   UNL d   1      23.354 -17.167  -0.802  0.00  0.00     0.009 C 
ENDBRANCH  26  27
ENDBRANCH  18  26
ENDBRANCH   1  18
TORSDOF 9
ENDMDL
MODEL 5
REMARK VINA RESULT:    -4.197      1.985      6.624
REMARK INTER + INTRA:         -11.809
REMARK INTER:                  -6.882
REMARK INTRA:                  -4.927
REMARK CONF_INDEPENDENT:        2.685
REMARK UNBOUND:                -4.927
REMARK  9 active torsions:
REMARK  status: ('A' for Active; 'I' for Inactive)
REMARK    1  A    between atoms: C_2  and  C_4 
REMARK    2  A    between atoms: C_5  and  C_4 
REMARK    3  A    between atoms: C_5  and  C_10 
REMARK    4  A    between atoms: C_5  and  N_6 
REMARK       I    between atoms: N_6  and  C_7 
REMARK       I    between atoms: C_7  and  N_8 
REMARK       I    between atoms: C_10  and  N_12 
REMARK    5  A    between atoms: N_12  and  C_13 
REMARK    6  A    between atoms: C_13  and  C_14 
REMARK    7  A    between atoms: C_14  and  N_15 
REMARK    8  A    between atoms: N_15  and  C_16 
REMARK    9  A    between atoms: C_21  and  N_22 
ROOT
ATOM      1  C   UNL d   1      27.895 -12.445  -3.157  0.00  0.00     0.240 C 
ATOM      2  O   UNL d   1      29.087 -12.137  -3.124  0.00  0.00    -0.271 OA
ATOM      3  N   UNL d   1      27.297 -13.049  -2.080  0.00  0.00    -0.358 N 
ATOM      4  H   UNL d   1      26.362 -13.421  -2.190  0.00  0.00     0.162 HD
ENDROOT
BRANCH   3   5
ATOM      5  C   UNL d   1      28.081 -13.455  -0.919  0.00  0.00     0.142 C 
BRANCH   5   6
ATOM      6  C   UNL d   1      28.537 -14.904  -1.074  0.00  0.00     0.139 C 
BRANCH   6   7
ATOM      7  N   UNL d   1      27.677 -15.687  -1.943  0.00  0.00    -0.386 N 
ATOM      8  H   UNL d   1      27.962 -15.837  -2.908  0.00  0.00     0.159 HD
BRANCH   7   9
ATOM      9  C   UNL d   1      26.465 -16.234  -1.550  0.00  0.00     0.061 A 
ATOM     10  C   UNL d   1      26.524 -17.186  -0.500  0.00  0.00     0.031 A 
ATOM     11  C   UNL d   1      25.387 -17.852  -0.020  0.00  0.00     0.002 A 
ATOM     12  C   UNL d   1      24.137 -17.533  -0.525  0.00  0.00     0.003 A 
ATOM     13  C   UNL d   1      24.034 -16.584  -1.534  0.00  0.00     0.038 A 
ATOM     14  C   UNL d   1      25.175 -15.942  -2.055  0.00  0.00     0.129 A 
BRANCH  14  15
ATOM     15  N   UNL d   1      24.928 -15.066  -3.217  0.00  0.00    -0.113 N 
ATOM     16  O   UNL d   1      25.155 -15.573  -4.349  0.00  0.00    -0.532 OA
ATOM     17  O   UNL d   1      24.576 -13.911  -3.062  0.00  0.00    -0.532 OA
ENDBRANCH  14  15
ENDBRANCH   7   9
ENDBRANCH   6   7
ENDBRANCH   5   6
ENDBRANCH   3   5
BRANCH   1  18
ATOM     18  C   UNL d   1      26.950 -12.174  -4.376  0.00  0.00     0.178 C 
BRANCH  18  19
ATOM     19  N   UNL d   1      26.797 -13.539  -4.953  0.00  0.00    -0.330 N 
ATOM     20  C   UNL d   1      27.733 -14.437  -5.372  0.00  0.00     0.314 C 
ATOM     21  N   UNL d   1      29.019 -14.062  -5.446  0.00  0.00    -0.352 N 
ATOM     22  O   UNL d   1      27.409 -15.575  -5.765  0.00  0.00    -0.248 OA
ATOM     23  H   UNL d   1      29.389 -13.286  -4.925  0.00  0.00     0.160 HD
ATOM     24  H   UNL d   1      29.680 -14.780  -5.728  0.00  0.00     0.160 HD
ATOM     25  H   UNL d   1      25.919 -14.018  -4.789  0.00  0.00     0.165 HD
ENDBRANCH  18  19
BRANCH  18  26
ATOM     26  C   UNL d   1      25.622 -11.301  -3.861  0.00  0.00     0.038 C 
BRANCH  26  27
ATOM     27  C   UNL d   1      25.440 -10.003  -5.960  0.00  0.00    -0.020 C 
ATOM     28  C   UNL d   1      24.817  -8.640  -5.659  0.00  0.00     0.009 C 
ATOM     29  C   UNL d   1      26.191 -11.152  -5.352  0.00  0.00     0.009 C 
ENDBRANCH  26  27
ENDBRANCH  18  26
ENDBRANCH   1  18
TORSDOF 9
ENDMDL
MODEL 6
REMARK VINA RESULT:    -4.082      2.809      6.826
REMARK INTER + INTRA:         -11.804
REMARK INTER:                  -6.767
REMARK INTRA:                  -5.037
REMARK CONF_INDEPENDENT:        2.685
REMARK UNBOUND:                -5.037
REMARK  9 active torsions:
REMARK  status: ('A' for Active; 'I' for Inactive)
REMARK    1  A    between atoms: C_2  and  C_4 
REMARK    2  A    between atoms: C_5  and  C_4 
REMARK    3  A    between atoms: C_5  and  C_10 
REMARK    4  A    between atoms: C_5  and  N_6 
REMARK       I    between atoms: N_6  and  C_7 
REMARK       I    between atoms: C_7  and  N_8 
REMARK       I    between atoms: C_10  and  N_12 
REMARK    5  A    between atoms: N_12  and  C_13 
REMARK    6  A    between atoms: C_13  and  C_14 
REMARK    7  A    between atoms: C_14  and  N_15 
REMARK    8  A    between atoms: N_15  and  C_16 
REMARK    9  A    between atoms: C_21  and  N_22 
ROOT
ATOM      1  C   UNL d   1      29.797 -16.506  -3.307  0.00  0.00     0.240 C 
ATOM      2  O   UNL d   1      29.369 -15.363  -3.143  0.00  0.00    -0.271 OA
ATOM      3  N   UNL d   1      30.274 -17.235  -2.247  0.00  0.00    -0.358 N 
ATOM      4  H   UNL d   1      30.751 -18.108  -2.433  0.00  0.00     0.162 HD
ENDROOT
BRANCH   3   5
ATOM      5  C   UNL d   1      30.405 -16.634  -0.924  0.00  0.00     0.142 C 
BRANCH   5   6
ATOM      6  C   UNL d   1      29.076 -16.716  -0.176  0.00  0.00     0.139 C 
BRANCH   6   7
ATOM      7  N   UNL d   1      27.978 -16.083  -0.886  0.00  0.00    -0.386 N 
ATOM      8  H   UNL d   1      28.146 -15.199  -1.361  0.00  0.00     0.159 HD
BRANCH   7   9
ATOM      9  C   UNL d   1      26.691 -16.596  -0.945  0.00  0.00     0.061 A 
ATOM     10  C   UNL d   1      26.360 -17.559   0.042  0.00  0.00     0.031 A 
ATOM     11  C   UNL d   1      25.110 -18.194   0.089  0.00  0.00     0.002 A 
ATOM     12  C   UNL d   1      24.120 -17.833  -0.810  0.00  0.00     0.003 A 
ATOM     13  C   UNL d   1      24.395 -16.871  -1.774  0.00  0.00     0.038 A 
ATOM     14  C   UNL d   1      25.663 -16.260  -1.858  0.00  0.00     0.129 A 
BRANCH  14  15
ATOM     15  N   UNL d   1      25.854 -15.366  -3.017  0.00  0.00    -0.113 N 
ATOM     16  O   UNL d   1      26.678 -14.424  -2.856  0.00  0.00    -0.532 OA
ATOM     17  O   UNL d   1      25.207 -15.520  -4.036  0.00  0.00    -0.532 OA
ENDBRANCH  14  15
ENDBRANCH   7   9
ENDBRANCH   6   7
ENDBRANCH   5   6
ENDBRANCH   3   5
BRANCH   1  18
ATOM     18  C   UNL d   1      29.824 -17.246  -4.687  0.00  0.00     0.178 C 
BRANCH  18  19
ATOM     19  N   UNL d   1      29.657 -16.115  -5.642  0.00  0.00    -0.330 N 
ATOM     20  C   UNL d   1      28.659 -15.196  -5.765  0.00  0.00     0.314 C 
ATOM     21  N   UNL d   1      27.537 -15.341  -5.046  0.00  0.00    -0.352 N 
ATOM     22  O   UNL d   1      28.733 -14.266  -6.594  0.00  0.00    -0.248 OA
ATOM     23  H   UNL d   1      27.500 -15.886  -4.202  0.00  0.00     0.160 HD
ATOM     24  H   UNL d   1      26.840 -14.608  -5.147  0.00  0.00     0.160 HD
ATOM     25  H   UNL d   1      30.490 -15.776  -6.112  0.00  0.00     0.165 HD
ENDBRANCH  18  19
BRANCH  18  26
ATOM     26  C   UNL d   1      31.164 -18.242  -4.753  0.00  0.00     0.038 C 
BRANCH  26  27
ATOM     27  C   UNL d   1      30.406 -19.421  -6.792  0.00  0.00    -0.020 C 
ATOM     28  C   UNL d   1      31.140 -18.852  -8.007  0.00  0.00     0.009 C 
ATOM     29  C   UNL d   1      30.477 -19.582  -5.302  0.00  0.00     0.009 C 
ENDBRANCH  26  27
ENDBRANCH  18  26
ENDBRANCH   1  18
TORSDOF 9
ENDMDL
MODEL 7
REMARK VINA RESULT:    -4.026      2.013      6.682
REMARK INTER + INTRA:         -11.852
REMARK INTER:                  -6.711
REMARK INTRA:                  -5.141
REMARK CONF_INDEPENDENT:        2.685
REMARK UNBOUND:                -5.141
REMARK  9 active torsions:
REMARK  status: ('A' for Active; 'I' for Inactive)
REMARK    1  A    between atoms: C_2  and  C_4 
REMARK    2  A    between atoms: C_5  and  C_4 
REMARK    3  A    between atoms: C_5  and  C_10 
REMARK    4  A    between atoms: C_5  and  N_6 
REMARK       I    between atoms: N_6  and  C_7 
REMARK       I    between atoms: C_7  and  N_8 
REMARK       I    between atoms: C_10  and  N_12 
REMARK    5  A    between atoms: N_12  and  C_13 
REMARK    6  A    between atoms: C_13  and  C_14 
REMARK    7  A    between atoms: C_14  and  N_15 
REMARK    8  A    between atoms: N_15  and  C_16 
REMARK    9  A    between atoms: C_21  and  N_22 
ROOT
ATOM      1  C   UNL d   1      28.440 -13.409  -3.856  0.00  0.00     0.240 C 
ATOM      2  O   UNL d   1      29.574 -13.124  -3.468  0.00  0.00    -0.271 OA
ATOM      3  N   UNL d   1      27.412 -13.567  -2.962  0.00  0.00    -0.358 N 
ATOM      4  H   UNL d   1      26.533 -13.942  -3.294  0.00  0.00     0.162 HD
ENDROOT
BRANCH   3   5
ATOM      5  C   UNL d   1      27.658 -13.526  -1.524  0.00  0.00     0.142 C 
BRANCH   5   6
ATOM      6  C   UNL d   1      28.312 -14.828  -1.066  0.00  0.00     0.139 C 
BRANCH   6   7
ATOM      7  N   UNL d   1      27.758 -16.006  -1.711  0.00  0.00    -0.386 N 
ATOM      8  H   UNL d   1      28.307 -16.476  -2.427  0.00  0.00     0.159 HD
BRANCH   7   9
ATOM      9  C   UNL d   1      26.506 -16.531  -1.428  0.00  0.00     0.061 A 
ATOM     10  C   UNL d   1      26.450 -17.464  -0.361  0.00  0.00     0.031 A 
ATOM     11  C   UNL d   1      25.262 -18.105   0.019  0.00  0.00     0.002 A 
ATOM     12  C   UNL d   1      24.071 -17.781  -0.611  0.00  0.00     0.003 A 
ATOM     13  C   UNL d   1      24.080 -16.850  -1.643  0.00  0.00     0.038 A 
ATOM     14  C   UNL d   1      25.276 -16.233  -2.061  0.00  0.00     0.129 A 
BRANCH  14  15
ATOM     15  N   UNL d   1      25.156 -15.375  -3.257  0.00  0.00    -0.113 N 
ATOM     16  O   UNL d   1      24.405 -14.368  -3.141  0.00  0.00    -0.532 OA
ATOM     17  O   UNL d   1      25.717 -15.672  -4.295  0.00  0.00    -0.532 OA
ENDBRANCH  14  15
ENDBRANCH   7   9
ENDBRANCH   6   7
ENDBRANCH   5   6
ENDBRANCH   3   5
BRANCH   1  18
ATOM     18  C   UNL d   1      28.046 -13.594  -5.361  0.00  0.00     0.178 C 
BRANCH  18  19
ATOM     19  N   UNL d   1      27.312 -12.327  -5.641  0.00  0.00    -0.330 N 
ATOM     20  C   UNL d   1      26.018 -11.978  -5.397  0.00  0.00     0.314 C 
ATOM     21  N   UNL d   1      25.153 -12.908  -4.968  0.00  0.00    -0.352 N 
ATOM     22  O   UNL d   1      25.600 -10.828  -5.643  0.00  0.00    -0.248 OA
ATOM     23  H   UNL d   1      25.448 -13.756  -4.515  0.00  0.00     0.160 HD
ATOM     24  H   UNL d   1      24.211 -12.587  -4.766  0.00  0.00     0.160 HD
ATOM     25  H   UNL d   1      27.867 -11.491  -5.789  0.00  0.00     0.165 HD
ENDBRANCH  18  19
BRANCH  18  26
ATOM     26  C   UNL d   1      29.402 -14.018  -6.238  0.00  0.00     0.038 C 
BRANCH  26  27
ATOM     27  C   UNL d   1      29.458 -16.333  -5.367  0.00  0.00    -0.020 C 
ATOM     28  C   UNL d   1      30.895 -16.699  -4.995  0.00  0.00     0.009 C 
ATOM     29  C   UNL d   1      28.518 -15.182  -5.580  0.00  0.00     0.009 C 
ENDBRANCH  26  27
ENDBRANCH  18  26
ENDBRANCH   1  18
TORSDOF 9
ENDMDL
MODEL 8
REMARK VINA RESULT:    -4.026      1.809      3.234
REMARK INTER + INTRA:         -11.845
REMARK INTER:                  -6.711
REMARK INTRA:                  -5.135
REMARK CONF_INDEPENDENT:        2.685
REMARK UNBOUND:                -5.135
REMARK  9 active torsions:
REMARK  status: ('A' for Active; 'I' for Inactive)
REMARK    1  A    between atoms: C_2  and  C_4 
REMARK    2  A    between atoms: C_5  and  C_4 
REMARK    3  A    between atoms: C_5  and  C_10 
REMARK    4  A    between atoms: C_5  and  N_6 
REMARK       I    between atoms: N_6  and  C_7 
REMARK       I    between atoms: C_7  and  N_8 
REMARK       I    between atoms: C_10  and  N_12 
REMARK    5  A    between atoms: N_12  and  C_13 
REMARK    6  A    between atoms: C_13  and  C_14 
REMARK    7  A    between atoms: C_14  and  N_15 
REMARK    8  A    between atoms: N_15  and  C_16 
REMARK    9  A    between atoms: C_21  and  N_22 
ROOT
ATOM      1  C   UNL d   1      27.342 -16.268  -1.222  0.00  0.00     0.240 C 
ATOM      2  O   UNL d   1      28.115 -16.381  -0.270  0.00  0.00    -0.271 OA
ATOM      3  N   UNL d   1      27.806 -16.320  -2.512  0.00  0.00    -0.358 N 
ATOM      4  H   UNL d   1      27.175 -16.079  -3.265  0.00  0.00     0.162 HD
ENDROOT
BRANCH   3   5
ATOM      5  C   UNL d   1      29.236 -16.386  -2.790  0.00  0.00     0.142 C 
BRANCH   5   6
ATOM      6  C   UNL d   1      29.517 -15.905  -4.213  0.00  0.00     0.139 C 
BRANCH   6   7
ATOM      7  N   UNL d   1      28.313 -15.576  -4.955  0.00  0.00    -0.386 N 
ATOM      8  H   UNL d   1      27.787 -16.328  -5.394  0.00  0.00     0.159 HD
BRANCH   7   9
ATOM      9  C   UNL d   1      27.834 -14.286  -5.128  0.00  0.00     0.061 A 
ATOM     10  C   UNL d   1      28.798 -13.307  -5.482  0.00  0.00     0.031 A 
ATOM     11  C   UNL d   1      28.472 -11.955  -5.656  0.00  0.00     0.002 A 
ATOM     12  C   UNL d   1      27.152 -11.545  -5.552  0.00  0.00     0.003 A 
ATOM     13  C   UNL d   1      26.174 -12.479  -5.235  0.00  0.00     0.038 A 
ATOM     14  C   UNL d   1      26.498 -13.833  -5.015  0.00  0.00     0.129 A 
BRANCH  14  15
ATOM     15  N   UNL d   1      25.382 -14.679  -4.548  0.00  0.00    -0.113 N 
ATOM     16  O   UNL d   1      24.310 -14.075  -4.271  0.00  0.00    -0.532 OA
ATOM     17  O   UNL d   1      25.529 -15.878  -4.400  0.00  0.00    -0.532 OA
ENDBRANCH  14  15
ENDBRANCH   7   9
ENDBRANCH   6   7
ENDBRANCH   5   6
ENDBRANCH   3   5
BRANCH   1  18
ATOM     18  C   UNL d   1      25.793 -16.081  -1.080  0.00  0.00     0.178 C 
BRANCH  18  19
ATOM     19  N   UNL d   1      25.586 -14.757  -1.730  0.00  0.00    -0.330 N 
ATOM     20  C   UNL d   1      26.253 -13.578  -1.578  0.00  0.00     0.314 C 
ATOM     21  N   UNL d   1      27.169 -13.460  -0.606  0.00  0.00    -0.352 N 
ATOM     22  O   UNL d   1      25.973 -12.581  -2.274  0.00  0.00    -0.248 OA
ATOM     23  H   UNL d   1      27.624 -14.253  -0.189  0.00  0.00     0.160 HD
ATOM     24  H   UNL d   1      27.664 -12.573  -0.560  0.00  0.00     0.160 HD
ATOM     25  H   UNL d   1      25.065 -14.741  -2.599  0.00  0.00     0.165 HD
ENDBRANCH  18  19
BRANCH  18  26
ATOM     26  C   UNL d   1      25.019 -17.450  -1.644  0.00  0.00     0.038 C 
BRANCH  26  27
ATOM     27  C   UNL d   1      22.881 -16.917  -0.518  0.00  0.00    -0.020 C 
ATOM     28  C   UNL d   1      22.154 -18.217  -0.173  0.00  0.00     0.009 C 
ATOM     29  C   UNL d   1      24.227 -16.327  -0.818  0.00  0.00     0.009 C 
ENDBRANCH  26  27
ENDBRANCH  18  26
ENDBRANCH   1  18
TORSDOF 9
ENDMDL
MODEL 9
REMARK VINA RESULT:    -3.994      1.559      2.198
REMARK INTER + INTRA:         -11.806
REMARK INTER:                  -6.678
REMARK INTRA:                  -5.128
REMARK CONF_INDEPENDENT:        2.685
REMARK UNBOUND:                -5.128
REMARK  9 active torsions:
REMARK  status: ('A' for Active; 'I' for Inactive)
REMARK    1  A    between atoms: C_2  and  C_4 
REMARK    2  A    between atoms: C_5  and  C_4 
REMARK    3  A    between atoms: C_5  and  C_10 
REMARK    4  A    between atoms: C_5  and  N_6 
REMARK       I    between atoms: N_6  and  C_7 
REMARK       I    between atoms: C_7  and  N_8 
REMARK       I    between atoms: C_10  and  N_12 
REMARK    5  A    between atoms: N_12  and  C_13 
REMARK    6  A    between atoms: C_13  and  C_14 
REMARK    7  A    between atoms: C_14  and  N_15 
REMARK    8  A    between atoms: N_15  and  C_16 
REMARK    9  A    between atoms: C_21  and  N_22 
ROOT
ATOM      1  C   UNL d   1      25.525 -14.950  -3.365  0.00  0.00     0.240 C 
ATOM      2  O   UNL d   1      25.391 -15.212  -4.561  0.00  0.00    -0.271 OA
ATOM      3  N   UNL d   1      25.365 -13.666  -2.907  0.00  0.00    -0.358 N 
ATOM      4  H   UNL d   1      25.624 -13.457  -1.951  0.00  0.00     0.162 HD
ENDROOT
BRANCH   3   5
ATOM      5  C   UNL d   1      25.158 -12.561  -3.835  0.00  0.00     0.142 C 
BRANCH   5   6
ATOM      6  C   UNL d   1      26.496 -12.094  -4.404  0.00  0.00     0.139 C 
BRANCH   6   7
ATOM      7  N   UNL d   1      27.081 -13.036  -5.342  0.00  0.00    -0.386 N 
ATOM      8  H   UNL d   1      26.660 -13.957  -5.438  0.00  0.00     0.159 HD
BRANCH   7   9
ATOM      9  C   UNL d   1      28.203 -12.771  -6.112  0.00  0.00     0.061 A 
ATOM     10  C   UNL d   1      28.466 -11.403  -6.379  0.00  0.00     0.031 A 
ATOM     11  C   UNL d   1      29.542 -10.982  -7.173  0.00  0.00     0.002 A 
ATOM     12  C   UNL d   1      30.439 -11.914  -7.669  0.00  0.00     0.003 A 
ATOM     13  C   UNL d   1      30.233 -13.262  -7.406  0.00  0.00     0.038 A 
ATOM     14  C   UNL d   1      29.129 -13.699  -6.647  0.00  0.00     0.129 A 
BRANCH  14  15
ATOM     15  N   UNL d   1      28.960 -15.164  -6.568  0.00  0.00    -0.113 N 
ATOM     16  O   UNL d   1      27.780 -15.575  -6.392  0.00  0.00    -0.532 OA
ATOM     17  O   UNL d   1      29.923 -15.906  -6.623  0.00  0.00    -0.532 OA
ENDBRANCH  14  15
ENDBRANCH   7   9
ENDBRANCH   6   7
ENDBRANCH   5   6
ENDBRANCH   3   5
BRANCH   1  18
ATOM     18  C   UNL d   1      25.857 -16.012  -2.263  0.00  0.00     0.178 C 
BRANCH  18  19
ATOM     19  N   UNL d   1      27.276 -15.688  -1.946  0.00  0.00    -0.330 N 
ATOM     20  C   UNL d   1      28.366 -15.580  -2.757  0.00  0.00     0.314 C 
ATOM     21  N   UNL d   1      28.269 -15.946  -4.043  0.00  0.00    -0.352 N 
ATOM     22  O   UNL d   1      29.474 -15.224  -2.308  0.00  0.00    -0.248 OA
ATOM     23  H   UNL d   1      27.391 -15.993  -4.530  0.00  0.00     0.160 HD
ATOM     24  H   UNL d   1      29.100 -15.810  -4.613  0.00  0.00     0.160 HD
ATOM     25  H   UNL d   1      27.460 -15.218  -1.067  0.00  0.00     0.165 HD
ENDBRANCH  18  19
BRANCH  18  26
ATOM     26  C   UNL d   1      24.676 -15.969  -1.082  0.00  0.00     0.038 C 
BRANCH  26  27
ATOM     27  C   UNL d   1      25.252 -18.199  -0.178  0.00  0.00    -0.020 C 
ATOM     28  C   UNL d   1      26.560 -18.104   0.608  0.00  0.00     0.009 C 
ATOM     29  C   UNL d   1      24.084 -17.405  -0.685  0.00  0.00     0.009 C 
ENDBRANCH  26  27
ENDBRANCH  18  26
ENDBRANCH   1  18
TORSDOF 9
ENDMDL
