MODEL 1
REMARK VINA RESULT:    -9.803      0.000      0.000
REMARK INTER + INTRA:         -14.902
REMARK INTER:                 -12.786
REMARK INTRA:                  -2.116
REMARK CONF_INDEPENDENT:        2.983
REMARK UNBOUND:                -2.116
REMARK  10 active torsions:
REMARK  status: ('A' for Active; 'I' for Inactive)
REMARK    1  A    between atoms: C_2  and  O_3 
REMARK    2  A    between atoms: O_3  and  C_4 
REMARK    3  A    between atoms: C_7  and  N_8 
REMARK       I    between atoms: N_8  and  C_9 
REMARK    4  A    between atoms: C_9  and  C_11 
REMARK    5  A    between atoms: C_16  and  N_17 
REMARK    6  A    between atoms: N_17  and  C_18 
REMARK    7  A    between atoms: C_18  and  N_20 
REMARK       I    between atoms: N_20  and  C_21 
REMARK    8  A    between atoms: C_21  and  C_23 
REMARK    9  A    between atoms: C_26  and  C_27 
REMARK   10  A    between atoms: C_27  and  O_29 
ROOT
ATOM      1  C   UNL d   1      27.086 -13.789  -4.145  0.00  0.00     0.059 A 
ATOM      2  C   UNL d   1      26.634 -12.799  -5.057  0.00  0.00     0.019 A 
ATOM      3  C   UNL d   1      26.211 -11.543  -4.636  0.00  0.00     0.001 A 
ATOM      4  C   UNL d   1      26.167 -11.278  -3.276  0.00  0.00     0.002 A 
ATOM      5  C   UNL d   1      26.631 -12.238  -2.352  0.00  0.00     0.030 A 
ATOM      6  C   UNL d   1      27.136 -13.500  -2.766  0.00  0.00     0.050 A 
ENDROOT
BRANCH   6   7
ATOM      7  N   UNL d   1      27.639 -14.403  -1.750  0.00  0.00    -0.332 N 
ATOM      8  H   UNL d   1      27.985 -15.282  -2.121  0.00  0.00     0.168 HD
BRANCH   7   9
ATOM      9  C   UNL d   1      27.135 -14.521  -0.440  0.00  0.00     0.179 C 
ATOM     10  S   UNL d   1      27.935 -13.876   0.899  0.00  0.00    -0.040 SA
BRANCH   9  11
ATOM     11  N   UNL d   1      25.861 -15.138  -0.389  0.00  0.00    -0.299 N 
ATOM     12  C   UNL d   1      25.547 -16.260  -1.148  0.00  0.00     0.257 C 
ATOM     13  O   UNL d   1      26.202 -16.596  -2.143  0.00  0.00    -0.267 OA
ATOM     14  H   UNL d   1      25.359 -15.029   0.480  0.00  0.00     0.171 HD
BRANCH  12  15
ATOM     15  C   UNL d   1      24.424 -17.179  -0.858  0.00  0.00     0.032 C 
ATOM     16  C   UNL d   1      23.151 -16.572  -0.909  0.00  0.00     0.018 C 
ATOM     17  C   UNL d   1      21.982 -17.297  -0.722  0.00  0.00     0.018 C 
ATOM     18  C   UNL d   1      22.054 -18.678  -0.538  0.00  0.00     0.039 C 
ATOM     19  C   UNL d   1      23.321 -19.279  -0.383  0.00  0.00     0.018 C 
ATOM     20  C   UNL d   1      24.511 -18.527  -0.518  0.00  0.00     0.018 C 
BRANCH  18  21
ATOM     21  C   UNL d   1      20.772 -19.436  -0.599  0.00  0.00     0.292 C 
ATOM     22  O   UNL d   1      20.203 -19.698  -1.657  0.00  0.00    -0.259 OA
BRANCH  21  23
ATOM     23  O   UNL d   1      20.366 -19.845   0.627  0.00  0.00    -0.323 OA
ATOM     24  C   UNL d   1      19.118 -20.551   0.621  0.00  0.00     0.213 C 
ENDBRANCH  21  23
ENDBRANCH  18  21
ENDBRANCH  12  15
ENDBRANCH   9  11
ENDBRANCH   7   9
ENDBRANCH   6   7
BRANCH   1  25
ATOM     25  C   UNL d   1      27.603 -15.019  -4.808  0.00  0.00     0.258 C 
ATOM     26  N   UNL d   1      28.893 -15.473  -4.516  0.00  0.00    -0.323 N 
ATOM     27  H   UNL d   1      29.432 -14.952  -3.836  0.00  0.00     0.169 HD
ATOM     28  O   UNL d   1      26.809 -15.545  -5.586  0.00  0.00    -0.267 OA
BRANCH  26  29
ATOM     29  C   UNL d   1      29.623 -16.397  -5.339  0.00  0.00     0.035 A 
ATOM     30  C   UNL d   1      30.030 -17.643  -4.834  0.00  0.00     0.032 A 
ATOM     31  C   UNL d   1      30.968 -18.436  -5.549  0.00  0.00     0.039 A 
ATOM     32  C   UNL d   1      31.447 -18.044  -6.806  0.00  0.00     0.068 A 
ATOM     33  C   UNL d   1      31.025 -16.827  -7.311  0.00  0.00     0.039 A 
ATOM     34  C   UNL d   1      30.134 -16.024  -6.586  0.00  0.00     0.032 A 
BRANCH  32  35
ATOM     35  O   UNL d   1      32.275 -18.924  -7.447  0.00  0.00    -0.352 OA
BRANCH  35  36
ATOM     36  C   UNL d   1      32.193 -19.000  -8.875  0.00  0.00     0.171 C 
ATOM     37  C   UNL d   1      30.891 -19.698  -9.241  0.00  0.00     0.034 C 
ENDBRANCH  35  36
ENDBRANCH  32  35
ENDBRANCH  26  29
ENDBRANCH   1  25
TORSDOF 10
ENDMDL
MODEL 2
REMARK VINA RESULT:    -9.787      4.891      8.901
REMARK INTER + INTRA:         -14.883
REMARK INTER:                 -12.770
REMARK INTRA:                  -2.113
REMARK CONF_INDEPENDENT:        2.983
REMARK UNBOUND:                -2.113
REMARK  10 active torsions:
REMARK  status: ('A' for Active; 'I' for Inactive)
REMARK    1  A    between atoms: C_2  and  O_3 
REMARK    2  A    between atoms: O_3  and  C_4 
REMARK    3  A    between atoms: C_7  and  N_8 
REMARK       I    between atoms: N_8  and  C_9 
REMARK    4  A    between atoms: C_9  and  C_11 
REMARK    5  A    between atoms: C_16  and  N_17 
REMARK    6  A    between atoms: N_17  and  C_18 
REMARK    7  A    between atoms: C_18  and  N_20 
REMARK       I    between atoms: N_20  and  C_21 
REMARK    8  A    between atoms: C_21  and  C_23 
REMARK    9  A    between atoms: C_26  and  C_27 
REMARK   10  A    between atoms: C_27  and  O_29 
ROOT
ATOM      1  C   UNL d   1      26.527 -14.604  -2.516  0.00  0.00     0.059 A 
ATOM      2  C   UNL d   1      26.683 -14.521  -3.925  0.00  0.00     0.019 A 
ATOM      3  C   UNL d   1      27.860 -14.073  -4.514  0.00  0.00     0.001 A 
ATOM      4  C   UNL d   1      28.887 -13.630  -3.695  0.00  0.00     0.002 A 
ATOM      5  C   UNL d   1      28.763 -13.722  -2.292  0.00  0.00     0.030 A 
ATOM      6  C   UNL d   1      27.598 -14.246  -1.671  0.00  0.00     0.050 A 
ENDROOT
BRANCH   6   7
ATOM      7  N   UNL d   1      27.580 -14.350  -0.226  0.00  0.00    -0.332 N 
ATOM      8  H   UNL d   1      27.654 -13.457   0.249  0.00  0.00     0.168 HD
BRANCH   7   9
ATOM      9  C   UNL d   1      28.119 -15.416   0.523  0.00  0.00     0.179 C 
ATOM     10  S   UNL d   1      28.112 -17.008  -0.036  0.00  0.00    -0.040 SA
BRANCH   9  11
ATOM     11  N   UNL d   1      28.744 -14.992   1.721  0.00  0.00    -0.299 N 
ATOM     12  C   UNL d   1      28.101 -14.180   2.649  0.00  0.00     0.257 C 
ATOM     13  O   UNL d   1      27.103 -13.506   2.365  0.00  0.00    -0.267 OA
ATOM     14  H   UNL d   1      29.458 -15.609   2.082  0.00  0.00     0.171 HD
BRANCH  12  15
ATOM     15  C   UNL d   1      28.513 -14.037   4.063  0.00  0.00     0.032 C 
ATOM     16  C   UNL d   1      27.665 -13.213   4.833  0.00  0.00     0.018 C 
ATOM     17  C   UNL d   1      27.866 -13.016   6.192  0.00  0.00     0.018 C 
ATOM     18  C   UNL d   1      28.898 -13.696   6.838  0.00  0.00     0.039 C 
ATOM     19  C   UNL d   1      29.812 -14.440   6.063  0.00  0.00     0.018 C 
ATOM     20  C   UNL d   1      29.637 -14.593   4.669  0.00  0.00     0.018 C 
BRANCH  18  21
ATOM     21  C   UNL d   1      28.911 -13.648   8.328  0.00  0.00     0.292 C 
ATOM     22  O   UNL d   1      29.464 -14.504   9.016  0.00  0.00    -0.259 OA
BRANCH  21  23
ATOM     23  O   UNL d   1      28.309 -12.533   8.805  0.00  0.00    -0.323 OA
ATOM     24  C   UNL d   1      28.020 -12.582  10.209  0.00  0.00     0.213 C 
ENDBRANCH  21  23
ENDBRANCH  18  21
ENDBRANCH  12  15
ENDBRANCH   9  11
ENDBRANCH   7   9
ENDBRANCH   6   7
BRANCH   1  25
ATOM     25  C   UNL d   1      25.237 -15.217  -2.093  0.00  0.00     0.258 C 
ATOM     26  N   UNL d   1      25.211 -16.097  -1.008  0.00  0.00    -0.323 N 
ATOM     27  H   UNL d   1      26.084 -16.273  -0.525  0.00  0.00     0.169 HD
ATOM     28  O   UNL d   1      24.270 -14.875  -2.771  0.00  0.00    -0.267 OA
BRANCH  26  29
ATOM     29  C   UNL d   1      24.138 -17.015  -0.744  0.00  0.00     0.035 A 
ATOM     30  C   UNL d   1      24.396 -18.377  -0.518  0.00  0.00     0.032 A 
ATOM     31  C   UNL d   1      23.332 -19.319  -0.522  0.00  0.00     0.039 A 
ATOM     32  C   UNL d   1      21.998 -18.913  -0.662  0.00  0.00     0.068 A 
ATOM     33  C   UNL d   1      21.747 -17.567  -0.859  0.00  0.00     0.039 A 
ATOM     34  C   UNL d   1      22.800 -16.643  -0.900  0.00  0.00     0.032 A 
BRANCH  32  35
ATOM     35  O   UNL d   1      21.046 -19.890  -0.559  0.00  0.00    -0.352 OA
BRANCH  35  36
ATOM     36  C   UNL d   1      19.700 -19.486  -0.285  0.00  0.00     0.171 C 
ATOM     37  C   UNL d   1      19.418 -19.739   1.189  0.00  0.00     0.034 C 
ENDBRANCH  35  36
ENDBRANCH  32  35
ENDBRANCH  26  29
ENDBRANCH   1  25
TORSDOF 10
ENDMDL
MODEL 3
REMARK VINA RESULT:    -9.772      5.520      9.358
REMARK INTER + INTRA:         -14.183
REMARK INTER:                 -12.755
REMARK INTRA:                  -1.429
REMARK CONF_INDEPENDENT:        2.983
REMARK UNBOUND:                -1.429
REMARK  10 active torsions:
REMARK  status: ('A' for Active; 'I' for Inactive)
REMARK    1  A    between atoms: C_2  and  O_3 
REMARK    2  A    between atoms: O_3  and  C_4 
REMARK    3  A    between atoms: C_7  and  N_8 
REMARK       I    between atoms: N_8  and  C_9 
REMARK    4  A    between atoms: C_9  and  C_11 
REMARK    5  A    between atoms: C_16  and  N_17 
REMARK    6  A    between atoms: N_17  and  C_18 
REMARK    7  A    between atoms: C_18  and  N_20 
REMARK       I    between atoms: N_20  and  C_21 
REMARK    8  A    between atoms: C_21  and  C_23 
REMARK    9  A    between atoms: C_26  and  C_27 
REMARK   10  A    between atoms: C_27  and  O_29 
ROOT
ATOM      1  C   UNL d   1      27.898 -13.094   2.169  0.00  0.00     0.059 A 
ATOM      2  C   UNL d   1      27.714 -11.721   1.855  0.00  0.00     0.019 A 
ATOM      3  C   UNL d   1      27.710 -11.256   0.545  0.00  0.00     0.001 A 
ATOM      4  C   UNL d   1      27.963 -12.154  -0.480  0.00  0.00     0.002 A 
ATOM      5  C   UNL d   1      28.129 -13.526  -0.195  0.00  0.00     0.030 A 
ATOM      6  C   UNL d   1      28.063 -14.034   1.130  0.00  0.00     0.050 A 
ENDROOT
BRANCH   6   7
ATOM      7  N   UNL d   1      28.193 -15.464   1.324  0.00  0.00    -0.332 N 
ATOM      8  H   UNL d   1      29.016 -15.731   1.852  0.00  0.00     0.168 HD
BRANCH   7   9
ATOM      9  C   UNL d   1      27.786 -16.453   0.405  0.00  0.00     0.179 C 
ATOM     10  S   UNL d   1      28.875 -17.248  -0.610  0.00  0.00    -0.040 SA
BRANCH   9  11
ATOM     11  N   UNL d   1      26.408 -16.767   0.504  0.00  0.00    -0.299 N 
ATOM     12  C   UNL d   1      25.508 -16.496  -0.521  0.00  0.00     0.257 C 
ATOM     13  O   UNL d   1      25.751 -15.683  -1.422  0.00  0.00    -0.267 OA
ATOM     14  H   UNL d   1      26.181 -17.545   1.107  0.00  0.00     0.171 HD
BRANCH  12  15
ATOM     15  C   UNL d   1      24.185 -17.142  -0.665  0.00  0.00     0.032 C 
ATOM     16  C   UNL d   1      24.216 -18.550  -0.588  0.00  0.00     0.018 C 
ATOM     17  C   UNL d   1      23.060 -19.316  -0.642  0.00  0.00     0.018 C 
ATOM     18  C   UNL d   1      21.820 -18.681  -0.714  0.00  0.00     0.039 C 
ATOM     19  C   UNL d   1      21.781 -17.283  -0.895  0.00  0.00     0.018 C 
ATOM     20  C   UNL d   1      22.965 -16.510  -0.896  0.00  0.00     0.018 C 
BRANCH  18  21
ATOM     21  C   UNL d   1      20.612 -19.532  -0.513  0.00  0.00     0.292 C 
ATOM     22  O   UNL d   1      19.765 -19.702  -1.388  0.00  0.00    -0.259 OA
BRANCH  21  23
ATOM     23  O   UNL d   1      20.610 -20.130   0.702  0.00  0.00    -0.323 OA
ATOM     24  C   UNL d   1      19.445 -19.845   1.489  0.00  0.00     0.213 C 
ENDBRANCH  21  23
ENDBRANCH  18  21
ENDBRANCH  12  15
ENDBRANCH   9  11
ENDBRANCH   7   9
ENDBRANCH   6   7
BRANCH   1  25
ATOM     25  C   UNL d   1      27.752 -13.400   3.620  0.00  0.00     0.258 C 
ATOM     26  N   UNL d   1      28.006 -12.403   4.567  0.00  0.00    -0.323 N 
ATOM     27  H   UNL d   1      28.264 -11.486   4.225  0.00  0.00     0.169 HD
ATOM     28  O   UNL d   1      27.406 -14.555   3.859  0.00  0.00    -0.267 OA
BRANCH  26  29
ATOM     29  C   UNL d   1      28.260 -12.663   5.957  0.00  0.00     0.035 A 
ATOM     30  C   UNL d   1      28.154 -11.637   6.910  0.00  0.00     0.032 A 
ATOM     31  C   UNL d   1      28.656 -11.827   8.226  0.00  0.00     0.039 A 
ATOM     32  C   UNL d   1      29.187 -13.057   8.635  0.00  0.00     0.068 A 
ATOM     33  C   UNL d   1      29.266 -14.073   7.699  0.00  0.00     0.039 A 
ATOM     34  C   UNL d   1      28.812 -13.872   6.388  0.00  0.00     0.032 A 
BRANCH  32  35
ATOM     35  O   UNL d   1      29.556 -13.159   9.948  0.00  0.00    -0.352 OA
BRANCH  35  36
ATOM     36  C   UNL d   1      28.841 -14.085  10.775  0.00  0.00     0.171 C 
ATOM     37  C   UNL d   1      28.361 -13.343  12.014  0.00  0.00     0.034 C 
ENDBRANCH  35  36
ENDBRANCH  32  35
ENDBRANCH  26  29
ENDBRANCH   1  25
TORSDOF 10
ENDMDL
MODEL 4
REMARK VINA RESULT:    -9.770      4.354      8.246
REMARK INTER + INTRA:         -15.229
REMARK INTER:                 -12.753
REMARK INTRA:                  -2.476
REMARK CONF_INDEPENDENT:        2.983
REMARK UNBOUND:                -2.476
REMARK  10 active torsions:
REMARK  status: ('A' for Active; 'I' for Inactive)
REMARK    1  A    between atoms: C_2  and  O_3 
REMARK    2  A    between atoms: O_3  and  C_4 
REMARK    3  A    between atoms: C_7  and  N_8 
REMARK       I    between atoms: N_8  and  C_9 
REMARK    4  A    between atoms: C_9  and  C_11 
REMARK    5  A    between atoms: C_16  and  N_17 
REMARK    6  A    between atoms: N_17  and  C_18 
REMARK    7  A    between atoms: C_18  and  N_20 
REMARK       I    between atoms: N_20  and  C_21 
REMARK    8  A    between atoms: C_21  and  C_23 
REMARK    9  A    between atoms: C_26  and  C_27 
REMARK   10  A    between atoms: C_27  and  O_29 
ROOT
ATOM      1  C   UNL d   1      29.090 -15.254  -0.025  0.00  0.00     0.059 A 
ATOM      2  C   UNL d   1      30.255 -16.024   0.233  0.00  0.00     0.019 A 
ATOM      3  C   UNL d   1      30.867 -16.791  -0.752  0.00  0.00     0.001 A 
ATOM      4  C   UNL d   1      30.279 -16.858  -2.005  0.00  0.00     0.002 A 
ATOM      5  C   UNL d   1      29.132 -16.086  -2.290  0.00  0.00     0.030 A 
ATOM      6  C   UNL d   1      28.534 -15.238  -1.321  0.00  0.00     0.050 A 
ENDROOT
BRANCH   6   7
ATOM      7  N   UNL d   1      27.390 -14.442  -1.718  0.00  0.00    -0.332 N 
ATOM      8  H   UNL d   1      26.956 -13.940  -0.951  0.00  0.00     0.168 HD
BRANCH   7   9
ATOM      9  C   UNL d   1      26.480 -14.775  -2.741  0.00  0.00     0.179 C 
ATOM     10  S   UNL d   1      26.392 -13.914  -4.190  0.00  0.00    -0.040 SA
BRANCH   9  11
ATOM     11  N   UNL d   1      25.737 -15.948  -2.463  0.00  0.00    -0.299 N 
ATOM     12  C   UNL d   1      25.308 -16.271  -1.180  0.00  0.00     0.257 C 
ATOM     13  O   UNL d   1      25.808 -15.769  -0.166  0.00  0.00    -0.267 OA
ATOM     14  H   UNL d   1      25.175 -16.299  -3.225  0.00  0.00     0.171 HD
BRANCH  12  15
ATOM     15  C   UNL d   1      24.217 -17.223  -0.877  0.00  0.00     0.032 C 
ATOM     16  C   UNL d   1      22.924 -16.659  -0.933  0.00  0.00     0.018 C 
ATOM     17  C   UNL d   1      21.780 -17.420  -0.737  0.00  0.00     0.018 C 
ATOM     18  C   UNL d   1      21.898 -18.795  -0.536  0.00  0.00     0.039 C 
ATOM     19  C   UNL d   1      23.184 -19.352  -0.375  0.00  0.00     0.018 C 
ATOM     20  C   UNL d   1      24.348 -18.563  -0.521  0.00  0.00     0.018 C 
BRANCH  18  21
ATOM     21  C   UNL d   1      20.642 -19.596  -0.585  0.00  0.00     0.292 C 
ATOM     22  O   UNL d   1      19.958 -19.700  -1.603  0.00  0.00    -0.259 OA
BRANCH  21  23
ATOM     23  O   UNL d   1      20.399 -20.232   0.585  0.00  0.00    -0.323 OA
ATOM     24  C   UNL d   1      19.088 -19.996   1.115  0.00  0.00     0.213 C 
ENDBRANCH  21  23
ENDBRANCH  18  21
ENDBRANCH  12  15
ENDBRANCH   9  11
ENDBRANCH   7   9
ENDBRANCH   6   7
BRANCH   1  25
ATOM     25  C   UNL d   1      28.662 -14.414   1.129  0.00  0.00     0.258 C 
ATOM     26  N   UNL d   1      29.322 -14.535   2.356  0.00  0.00    -0.323 N 
ATOM     27  H   UNL d   1      30.095 -15.185   2.411  0.00  0.00     0.169 HD
ATOM     28  O   UNL d   1      27.725 -13.658   0.882  0.00  0.00    -0.267 OA
BRANCH  26  29
ATOM     29  C   UNL d   1      28.783 -14.075   3.605  0.00  0.00     0.035 A 
ATOM     30  C   UNL d   1      28.561 -12.706   3.832  0.00  0.00     0.032 A 
ATOM     31  C   UNL d   1      28.283 -12.232   5.142  0.00  0.00     0.039 A 
ATOM     32  C   UNL d   1      28.138 -13.112   6.222  0.00  0.00     0.068 A 
ATOM     33  C   UNL d   1      28.333 -14.462   5.990  0.00  0.00     0.039 A 
ATOM     34  C   UNL d   1      28.651 -14.926   4.706  0.00  0.00     0.032 A 
BRANCH  32  35
ATOM     35  O   UNL d   1      27.780 -12.558   7.421  0.00  0.00    -0.352 OA
BRANCH  35  36
ATOM     36  C   UNL d   1      28.808 -12.355   8.398  0.00  0.00     0.171 C 
ATOM     37  C   UNL d   1      28.369 -13.020   9.695  0.00  0.00     0.034 C 
ENDBRANCH  35  36
ENDBRANCH  32  35
ENDBRANCH  26  29
ENDBRANCH   1  25
TORSDOF 10
ENDMDL
MODEL 5
REMARK VINA RESULT:    -9.338      2.109      5.843
REMARK INTER + INTRA:         -14.379
REMARK INTER:                 -12.321
REMARK INTRA:                  -2.058
REMARK CONF_INDEPENDENT:        2.983
REMARK UNBOUND:                -2.058
REMARK  10 active torsions:
REMARK  status: ('A' for Active; 'I' for Inactive)
REMARK    1  A    between atoms: C_2  and  O_3 
REMARK    2  A    between atoms: O_3  and  C_4 
REMARK    3  A    between atoms: C_7  and  N_8 
REMARK       I    between atoms: N_8  and  C_9 
REMARK    4  A    between atoms: C_9  and  C_11 
REMARK    5  A    between atoms: C_16  and  N_17 
REMARK    6  A    between atoms: N_17  and  C_18 
REMARK    7  A    between atoms: C_18  and  N_20 
REMARK       I    between atoms: N_20  and  C_21 
REMARK    8  A    between atoms: C_21  and  C_23 
REMARK    9  A    between atoms: C_26  and  C_27 
REMARK   10  A    between atoms: C_27  and  O_29 
ROOT
ATOM      1  C   UNL d   1      29.276 -15.543  -4.989  0.00  0.00     0.059 A 
ATOM      2  C   UNL d   1      30.385 -15.687  -5.864  0.00  0.00     0.019 A 
ATOM      3  C   UNL d   1      31.436 -16.555  -5.589  0.00  0.00     0.001 A 
ATOM      4  C   UNL d   1      31.429 -17.249  -4.389  0.00  0.00     0.002 A 
ATOM      5  C   UNL d   1      30.327 -17.138  -3.513  0.00  0.00     0.030 A 
ATOM      6  C   UNL d   1      29.209 -16.313  -3.809  0.00  0.00     0.050 A 
ENDROOT
BRANCH   6   7
ATOM      7  N   UNL d   1      28.100 -16.301  -2.877  0.00  0.00    -0.332 N 
ATOM      8  H   UNL d   1      27.281 -15.815  -3.225  0.00  0.00     0.168 HD
BRANCH   7   9
ATOM      9  C   UNL d   1      28.214 -16.251  -1.473  0.00  0.00     0.179 C 
ATOM     10  S   UNL d   1      29.539 -15.550  -0.697  0.00  0.00    -0.040 SA
BRANCH   9  11
ATOM     11  N   UNL d   1      27.069 -16.751  -0.806  0.00  0.00    -0.299 N 
ATOM     12  C   UNL d   1      25.778 -16.527  -1.273  0.00  0.00     0.257 C 
ATOM     13  O   UNL d   1      25.508 -15.626  -2.076  0.00  0.00    -0.267 OA
ATOM     14  H   UNL d   1      27.212 -17.594  -0.268  0.00  0.00     0.171 HD
BRANCH  12  15
ATOM     15  C   UNL d   1      24.598 -17.330  -0.885  0.00  0.00     0.032 C 
ATOM     16  C   UNL d   1      23.364 -16.667  -1.058  0.00  0.00     0.018 C 
ATOM     17  C   UNL d   1      22.151 -17.292  -0.803  0.00  0.00     0.018 C 
ATOM     18  C   UNL d   1      22.137 -18.632  -0.421  0.00  0.00     0.039 C 
ATOM     19  C   UNL d   1      23.363 -19.274  -0.145  0.00  0.00     0.018 C 
ATOM     20  C   UNL d   1      24.597 -18.617  -0.353  0.00  0.00     0.018 C 
BRANCH  18  21
ATOM     21  C   UNL d   1      20.814 -19.319  -0.408  0.00  0.00     0.292 C 
ATOM     22  O   UNL d   1      20.252 -19.700  -1.433  0.00  0.00    -0.259 OA
BRANCH  21  23
ATOM     23  O   UNL d   1      20.361 -19.522   0.852  0.00  0.00    -0.323 OA
ATOM     24  C   UNL d   1      19.006 -19.990   0.915  0.00  0.00     0.213 C 
ENDBRANCH  21  23
ENDBRANCH  18  21
ENDBRANCH  12  15
ENDBRANCH   9  11
ENDBRANCH   7   9
ENDBRANCH   6   7
BRANCH   1  25
ATOM     25  C   UNL d   1      28.207 -14.653  -5.523  0.00  0.00     0.258 C 
ATOM     26  N   UNL d   1      28.461 -13.289  -5.691  0.00  0.00    -0.323 N 
ATOM     27  H   UNL d   1      29.388 -12.952  -5.461  0.00  0.00     0.169 HD
ATOM     28  O   UNL d   1      27.151 -15.230  -5.777  0.00  0.00    -0.267 OA
BRANCH  26  29
ATOM     29  C   UNL d   1      27.436 -12.293  -5.835  0.00  0.00     0.035 A 
ATOM     30  C   UNL d   1      27.226 -11.649  -7.066  0.00  0.00     0.032 A 
ATOM     31  C   UNL d   1      26.404 -10.493  -7.140  0.00  0.00     0.039 A 
ATOM     32  C   UNL d   1      25.716 -10.013  -6.018  0.00  0.00     0.068 A 
ATOM     33  C   UNL d   1      25.905 -10.666  -4.812  0.00  0.00     0.039 A 
ATOM     34  C   UNL d   1      26.751 -11.780  -4.729  0.00  0.00     0.032 A 
BRANCH  32  35
ATOM     35  O   UNL d   1      24.880  -8.949  -6.220  0.00  0.00    -0.352 OA
BRANCH  35  36
ATOM     36  C   UNL d   1      24.410  -8.239  -5.068  0.00  0.00     0.171 C 
ATOM     37  C   UNL d   1      23.044  -7.653  -5.396  0.00  0.00     0.034 C 
ENDBRANCH  35  36
ENDBRANCH  32  35
ENDBRANCH  26  29
ENDBRANCH   1  25
TORSDOF 10
ENDMDL
MODEL 6
REMARK VINA RESULT:    -9.250      2.169      4.211
REMARK INTER + INTRA:         -14.971
REMARK INTER:                 -12.233
REMARK INTRA:                  -2.738
REMARK CONF_INDEPENDENT:        2.983
REMARK UNBOUND:                -2.738
REMARK  10 active torsions:
REMARK  status: ('A' for Active; 'I' for Inactive)
REMARK    1  A    between atoms: C_2  and  O_3 
REMARK    2  A    between atoms: O_3  and  C_4 
REMARK    3  A    between atoms: C_7  and  N_8 
REMARK       I    between atoms: N_8  and  C_9 
REMARK    4  A    between atoms: C_9  and  C_11 
REMARK    5  A    between atoms: C_16  and  N_17 
REMARK    6  A    between atoms: N_17  and  C_18 
REMARK    7  A    between atoms: C_18  and  N_20 
REMARK       I    between atoms: N_20  and  C_21 
REMARK    8  A    between atoms: C_21  and  C_23 
REMARK    9  A    between atoms: C_26  and  C_27 
REMARK   10  A    between atoms: C_27  and  O_29 
ROOT
ATOM      1  C   UNL d   1      27.831 -13.204   1.006  0.00  0.00     0.059 A 
ATOM      2  C   UNL d   1      27.480 -11.958   1.589  0.00  0.00     0.019 A 
ATOM      3  C   UNL d   1      27.277 -11.813   2.957  0.00  0.00     0.001 A 
ATOM      4  C   UNL d   1      27.354 -12.937   3.764  0.00  0.00     0.002 A 
ATOM      5  C   UNL d   1      27.721 -14.182   3.210  0.00  0.00     0.030 A 
ATOM      6  C   UNL d   1      28.005 -14.337   1.827  0.00  0.00     0.050 A 
ENDROOT
BRANCH   6   7
ATOM      7  N   UNL d   1      28.425 -15.642   1.355  0.00  0.00    -0.332 N 
ATOM      8  H   UNL d   1      29.396 -15.855   1.556  0.00  0.00     0.168 HD
BRANCH   7   9
ATOM      9  C   UNL d   1      27.953 -16.280   0.190  0.00  0.00     0.179 C 
ATOM     10  S   UNL d   1      28.914 -16.485  -1.182  0.00  0.00    -0.040 SA
BRANCH   9  11
ATOM     11  N   UNL d   1      26.647 -16.807   0.338  0.00  0.00    -0.299 N 
ATOM     12  C   UNL d   1      25.537 -16.223  -0.263  0.00  0.00     0.257 C 
ATOM     13  O   UNL d   1      25.538 -15.056  -0.672  0.00  0.00    -0.267 OA
ATOM     14  H   UNL d   1      26.595 -17.801   0.507  0.00  0.00     0.171 HD
BRANCH  12  15
ATOM     15  C   UNL d   1      24.250 -16.916  -0.494  0.00  0.00     0.032 C 
ATOM     16  C   UNL d   1      24.324 -18.322  -0.400  0.00  0.00     0.018 C 
ATOM     17  C   UNL d   1      23.201 -19.128  -0.528  0.00  0.00     0.018 C 
ATOM     18  C   UNL d   1      21.949 -18.538  -0.695  0.00  0.00     0.039 C 
ATOM     19  C   UNL d   1      21.875 -17.143  -0.893  0.00  0.00     0.018 C 
ATOM     20  C   UNL d   1      23.029 -16.330  -0.818  0.00  0.00     0.018 C 
BRANCH  18  21
ATOM     21  C   UNL d   1      20.759 -19.428  -0.572  0.00  0.00     0.292 C 
ATOM     22  O   UNL d   1      20.158 -19.874  -1.548  0.00  0.00    -0.259 OA
BRANCH  21  23
ATOM     23  O   UNL d   1      20.482 -19.727   0.719  0.00  0.00    -0.323 OA
ATOM     24  C   UNL d   1      19.174 -20.281   0.920  0.00  0.00     0.213 C 
ENDBRANCH  21  23
ENDBRANCH  18  21
ENDBRANCH  12  15
ENDBRANCH   9  11
ENDBRANCH   7   9
ENDBRANCH   6   7
BRANCH   1  25
ATOM     25  C   UNL d   1      28.117 -13.120  -0.454  0.00  0.00     0.258 C 
ATOM     26  N   UNL d   1      27.079 -13.295  -1.374  0.00  0.00    -0.323 N 
ATOM     27  H   UNL d   1      26.149 -13.454  -1.008  0.00  0.00     0.169 HD
ATOM     28  O   UNL d   1      29.295 -12.893  -0.725  0.00  0.00    -0.267 OA
BRANCH  26  29
ATOM     29  C   UNL d   1      27.282 -13.602  -2.763  0.00  0.00     0.035 A 
ATOM     30  C   UNL d   1      26.595 -14.666  -3.371  0.00  0.00     0.032 A 
ATOM     31  C   UNL d   1      26.987 -15.132  -4.655  0.00  0.00     0.039 A 
ATOM     32  C   UNL d   1      28.002 -14.498  -5.384  0.00  0.00     0.068 A 
ATOM     33  C   UNL d   1      28.659 -13.434  -4.791  0.00  0.00     0.039 A 
ATOM     34  C   UNL d   1      28.303 -13.003  -3.506  0.00  0.00     0.032 A 
BRANCH  32  35
ATOM     35  O   UNL d   1      28.237 -14.970  -6.646  0.00  0.00    -0.352 OA
BRANCH  35  36
ATOM     36  C   UNL d   1      29.594 -15.234  -7.020  0.00  0.00     0.171 C 
ATOM     37  C   UNL d   1      30.072 -16.454  -6.246  0.00  0.00     0.034 C 
ENDBRANCH  35  36
ENDBRANCH  32  35
ENDBRANCH  26  29
ENDBRANCH   1  25
TORSDOF 10
ENDMDL
MODEL 7
REMARK VINA RESULT:    -9.127      4.254      5.609
REMARK INTER + INTRA:         -14.425
REMARK INTER:                 -12.110
REMARK INTRA:                  -2.315
REMARK CONF_INDEPENDENT:        2.983
REMARK UNBOUND:                -2.315
REMARK  10 active torsions:
REMARK  status: ('A' for Active; 'I' for Inactive)
REMARK    1  A    between atoms: C_2  and  O_3 
REMARK    2  A    between atoms: O_3  and  C_4 
REMARK    3  A    between atoms: C_7  and  N_8 
REMARK       I    between atoms: N_8  and  C_9 
REMARK    4  A    between atoms: C_9  and  C_11 
REMARK    5  A    between atoms: C_16  and  N_17 
REMARK    6  A    between atoms: N_17  and  C_18 
REMARK    7  A    between atoms: C_18  and  N_20 
REMARK       I    between atoms: N_20  and  C_21 
REMARK    8  A    between atoms: C_21  and  C_23 
REMARK    9  A    between atoms: C_26  and  C_27 
REMARK   10  A    between atoms: C_27  and  O_29 
ROOT
ATOM      1  C   UNL d   1      27.420 -13.217   1.192  0.00  0.00     0.059 A 
ATOM      2  C   UNL d   1      27.514 -11.914   1.747  0.00  0.00     0.019 A 
ATOM      3  C   UNL d   1      28.061 -11.683   3.004  0.00  0.00     0.001 A 
ATOM      4  C   UNL d   1      28.462 -12.770   3.765  0.00  0.00     0.002 A 
ATOM      5  C   UNL d   1      28.397 -14.073   3.227  0.00  0.00     0.030 A 
ATOM      6  C   UNL d   1      27.911 -14.324   1.916  0.00  0.00     0.050 A 
ENDROOT
BRANCH   6   7
ATOM      7  N   UNL d   1      27.929 -15.688   1.427  0.00  0.00    -0.332 N 
ATOM      8  H   UNL d   1      28.333 -16.350   2.081  0.00  0.00     0.168 HD
BRANCH   7   9
ATOM      9  C   UNL d   1      28.101 -16.071   0.082  0.00  0.00     0.179 C 
ATOM     10  S   UNL d   1      29.619 -16.151  -0.650  0.00  0.00    -0.040 SA
BRANCH   9  11
ATOM     11  N   UNL d   1      26.892 -16.471  -0.539  0.00  0.00    -0.299 N 
ATOM     12  C   UNL d   1      26.028 -17.394   0.040  0.00  0.00     0.257 C 
ATOM     13  O   UNL d   1      26.385 -18.169   0.935  0.00  0.00    -0.267 OA
ATOM     14  H   UNL d   1      26.474 -15.790  -1.157  0.00  0.00     0.171 HD
BRANCH  12  15
ATOM     15  C   UNL d   1      24.603 -17.550  -0.327  0.00  0.00     0.032 C 
ATOM     16  C   UNL d   1      24.178 -18.890  -0.446  0.00  0.00     0.018 C 
ATOM     17  C   UNL d   1      22.859 -19.222  -0.723  0.00  0.00     0.018 C 
ATOM     18  C   UNL d   1      21.906 -18.211  -0.830  0.00  0.00     0.039 C 
ATOM     19  C   UNL d   1      22.334 -16.867  -0.816  0.00  0.00     0.018 C 
ATOM     20  C   UNL d   1      23.689 -16.532  -0.588  0.00  0.00     0.018 C 
BRANCH  18  21
ATOM     21  C   UNL d   1      20.476 -18.631  -0.874  0.00  0.00     0.292 C 
ATOM     22  O   UNL d   1      19.546 -17.826  -0.896  0.00  0.00    -0.259 OA
BRANCH  21  23
ATOM     23  O   UNL d   1      20.345 -19.976  -0.954  0.00  0.00    -0.323 OA
ATOM     24  C   UNL d   1      19.908 -20.593   0.264  0.00  0.00     0.213 C 
ENDBRANCH  21  23
ENDBRANCH  18  21
ENDBRANCH  12  15
ENDBRANCH   9  11
ENDBRANCH   7   9
ENDBRANCH   6   7
BRANCH   1  25
ATOM     25  C   UNL d   1      26.913 -13.235  -0.209  0.00  0.00     0.258 C 
ATOM     26  N   UNL d   1      27.511 -12.416  -1.172  0.00  0.00    -0.323 N 
ATOM     27  H   UNL d   1      28.296 -11.847  -0.883  0.00  0.00     0.169 HD
ATOM     28  O   UNL d   1      25.972 -14.004  -0.396  0.00  0.00    -0.267 OA
BRANCH  26  29
ATOM     29  C   UNL d   1      26.897 -12.071  -2.424  0.00  0.00     0.035 A 
ATOM     30  C   UNL d   1      26.645 -13.053  -3.397  0.00  0.00     0.032 A 
ATOM     31  C   UNL d   1      26.289 -12.678  -4.720  0.00  0.00     0.039 A 
ATOM     32  C   UNL d   1      26.095 -11.335  -5.071  0.00  0.00     0.068 A 
ATOM     33  C   UNL d   1      26.320 -10.372  -4.103  0.00  0.00     0.039 A 
ATOM     34  C   UNL d   1      26.715 -10.739  -2.810  0.00  0.00     0.032 A 
BRANCH  32  35
ATOM     35  O   UNL d   1      25.664 -11.091  -6.346  0.00  0.00    -0.352 OA
BRANCH  35  36
ATOM     36  C   UNL d   1      26.234  -9.977  -7.044  0.00  0.00     0.171 C 
ATOM     37  C   UNL d   1      26.654 -10.449  -8.429  0.00  0.00     0.034 C 
ENDBRANCH  35  36
ENDBRANCH  32  35
ENDBRANCH  26  29
ENDBRANCH   1  25
TORSDOF 10
ENDMDL
MODEL 8
REMARK VINA RESULT:    -8.781      3.657      6.935
REMARK INTER + INTRA:         -14.892
REMARK INTER:                 -11.764
REMARK INTRA:                  -3.128
REMARK CONF_INDEPENDENT:        2.983
REMARK UNBOUND:                -3.128
REMARK  10 active torsions:
REMARK  status: ('A' for Active; 'I' for Inactive)
REMARK    1  A    between atoms: C_2  and  O_3 
REMARK    2  A    between atoms: O_3  and  C_4 
REMARK    3  A    between atoms: C_7  and  N_8 
REMARK       I    between atoms: N_8  and  C_9 
REMARK    4  A    between atoms: C_9  and  C_11 
REMARK    5  A    between atoms: C_16  and  N_17 
REMARK    6  A    between atoms: N_17  and  C_18 
REMARK    7  A    between atoms: C_18  and  N_20 
REMARK       I    between atoms: N_20  and  C_21 
REMARK    8  A    between atoms: C_21  and  C_23 
REMARK    9  A    between atoms: C_26  and  C_27 
REMARK   10  A    between atoms: C_27  and  O_29 
ROOT
ATOM      1  C   UNL d   1      26.931 -13.591  -2.332  0.00  0.00     0.059 A 
ATOM      2  C   UNL d   1      25.692 -13.058  -2.776  0.00  0.00     0.019 A 
ATOM      3  C   UNL d   1      25.066 -13.507  -3.933  0.00  0.00     0.001 A 
ATOM      4  C   UNL d   1      25.708 -14.458  -4.711  0.00  0.00     0.002 A 
ATOM      5  C   UNL d   1      26.931 -15.017  -4.280  0.00  0.00     0.030 A 
ATOM      6  C   UNL d   1      27.551 -14.625  -3.064  0.00  0.00     0.050 A 
ENDROOT
BRANCH   6   7
ATOM      7  N   UNL d   1      28.779 -15.290  -2.675  0.00  0.00    -0.332 N 
ATOM      8  H   UNL d   1      29.441 -15.400  -3.435  0.00  0.00     0.168 HD
BRANCH   7   9
ATOM      9  C   UNL d   1      28.885 -16.305  -1.703  0.00  0.00     0.179 C 
ATOM     10  S   UNL d   1      30.257 -16.493  -0.738  0.00  0.00    -0.040 SA
BRANCH   9  11
ATOM     11  N   UNL d   1      27.698 -17.064  -1.561  0.00  0.00    -0.299 N 
ATOM     12  C   UNL d   1      26.873 -16.954  -0.446  0.00  0.00     0.257 C 
ATOM     13  O   UNL d   1      27.261 -16.468   0.623  0.00  0.00    -0.267 OA
ATOM     14  H   UNL d   1      27.252 -17.340  -2.424  0.00  0.00     0.171 HD
BRANCH  12  15
ATOM     15  C   UNL d   1      25.458 -17.384  -0.407  0.00  0.00     0.032 C 
ATOM     16  C   UNL d   1      24.541 -16.394  -0.822  0.00  0.00     0.018 C 
ATOM     17  C   UNL d   1      23.178 -16.643  -0.907  0.00  0.00     0.018 C 
ATOM     18  C   UNL d   1      22.697 -17.923  -0.633  0.00  0.00     0.039 C 
ATOM     19  C   UNL d   1      23.587 -18.889  -0.119  0.00  0.00     0.018 C 
ATOM     20  C   UNL d   1      24.967 -18.616   0.018  0.00  0.00     0.018 C 
BRANCH  18  21
ATOM     21  C   UNL d   1      21.274 -18.200  -0.983  0.00  0.00     0.292 C 
ATOM     22  O   UNL d   1      20.474 -17.311  -1.270  0.00  0.00    -0.259 OA
BRANCH  21  23
ATOM     23  O   UNL d   1      21.008 -19.527  -1.010  0.00  0.00    -0.323 OA
ATOM     24  C   UNL d   1      19.709 -19.871  -0.509  0.00  0.00     0.213 C 
ENDBRANCH  21  23
ENDBRANCH  18  21
ENDBRANCH  12  15
ENDBRANCH   9  11
ENDBRANCH   7   9
ENDBRANCH   6   7
BRANCH   1  25
ATOM     25  C   UNL d   1      27.373 -13.057  -1.013  0.00  0.00     0.258 C 
ATOM     26  N   UNL d   1      27.820 -13.938  -0.024  0.00  0.00    -0.323 N 
ATOM     27  H   UNL d   1      27.850 -14.924  -0.251  0.00  0.00     0.169 HD
ATOM     28  O   UNL d   1      27.298 -11.833  -0.913  0.00  0.00    -0.267 OA
BRANCH  26  29
ATOM     29  C   UNL d   1      27.913 -13.600   1.369  0.00  0.00     0.035 A 
ATOM     30  C   UNL d   1      28.628 -14.416   2.261  0.00  0.00     0.032 A 
ATOM     31  C   UNL d   1      28.500 -14.230   3.664  0.00  0.00     0.039 A 
ATOM     32  C   UNL d   1      27.733 -13.185   4.195  0.00  0.00     0.068 A 
ATOM     33  C   UNL d   1      27.051 -12.367   3.312  0.00  0.00     0.039 A 
ATOM     34  C   UNL d   1      27.141 -12.578   1.929  0.00  0.00     0.032 A 
BRANCH  32  35
ATOM     35  O   UNL d   1      27.752 -13.040   5.555  0.00  0.00    -0.352 OA
BRANCH  35  36
ATOM     36  C   UNL d   1      29.013 -12.777   6.183  0.00  0.00     0.171 C 
ATOM     37  C   UNL d   1      29.055 -11.304   6.565  0.00  0.00     0.034 C 
ENDBRANCH  35  36
ENDBRANCH  32  35
ENDBRANCH  26  29
ENDBRANCH   1  25
TORSDOF 10
ENDMDL
MODEL 9
REMARK VINA RESULT:    -8.422      4.035      6.623
REMARK INTER + INTRA:         -14.366
REMARK INTER:                 -11.405
REMARK INTRA:                  -2.960
REMARK CONF_INDEPENDENT:        2.983
REMARK UNBOUND:                -2.960
REMARK  10 active torsions:
REMARK  status: ('A' for Active; 'I' for Inactive)
REMARK    1  A    between atoms: C_2  and  O_3 
REMARK    2  A    between atoms: O_3  and  C_4 
REMARK    3  A    between atoms: C_7  and  N_8 
REMARK       I    between atoms: N_8  and  C_9 
REMARK    4  A    between atoms: C_9  and  C_11 
REMARK    5  A    between atoms: C_16  and  N_17 
REMARK    6  A    between atoms: N_17  and  C_18 
REMARK    7  A    between atoms: C_18  and  N_20 
REMARK       I    between atoms: N_20  and  C_21 
REMARK    8  A    between atoms: C_21  and  C_23 
REMARK    9  A    between atoms: C_26  and  C_27 
REMARK   10  A    between atoms: C_27  and  O_29 
ROOT
ATOM      1  C   UNL d   1      26.964 -11.325  -2.509  0.00  0.00     0.059 A 
ATOM      2  C   UNL d   1      27.311 -10.013  -2.928  0.00  0.00     0.019 A 
ATOM      3  C   UNL d   1      26.986  -9.530  -4.191  0.00  0.00     0.001 A 
ATOM      4  C   UNL d   1      26.366 -10.383  -5.090  0.00  0.00     0.002 A 
ATOM      5  C   UNL d   1      25.994 -11.685  -4.690  0.00  0.00     0.030 A 
ATOM      6  C   UNL d   1      26.249 -12.173  -3.381  0.00  0.00     0.050 A 
ENDROOT
BRANCH   6   7
ATOM      7  N   UNL d   1      25.785 -13.503  -3.042  0.00  0.00    -0.332 N 
ATOM      8  H   UNL d   1      25.450 -13.587  -2.088  0.00  0.00     0.168 HD
BRANCH   7   9
ATOM      9  C   UNL d   1      26.318 -14.707  -3.545  0.00  0.00     0.179 C 
ATOM     10  S   UNL d   1      27.678 -14.747  -4.543  0.00  0.00    -0.040 SA
BRANCH   9  11
ATOM     11  N   UNL d   1      25.658 -15.857  -3.046  0.00  0.00    -0.299 N 
ATOM     12  C   UNL d   1      25.244 -15.962  -1.723  0.00  0.00     0.257 C 
ATOM     13  O   UNL d   1      25.700 -15.244  -0.824  0.00  0.00    -0.267 OA
ATOM     14  H   UNL d   1      25.128 -16.384  -3.726  0.00  0.00     0.171 HD
BRANCH  12  15
ATOM     15  C   UNL d   1      24.221 -16.915  -1.239  0.00  0.00     0.032 C 
ATOM     16  C   UNL d   1      22.903 -16.408  -1.257  0.00  0.00     0.018 C 
ATOM     17  C   UNL d   1      21.812 -17.185  -0.895  0.00  0.00     0.018 C 
ATOM     18  C   UNL d   1      22.005 -18.525  -0.560  0.00  0.00     0.039 C 
ATOM     19  C   UNL d   1      23.323 -19.013  -0.440  0.00  0.00     0.018 C 
ATOM     20  C   UNL d   1      24.437 -18.203  -0.756  0.00  0.00     0.018 C 
BRANCH  18  21
ATOM     21  C   UNL d   1      20.785 -19.372  -0.430  0.00  0.00     0.292 C 
ATOM     22  O   UNL d   1      20.004 -19.563  -1.361  0.00  0.00    -0.259 OA
BRANCH  21  23
ATOM     23  O   UNL d   1      20.693 -19.943   0.795  0.00  0.00    -0.323 OA
ATOM     24  C   UNL d   1      19.549 -20.794   0.955  0.00  0.00     0.213 C 
ENDBRANCH  21  23
ENDBRANCH  18  21
ENDBRANCH  12  15
ENDBRANCH   9  11
ENDBRANCH   7   9
ENDBRANCH   6   7
BRANCH   1  25
ATOM     25  C   UNL d   1      27.298 -11.604  -1.085  0.00  0.00     0.258 C 
ATOM     26  N   UNL d   1      27.289 -12.921  -0.616  0.00  0.00    -0.323 N 
ATOM     27  H   UNL d   1      27.073 -13.654  -1.280  0.00  0.00     0.169 HD
ATOM     28  O   UNL d   1      27.564 -10.602  -0.423  0.00  0.00    -0.267 OA
BRANCH  26  29
ATOM     29  C   UNL d   1      27.226 -13.279   0.774  0.00  0.00     0.035 A 
ATOM     30  C   UNL d   1      26.844 -12.335   1.742  0.00  0.00     0.032 A 
ATOM     31  C   UNL d   1      27.035 -12.607   3.123  0.00  0.00     0.039 A 
ATOM     32  C   UNL d   1      27.526 -13.843   3.563  0.00  0.00     0.068 A 
ATOM     33  C   UNL d   1      27.878 -14.780   2.607  0.00  0.00     0.039 A 
ATOM     34  C   UNL d   1      27.731 -14.495   1.243  0.00  0.00     0.032 A 
BRANCH  32  35
ATOM     35  O   UNL d   1      27.584 -14.033   4.917  0.00  0.00    -0.352 OA
BRANCH  35  36
ATOM     36  C   UNL d   1      28.512 -13.239   5.665  0.00  0.00     0.171 C 
ATOM     37  C   UNL d   1      29.904 -13.821   5.466  0.00  0.00     0.034 C 
ENDBRANCH  35  36
ENDBRANCH  32  35
ENDBRANCH  26  29
ENDBRANCH   1  25
TORSDOF 10
ENDMDL
