MODEL 1
REMARK VINA RESULT:   -30.515      0.000      0.000
REMARK INTER + INTRA:         -32.591
REMARK INTER:                 -31.409
REMARK INTRA:                  -1.182
REMARK CONF_INDEPENDENT:        0.895
REMARK UNBOUND:                -1.182
REMARK  3 active torsions:
REMARK  status: ('A' for Active; 'I' for Inactive)
REMARK       I    between atoms: N_1  and  C_2 
REMARK    1  A    between atoms: C_2  and  C_4 
REMARK    2  A    between atoms: C_9  and  N_10 
REMARK       I    between atoms: N_10  and  C_11 
REMARK    3  A    between atoms: C_11  and  C_13 
ROOT
ATOM      1  N   UNL d   1      24.120 -18.000  -0.892  0.00  0.00    -0.322 N 
ATOM      2  C   UNL d   1      22.916 -17.478  -0.458  0.00  0.00     0.257 C 
ATOM      3  O   UNL d   1      22.741 -16.298  -0.152  0.00  0.00    -0.267 OA
ATOM      4  H   UNL d   1      24.087 -18.737  -1.587  0.00  0.00     0.169 HD
ENDROOT
BRANCH   1   5
ATOM      5  C   UNL d   1      25.384 -17.336  -0.723  0.00  0.00     0.050 A 
ATOM      6  C   UNL d   1      26.198 -17.765   0.347  0.00  0.00     0.030 A 
ATOM      7  C   UNL d   1      27.459 -17.190   0.580  0.00  0.00     0.002 A 
ATOM      8  C   UNL d   1      27.939 -16.186  -0.254  0.00  0.00     0.001 A 
ATOM      9  C   UNL d   1      27.132 -15.710  -1.281  0.00  0.00     0.019 A 
ATOM     10  C   UNL d   1      25.867 -16.272  -1.522  0.00  0.00     0.052 A 
BRANCH  10  11
ATOM     11  C   UNL d   1      25.159 -15.662  -2.671  0.00  0.00     0.231 C 
ATOM     12  N   UNL d   1      24.062 -14.884  -2.397  0.00  0.00    -0.268 NA
ATOM     13  H   UNL d   1      23.389 -14.970  -3.152  0.00  0.00     0.127 HD
ATOM     14  H   UNL d   1      23.662 -14.948  -1.473  0.00  0.00     0.127 HD
ATOM     15  O   UNL d   1      25.521 -15.884  -3.820  0.00  0.00    -0.274 OA
ENDBRANCH  10  11
ENDBRANCH   1   5
BRANCH   2  16
ATOM     16  C   UNL d   1      21.710 -18.312  -0.350  0.00  0.00     0.051 A 
ATOM     17  C   UNL d   1      20.794 -18.559  -1.355  0.00  0.00     0.135 A 
ATOM     18  N   UNL d   1      19.688 -19.325  -1.168  0.00  0.00    -0.246 NA
ATOM     19  C   UNL d   1      19.497 -19.853   0.075  0.00  0.00     0.147 A 
ATOM     20 CL   UNL d   1      18.030 -20.734   0.228  0.00  0.00    -0.061 Cl
ATOM     21  C   UNL d   1      20.380 -19.693   1.131  0.00  0.00     0.075 A 
ATOM     22 CL   UNL d   1      20.124 -20.292   2.723  0.00  0.00    -0.081 Cl
ATOM     23  C   UNL d   1      21.519 -18.950   0.889  0.00  0.00     0.045 A 
ENDBRANCH   2  16
TORSDOF 3
ENDMDL
MODEL 2
REMARK VINA RESULT:   -29.527      1.411      2.362
REMARK INTER + INTRA:         -30.462
REMARK INTER:                 -30.422
REMARK INTRA:                  -0.040
REMARK CONF_INDEPENDENT:        0.895
REMARK UNBOUND:                -0.040
REMARK  3 active torsions:
REMARK  status: ('A' for Active; 'I' for Inactive)
REMARK       I    between atoms: N_1  and  C_2 
REMARK    1  A    between atoms: C_2  and  C_4 
REMARK    2  A    between atoms: C_9  and  N_10 
REMARK       I    between atoms: N_10  and  C_11 
REMARK    3  A    between atoms: C_11  and  C_13 
ROOT
ATOM      1  N   UNL d   1      23.398 -16.831  -1.401  0.00  0.00    -0.322 N 
ATOM      2  C   UNL d   1      22.997 -17.509  -0.266  0.00  0.00     0.257 C 
ATOM      3  O   UNL d   1      23.594 -17.474   0.811  0.00  0.00    -0.267 OA
ATOM      4  H   UNL d   1      22.673 -16.470  -2.011  0.00  0.00     0.169 HD
ENDROOT
BRANCH   1   5
ATOM      5  C   UNL d   1      24.716 -16.286  -1.580  0.00  0.00     0.050 A 
ATOM      6  C   UNL d   1      24.828 -15.112  -2.353  0.00  0.00     0.030 A 
ATOM      7  C   UNL d   1      26.073 -14.494  -2.567  0.00  0.00     0.002 A 
ATOM      8  C   UNL d   1      27.227 -15.027  -2.004  0.00  0.00     0.001 A 
ATOM      9  C   UNL d   1      27.150 -16.214  -1.285  0.00  0.00     0.019 A 
ATOM     10  C   UNL d   1      25.913 -16.844  -1.068  0.00  0.00     0.052 A 
BRANCH  10  11
ATOM     11  C   UNL d   1      26.014 -18.080  -0.258  0.00  0.00     0.231 C 
ATOM     12  N   UNL d   1      27.085 -18.192   0.592  0.00  0.00    -0.268 NA
ATOM     13  H   UNL d   1      27.358 -19.167   0.665  0.00  0.00     0.127 HD
ATOM     14  H   UNL d   1      27.855 -17.553   0.463  0.00  0.00     0.127 HD
ATOM     15  O   UNL d   1      25.191 -18.979  -0.381  0.00  0.00    -0.274 OA
ENDBRANCH  10  11
ENDBRANCH   1   5
BRANCH   2  16
ATOM     16  C   UNL d   1      21.775 -18.327  -0.248  0.00  0.00     0.051 A 
ATOM     17  C   UNL d   1      20.942 -18.573  -1.323  0.00  0.00     0.135 A 
ATOM     18  N   UNL d   1      19.814 -19.324  -1.221  0.00  0.00    -0.246 NA
ATOM     19  C   UNL d   1      19.515 -19.837   0.008  0.00  0.00     0.147 A 
ATOM     20 CL   UNL d   1      18.030 -20.699   0.048  0.00  0.00    -0.061 Cl
ATOM     21  C   UNL d   1      20.311 -19.677   1.131  0.00  0.00     0.075 A 
ATOM     22 CL   UNL d   1      19.918 -20.256   2.702  0.00  0.00    -0.081 Cl
ATOM     23  C   UNL d   1      21.476 -18.950   0.976  0.00  0.00     0.045 A 
ENDBRANCH   2  16
TORSDOF 3
ENDMDL
