MODEL 1
REMARK VINA RESULT:    -9.890      0.000      0.000
REMARK INTER + INTRA:         -13.515
REMARK INTER:                 -11.381
REMARK INTRA:                  -2.134
REMARK CONF_INDEPENDENT:        1.492
REMARK UNBOUND:                -2.134
REMARK  5 active torsions:
REMARK  status: ('A' for Active; 'I' for Inactive)
REMARK    1  A    between atoms: C_5  and  N_6 
REMARK       I    between atoms: N_6  and  C_7 
REMARK       I    between atoms: C_7  and  N_9 
REMARK    2  A    between atoms: N_9  and  C_10 
REMARK    3  A    between atoms: C_12  and  N_13 
REMARK       I    between atoms: N_13  and  C_14 
REMARK    4  A    between atoms: C_14  and  C_16 
REMARK    5  A    between atoms: C_25  and  N_26 
ROOT
ATOM      1  C   UNL d   1      24.434 -16.191  -1.409  0.00  0.00     0.065 A 
ATOM      2  C   UNL d   1      23.335 -17.074  -1.225  0.00  0.00     0.061 A 
ATOM      3  C   UNL d   1      23.435 -18.166  -0.326  0.00  0.00     0.037 A 
ATOM      4  C   UNL d   1      24.669 -18.427   0.255  0.00  0.00     0.032 A 
ATOM      5  C   UNL d   1      25.737 -17.565   0.091  0.00  0.00     0.034 A 
ATOM      6  C   UNL d   1      25.645 -16.430  -0.712  0.00  0.00     0.057 A 
ENDROOT
BRANCH   1   7
ATOM      7  N   UNL d   1      24.349 -15.045  -2.274  0.00  0.00    -0.306 N 
ATOM      8  C   UNL d   1      25.225 -14.958  -3.354  0.00  0.00     0.325 C 
ATOM      9  N   UNL d   1      25.363 -13.694  -3.914  0.00  0.00    -0.308 N 
ATOM     10  O   UNL d   1      25.842 -15.950  -3.754  0.00  0.00    -0.247 OA
ATOM     11  H   UNL d   1      24.643 -13.020  -3.712  0.00  0.00     0.170 HD
ATOM     12  H   UNL d   1      23.511 -14.488  -2.260  0.00  0.00     0.170 HD
BRANCH   9  13
ATOM     13  C   UNL d   1      26.369 -13.350  -4.886  0.00  0.00     0.042 A 
ATOM     14  C   UNL d   1      27.182 -14.343  -5.455  0.00  0.00     0.030 A 
ATOM     15  C   UNL d   1      28.155 -14.086  -6.417  0.00  0.00     0.009 A 
ATOM     16  C   UNL d   1      28.370 -12.793  -6.859  0.00  0.00    -0.061 A 
ATOM     17  C   UNL d   1      29.419 -12.547  -7.903  0.00  0.00     0.048 C 
ATOM     18  C   UNL d   1      27.592 -11.767  -6.299  0.00  0.00     0.015 A 
ATOM     19  C   UNL d   1      26.601 -12.024  -5.305  0.00  0.00    -0.035 A 
ATOM     20  C   UNL d   1      25.830 -10.842  -4.782  0.00  0.00     0.050 C 
ENDBRANCH   9  13
ENDBRANCH   1   7
BRANCH   6  21
ATOM     21  N   UNL d   1      26.745 -15.595  -0.715  0.00  0.00    -0.379 N 
ATOM     22  C   UNL d   1      26.748 -14.438   0.173  0.00  0.00     0.123 C 
ATOM     23  C   UNL d   1      27.146 -13.228  -0.659  0.00  0.00     0.020 C 
ATOM     24  C   UNL d   1      28.472 -13.489  -1.388  0.00  0.00     0.003 C 
ATOM     25  C   UNL d   1      28.461 -14.813  -2.166  0.00  0.00     0.020 C 
ATOM     26  C   UNL d   1      28.027 -15.969  -1.273  0.00  0.00     0.123 C 
ENDBRANCH   6  21
BRANCH   3  27
ATOM     27  N   UNL d   1      22.305 -18.957   0.032  0.00  0.00    -0.323 N 
ATOM     28  C   UNL d   1      20.982 -18.680  -0.326  0.00  0.00     0.257 C 
ATOM     29  O   UNL d   1      20.575 -17.731  -0.999  0.00  0.00    -0.267 OA
ATOM     30  H   UNL d   1      22.485 -19.815   0.540  0.00  0.00     0.169 HD
BRANCH  28  31
ATOM     31  C   UNL d   1      19.918 -19.612   0.108  0.00  0.00     0.054 A 
ATOM     32  C   UNL d   1      19.020 -20.080  -0.879  0.00  0.00     0.019 A 
ATOM     33  C   UNL d   1      17.877 -20.797  -0.520  0.00  0.00     0.001 A 
ATOM     34  C   UNL d   1      17.655 -21.105   0.818  0.00  0.00     0.002 A 
ATOM     35  C   UNL d   1      18.541 -20.651   1.797  0.00  0.00     0.025 A 
ATOM     36  C   UNL d   1      19.667 -19.897   1.450  0.00  0.00     0.049 A 
ATOM     37 CL   UNL d   1      20.655 -19.326   2.747  0.00  0.00    -0.083 Cl
ENDBRANCH  28  31
ENDBRANCH   3  27
TORSDOF 5
ENDMDL
MODEL 2
REMARK VINA RESULT:    -9.086      3.792      9.807
REMARK INTER + INTRA:         -12.143
REMARK INTER:                 -10.578
REMARK INTRA:                  -1.565
REMARK CONF_INDEPENDENT:        1.492
REMARK UNBOUND:                -1.565
REMARK  5 active torsions:
REMARK  status: ('A' for Active; 'I' for Inactive)
REMARK    1  A    between atoms: C_5  and  N_6 
REMARK       I    between atoms: N_6  and  C_7 
REMARK       I    between atoms: C_7  and  N_9 
REMARK    2  A    between atoms: N_9  and  C_10 
REMARK    3  A    between atoms: C_12  and  N_13 
REMARK       I    between atoms: N_13  and  C_14 
REMARK    4  A    between atoms: C_14  and  C_16 
REMARK    5  A    between atoms: C_25  and  N_26 
ROOT
ATOM      1  C   UNL d   1      26.951 -15.701  -1.470  0.00  0.00     0.065 A 
ATOM      2  C   UNL d   1      27.709 -14.999  -2.446  0.00  0.00     0.061 A 
ATOM      3  C   UNL d   1      27.147 -14.703  -3.713  0.00  0.00     0.037 A 
ATOM      4  C   UNL d   1      25.902 -15.236  -4.020  0.00  0.00     0.032 A 
ATOM      5  C   UNL d   1      25.155 -15.908  -3.071  0.00  0.00     0.034 A 
ATOM      6  C   UNL d   1      25.639 -16.136  -1.784  0.00  0.00     0.057 A 
ENDROOT
BRANCH   1   7
ATOM      7  N   UNL d   1      27.472 -15.973  -0.156  0.00  0.00    -0.306 N 
ATOM      8  C   UNL d   1      27.200 -15.071   0.870  0.00  0.00     0.325 C 
ATOM      9  N   UNL d   1      28.018 -15.170   1.988  0.00  0.00    -0.308 N 
ATOM     10  O   UNL d   1      26.299 -14.234   0.758  0.00  0.00    -0.247 OA
ATOM     11  H   UNL d   1      28.530 -16.028   2.109  0.00  0.00     0.170 HD
ATOM     12  H   UNL d   1      27.767 -16.910   0.063  0.00  0.00     0.170 HD
BRANCH   9  13
ATOM     13  C   UNL d   1      28.043 -14.202   3.054  0.00  0.00     0.042 A 
ATOM     14  C   UNL d   1      27.817 -14.597   4.383  0.00  0.00     0.030 A 
ATOM     15  C   UNL d   1      27.852 -13.720   5.465  0.00  0.00     0.009 A 
ATOM     16  C   UNL d   1      28.114 -12.377   5.261  0.00  0.00    -0.061 A 
ATOM     17  C   UNL d   1      28.155 -11.457   6.446  0.00  0.00     0.048 C 
ATOM     18  C   UNL d   1      28.325 -11.938   3.945  0.00  0.00     0.015 A 
ATOM     19  C   UNL d   1      28.280 -12.831   2.832  0.00  0.00    -0.035 A 
ATOM     20  C   UNL d   1      28.524 -12.241   1.469  0.00  0.00     0.050 C 
ENDBRANCH   9  13
ENDBRANCH   1   7
BRANCH   6  21
ATOM     21  N   UNL d   1      24.761 -16.727  -0.899  0.00  0.00    -0.379 N 
ATOM     22  C   UNL d   1      25.251 -17.796  -0.036  0.00  0.00     0.123 C 
ATOM     23  C   UNL d   1      24.269 -18.953  -0.144  0.00  0.00     0.020 C 
ATOM     24  C   UNL d   1      22.841 -18.477   0.160  0.00  0.00     0.003 C 
ATOM     25  C   UNL d   1      22.449 -17.240  -0.660  0.00  0.00     0.020 C 
ATOM     26  C   UNL d   1      23.493 -16.138  -0.521  0.00  0.00     0.123 C 
ENDBRANCH   6  21
BRANCH   3  27
ATOM     27  N   UNL d   1      27.794 -13.840  -4.645  0.00  0.00    -0.323 N 
ATOM     28  C   UNL d   1      28.060 -14.152  -5.981  0.00  0.00     0.257 C 
ATOM     29  O   UNL d   1      27.784 -15.199  -6.571  0.00  0.00    -0.267 OA
ATOM     30  H   UNL d   1      28.030 -12.908  -4.324  0.00  0.00     0.169 HD
BRANCH  28  31
ATOM     31  C   UNL d   1      28.724 -13.139  -6.830  0.00  0.00     0.054 A 
ATOM     32  C   UNL d   1      27.960 -12.015  -7.222  0.00  0.00     0.019 A 
ATOM     33  C   UNL d   1      28.446 -11.121  -8.177  0.00  0.00     0.001 A 
ATOM     34  C   UNL d   1      29.720 -11.307  -8.703  0.00  0.00     0.002 A 
ATOM     35  C   UNL d   1      30.482 -12.411  -8.317  0.00  0.00     0.025 A 
ATOM     36  C   UNL d   1      29.987 -13.335  -7.390  0.00  0.00     0.049 A 
ATOM     37 CL   UNL d   1      30.983 -14.701  -7.039  0.00  0.00    -0.083 Cl
ENDBRANCH  28  31
ENDBRANCH   3  27
TORSDOF 5
ENDMDL
MODEL 3
REMARK VINA RESULT:    -9.054      4.675      8.737
REMARK INTER + INTRA:         -11.942
REMARK INTER:                 -10.545
REMARK INTRA:                  -1.396
REMARK CONF_INDEPENDENT:        1.492
REMARK UNBOUND:                -1.396
REMARK  5 active torsions:
REMARK  status: ('A' for Active; 'I' for Inactive)
REMARK    1  A    between atoms: C_5  and  N_6 
REMARK       I    between atoms: N_6  and  C_7 
REMARK       I    between atoms: C_7  and  N_9 
REMARK    2  A    between atoms: N_9  and  C_10 
REMARK    3  A    between atoms: C_12  and  N_13 
REMARK       I    between atoms: N_13  and  C_14 
REMARK    4  A    between atoms: C_14  and  C_16 
REMARK    5  A    between atoms: C_25  and  N_26 
ROOT
ATOM      1  C   UNL d   1      27.119 -14.930  -3.484  0.00  0.00     0.065 A 
ATOM      2  C   UNL d   1      26.875 -13.761  -4.255  0.00  0.00     0.061 A 
ATOM      3  C   UNL d   1      25.621 -13.103  -4.183  0.00  0.00     0.037 A 
ATOM      4  C   UNL d   1      24.604 -13.706  -3.455  0.00  0.00     0.032 A 
ATOM      5  C   UNL d   1      24.839 -14.836  -2.692  0.00  0.00     0.034 A 
ATOM      6  C   UNL d   1      26.087 -15.456  -2.667  0.00  0.00     0.057 A 
ENDROOT
BRANCH   1   7
ATOM      7  N   UNL d   1      28.396 -15.593  -3.494  0.00  0.00    -0.306 N 
ATOM      8  C   UNL d   1      28.907 -16.038  -4.711  0.00  0.00     0.325 C 
ATOM      9  N   UNL d   1      29.922 -16.982  -4.627  0.00  0.00    -0.308 N 
ATOM     10  O   UNL d   1      28.455 -15.620  -5.782  0.00  0.00    -0.247 OA
ATOM     11  H   UNL d   1      30.404 -17.062  -3.747  0.00  0.00     0.170 HD
ATOM     12  H   UNL d   1      29.007 -15.478  -2.704  0.00  0.00     0.170 HD
BRANCH   9  13
ATOM     13  C   UNL d   1      30.430 -17.721  -5.754  0.00  0.00     0.042 A 
ATOM     14  C   UNL d   1      30.405 -19.125  -5.758  0.00  0.00     0.030 A 
ATOM     15  C   UNL d   1      30.855 -19.901  -6.823  0.00  0.00     0.009 A 
ATOM     16  C   UNL d   1      31.370 -19.296  -7.955  0.00  0.00    -0.061 A 
ATOM     17  C   UNL d   1      31.840 -20.157  -9.090  0.00  0.00     0.048 C 
ATOM     18  C   UNL d   1      31.433 -17.894  -7.982  0.00  0.00     0.015 A 
ATOM     19  C   UNL d   1      30.982 -17.093  -6.889  0.00  0.00    -0.035 A 
ATOM     20  C   UNL d   1      31.100 -15.601  -7.037  0.00  0.00     0.050 C 
ENDBRANCH   9  13
ENDBRANCH   1   7
BRANCH   6  21
ATOM     21  N   UNL d   1      26.224 -16.514  -1.790  0.00  0.00    -0.379 N 
ATOM     22  C   UNL d   1      25.115 -17.450  -1.645  0.00  0.00     0.123 C 
ATOM     23  C   UNL d   1      24.857 -17.621  -0.156  0.00  0.00     0.020 C 
ATOM     24  C   UNL d   1      26.148 -18.026   0.571  0.00  0.00     0.003 C 
ATOM     25  C   UNL d   1      27.324 -17.097   0.238  0.00  0.00     0.020 C 
ATOM     26  C   UNL d   1      27.500 -16.957  -1.270  0.00  0.00     0.123 C 
ENDBRANCH   6  21
BRANCH   3  27
ATOM     27  N   UNL d   1      25.399 -11.831  -4.784  0.00  0.00    -0.323 N 
ATOM     28  C   UNL d   1      25.948 -10.624  -4.342  0.00  0.00     0.257 C 
ATOM     29  O   UNL d   1      26.703 -10.456  -3.382  0.00  0.00    -0.267 OA
ATOM     30  H   UNL d   1      24.842 -11.812  -5.631  0.00  0.00     0.169 HD
BRANCH  28  31
ATOM     31  C   UNL d   1      25.637  -9.385  -5.088  0.00  0.00     0.054 A 
ATOM     32  C   UNL d   1      24.780  -8.448  -4.464  0.00  0.00     0.019 A 
ATOM     33  C   UNL d   1      24.281  -7.355  -5.176  0.00  0.00     0.001 A 
ATOM     34  C   UNL d   1      24.680  -7.156  -6.493  0.00  0.00     0.002 A 
ATOM     35  C   UNL d   1      25.530  -8.075  -7.113  0.00  0.00     0.025 A 
ATOM     36  C   UNL d   1      26.002  -9.194  -6.420  0.00  0.00     0.049 A 
ATOM     37 CL   UNL d   1      26.988 -10.303  -7.305  0.00  0.00    -0.083 Cl
ENDBRANCH  28  31
ENDBRANCH   3  27
TORSDOF 5
ENDMDL
MODEL 4
REMARK VINA RESULT:    -8.887      2.270      4.665
REMARK INTER + INTRA:         -12.083
REMARK INTER:                 -10.379
REMARK INTRA:                  -1.704
REMARK CONF_INDEPENDENT:        1.492
REMARK UNBOUND:                -1.704
REMARK  5 active torsions:
REMARK  status: ('A' for Active; 'I' for Inactive)
REMARK    1  A    between atoms: C_5  and  N_6 
REMARK       I    between atoms: N_6  and  C_7 
REMARK       I    between atoms: C_7  and  N_9 
REMARK    2  A    between atoms: N_9  and  C_10 
REMARK    3  A    between atoms: C_12  and  N_13 
REMARK       I    between atoms: N_13  and  C_14 
REMARK    4  A    between atoms: C_14  and  C_16 
REMARK    5  A    between atoms: C_25  and  N_26 
ROOT
ATOM      1  C   UNL d   1      25.167 -17.601  -0.742  0.00  0.00     0.065 A 
ATOM      2  C   UNL d   1      24.186 -18.436  -0.141  0.00  0.00     0.061 A 
ATOM      3  C   UNL d   1      22.818 -18.065  -0.162  0.00  0.00     0.037 A 
ATOM      4  C   UNL d   1      22.485 -16.810  -0.655  0.00  0.00     0.032 A 
ATOM      5  C   UNL d   1      23.432 -15.999  -1.253  0.00  0.00     0.034 A 
ATOM      6  C   UNL d   1      24.772 -16.374  -1.333  0.00  0.00     0.057 A 
ENDROOT
BRANCH   1   7
ATOM      7  N   UNL d   1      26.557 -17.971  -0.784  0.00  0.00    -0.306 N 
ATOM      8  C   UNL d   1      27.482 -17.168  -0.121  0.00  0.00     0.325 C 
ATOM      9  N   UNL d   1      28.807 -17.341  -0.500  0.00  0.00    -0.308 N 
ATOM     10  O   UNL d   1      27.119 -16.348   0.728  0.00  0.00    -0.247 OA
ATOM     11  H   UNL d   1      29.039 -18.193  -0.983  0.00  0.00     0.170 HD
ATOM     12  H   UNL d   1      26.798 -18.915  -1.034  0.00  0.00     0.170 HD
BRANCH   9  13
ATOM     13  C   UNL d   1      29.880 -16.468  -0.098  0.00  0.00     0.042 A 
ATOM     14  C   UNL d   1      29.638 -15.108   0.151  0.00  0.00     0.030 A 
ATOM     15  C   UNL d   1      30.621 -14.213   0.567  0.00  0.00     0.009 A 
ATOM     16  C   UNL d   1      31.922 -14.647   0.749  0.00  0.00    -0.061 A 
ATOM     17  C   UNL d   1      32.959 -13.662   1.205  0.00  0.00     0.048 C 
ATOM     18  C   UNL d   1      32.210 -15.995   0.489  0.00  0.00     0.015 A 
ATOM     19  C   UNL d   1      31.208 -16.914   0.053  0.00  0.00    -0.035 A 
ATOM     20  C   UNL d   1      31.639 -18.335  -0.191  0.00  0.00     0.050 C 
ENDBRANCH   9  13
ENDBRANCH   1   7
BRANCH   6  21
ATOM     21  N   UNL d   1      25.601 -15.527  -2.042  0.00  0.00    -0.379 N 
ATOM     22  C   UNL d   1      26.278 -14.451  -1.328  0.00  0.00     0.123 C 
ATOM     23  C   UNL d   1      26.047 -13.169  -2.113  0.00  0.00     0.020 C 
ATOM     24  C   UNL d   1      26.478 -13.349  -3.576  0.00  0.00     0.003 C 
ATOM     25  C   UNL d   1      25.863 -14.600  -4.218  0.00  0.00     0.020 C 
ATOM     26  C   UNL d   1      26.115 -15.835  -3.360  0.00  0.00     0.123 C 
ENDBRANCH   6  21
BRANCH   3  27
ATOM     27  N   UNL d   1      21.787 -18.955   0.254  0.00  0.00    -0.323 N 
ATOM     28  C   UNL d   1      20.466 -18.929  -0.205  0.00  0.00     0.257 C 
ATOM     29  O   UNL d   1      19.980 -18.154  -1.031  0.00  0.00    -0.267 OA
ATOM     30  H   UNL d   1      22.048 -19.697   0.893  0.00  0.00     0.169 HD
BRANCH  28  31
ATOM     31  C   UNL d   1      19.514 -19.937   0.310  0.00  0.00     0.054 A 
ATOM     32  C   UNL d   1      18.532 -20.423  -0.585  0.00  0.00     0.019 A 
ATOM     33  C   UNL d   1      17.481 -21.219  -0.126  0.00  0.00     0.001 A 
ATOM     34  C   UNL d   1      17.436 -21.586   1.215  0.00  0.00     0.002 A 
ATOM     35  C   UNL d   1      18.405 -21.115   2.102  0.00  0.00     0.025 A 
ATOM     36  C   UNL d   1      19.439 -20.283   1.659  0.00  0.00     0.049 A 
ATOM     37 CL   UNL d   1      20.540 -19.700   2.855  0.00  0.00    -0.083 Cl
ENDBRANCH  28  31
ENDBRANCH   3  27
TORSDOF 5
ENDMDL
MODEL 5
REMARK VINA RESULT:    -8.828      3.953      9.740
REMARK INTER + INTRA:         -11.588
REMARK INTER:                 -10.320
REMARK INTRA:                  -1.269
REMARK CONF_INDEPENDENT:        1.492
REMARK UNBOUND:                -1.269
REMARK  5 active torsions:
REMARK  status: ('A' for Active; 'I' for Inactive)
REMARK    1  A    between atoms: C_5  and  N_6 
REMARK       I    between atoms: N_6  and  C_7 
REMARK       I    between atoms: C_7  and  N_9 
REMARK    2  A    between atoms: N_9  and  C_10 
REMARK    3  A    between atoms: C_12  and  N_13 
REMARK       I    between atoms: N_13  and  C_14 
REMARK    4  A    between atoms: C_14  and  C_16 
REMARK    5  A    between atoms: C_25  and  N_26 
ROOT
ATOM      1  C   UNL d   1      27.241 -13.271  -3.782  0.00  0.00     0.065 A 
ATOM      2  C   UNL d   1      26.434 -12.110  -3.629  0.00  0.00     0.061 A 
ATOM      3  C   UNL d   1      26.331 -11.165  -4.680  0.00  0.00     0.037 A 
ATOM      4  C   UNL d   1      27.142 -11.331  -5.795  0.00  0.00     0.032 A 
ATOM      5  C   UNL d   1      27.919 -12.464  -5.955  0.00  0.00     0.034 A 
ATOM      6  C   UNL d   1      27.971 -13.460  -4.981  0.00  0.00     0.057 A 
ENDROOT
BRANCH   1   7
ATOM      7  N   UNL d   1      27.327 -14.275  -2.755  0.00  0.00    -0.306 N 
ATOM      8  C   UNL d   1      26.268 -15.168  -2.604  0.00  0.00     0.325 C 
ATOM      9  N   UNL d   1      26.225 -15.848  -1.393  0.00  0.00    -0.308 N 
ATOM     10  O   UNL d   1      25.425 -15.311  -3.495  0.00  0.00    -0.247 OA
ATOM     11  H   UNL d   1      27.073 -15.877  -0.852  0.00  0.00     0.170 HD
ATOM     12  H   UNL d   1      28.229 -14.495  -2.368  0.00  0.00     0.170 HD
BRANCH   9  13
ATOM     13  C   UNL d   1      25.106 -16.643  -0.957  0.00  0.00     0.042 A 
ATOM     14  C   UNL d   1      23.792 -16.256  -1.263  0.00  0.00     0.030 A 
ATOM     15  C   UNL d   1      22.666 -16.989  -0.895  0.00  0.00     0.009 A 
ATOM     16  C   UNL d   1      22.807 -18.165  -0.181  0.00  0.00    -0.061 A 
ATOM     17  C   UNL d   1      21.577 -18.939   0.194  0.00  0.00     0.048 C 
ATOM     18  C   UNL d   1      24.104 -18.576   0.164  0.00  0.00     0.015 A 
ATOM     19  C   UNL d   1      25.260 -17.823  -0.202  0.00  0.00    -0.035 A 
ATOM     20  C   UNL d   1      26.596 -18.367   0.224  0.00  0.00     0.050 C 
ENDBRANCH   9  13
ENDBRANCH   1   7
BRANCH   6  21
ATOM     21  N   UNL d   1      28.701 -14.587  -5.301  0.00  0.00    -0.379 N 
ATOM     22  C   UNL d   1      28.269 -15.875  -4.770  0.00  0.00     0.123 C 
ATOM     23  C   UNL d   1      29.489 -16.546  -4.157  0.00  0.00     0.020 C 
ATOM     24  C   UNL d   1      30.634 -16.617  -5.179  0.00  0.00     0.003 C 
ATOM     25  C   UNL d   1      30.923 -15.256  -5.829  0.00  0.00     0.020 C 
ATOM     26  C   UNL d   1      29.650 -14.638  -6.394  0.00  0.00     0.123 C 
ENDBRANCH   6  21
BRANCH   3  27
ATOM     27  N   UNL d   1      25.392 -10.094  -4.646  0.00  0.00    -0.323 N 
ATOM     28  C   UNL d   1      25.715  -8.736  -4.708  0.00  0.00     0.257 C 
ATOM     29  O   UNL d   1      26.841  -8.242  -4.805  0.00  0.00    -0.267 OA
ATOM     30  H   UNL d   1      24.409 -10.343  -4.629  0.00  0.00     0.169 HD
BRANCH  28  31
ATOM     31  C   UNL d   1      24.620  -7.742  -4.681  0.00  0.00     0.054 A 
ATOM     32  C   UNL d   1      23.505  -7.978  -5.517  0.00  0.00     0.019 A 
ATOM     33  C   UNL d   1      22.528  -6.997  -5.698  0.00  0.00     0.001 A 
ATOM     34  C   UNL d   1      22.625  -5.798  -5.000  0.00  0.00     0.002 A 
ATOM     35  C   UNL d   1      23.722  -5.561  -4.168  0.00  0.00     0.025 A 
ATOM     36  C   UNL d   1      24.725  -6.522  -4.012  0.00  0.00     0.049 A 
ATOM     37 CL   UNL d   1      26.070  -6.094  -3.017  0.00  0.00    -0.083 Cl
ENDBRANCH  28  31
ENDBRANCH   3  27
TORSDOF 5
ENDMDL
MODEL 6
REMARK VINA RESULT:    -8.759      4.400      9.746
REMARK INTER + INTRA:         -11.906
REMARK INTER:                 -10.251
REMARK INTRA:                  -1.655
REMARK CONF_INDEPENDENT:        1.492
REMARK UNBOUND:                -1.655
REMARK  5 active torsions:
REMARK  status: ('A' for Active; 'I' for Inactive)
REMARK    1  A    between atoms: C_5  and  N_6 
REMARK       I    between atoms: N_6  and  C_7 
REMARK       I    between atoms: C_7  and  N_9 
REMARK    2  A    between atoms: N_9  and  C_10 
REMARK    3  A    between atoms: C_12  and  N_13 
REMARK       I    between atoms: N_13  and  C_14 
REMARK    4  A    between atoms: C_14  and  C_16 
REMARK    5  A    between atoms: C_25  and  N_26 
ROOT
ATOM      1  C   UNL d   1      26.695 -14.234  -1.525  0.00  0.00     0.065 A 
ATOM      2  C   UNL d   1      26.670 -12.918  -2.062  0.00  0.00     0.061 A 
ATOM      3  C   UNL d   1      25.717 -12.564  -3.050  0.00  0.00     0.037 A 
ATOM      4  C   UNL d   1      24.910 -13.567  -3.573  0.00  0.00     0.032 A 
ATOM      5  C   UNL d   1      24.920 -14.844  -3.046  0.00  0.00     0.034 A 
ATOM      6  C   UNL d   1      25.781 -15.203  -2.009  0.00  0.00     0.057 A 
ENDROOT
BRANCH   1   7
ATOM      7  N   UNL d   1      27.615 -14.612  -0.485  0.00  0.00    -0.306 N 
ATOM      8  C   UNL d   1      27.294 -14.304   0.835  0.00  0.00     0.325 C 
ATOM      9  N   UNL d   1      28.352 -14.339   1.734  0.00  0.00    -0.308 N 
ATOM     10  O   UNL d   1      26.140 -14.001   1.155  0.00  0.00    -0.247 OA
ATOM     11  H   UNL d   1      29.177 -14.845   1.453  0.00  0.00     0.170 HD
ATOM     12  H   UNL d   1      28.307 -15.315  -0.684  0.00  0.00     0.170 HD
BRANCH   9  13
ATOM     13  C   UNL d   1      28.277 -13.849   3.085  0.00  0.00     0.042 A 
ATOM     14  C   UNL d   1      28.365 -14.733   4.172  0.00  0.00     0.030 A 
ATOM     15  C   UNL d   1      28.326 -14.326   5.504  0.00  0.00     0.009 A 
ATOM     16  C   UNL d   1      28.185 -12.986   5.816  0.00  0.00    -0.061 A 
ATOM     17  C   UNL d   1      28.154 -12.575   7.259  0.00  0.00     0.048 C 
ATOM     18  C   UNL d   1      28.073 -12.071   4.757  0.00  0.00     0.015 A 
ATOM     19  C   UNL d   1      28.102 -12.484   3.391  0.00  0.00    -0.035 A 
ATOM     20  C   UNL d   1      27.973 -11.409   2.346  0.00  0.00     0.050 C 
ENDBRANCH   9  13
ENDBRANCH   1   7
BRANCH   6  21
ATOM     21  N   UNL d   1      25.625 -16.477  -1.501  0.00  0.00    -0.379 N 
ATOM     22  C   UNL d   1      24.404 -17.210  -1.812  0.00  0.00     0.123 C 
ATOM     23  C   UNL d   1      23.859 -17.760  -0.502  0.00  0.00     0.020 C 
ATOM     24  C   UNL d   1      24.936 -18.575   0.229  0.00  0.00     0.003 C 
ATOM     25  C   UNL d   1      26.257 -17.805   0.370  0.00  0.00     0.020 C 
ATOM     26  C   UNL d   1      26.722 -17.265  -0.978  0.00  0.00     0.123 C 
ENDBRANCH   6  21
BRANCH   3  27
ATOM     27  N   UNL d   1      25.531 -11.217  -3.474  0.00  0.00    -0.323 N 
ATOM     28  C   UNL d   1      26.344 -10.139  -3.111  0.00  0.00     0.257 C 
ATOM     29  O   UNL d   1      27.339 -10.168  -2.384  0.00  0.00    -0.267 OA
ATOM     30  H   UNL d   1      24.781 -11.040  -4.132  0.00  0.00     0.169 HD
BRANCH  28  31
ATOM     31  C   UNL d   1      26.030  -8.798  -3.652  0.00  0.00     0.054 A 
ATOM     32  C   UNL d   1      25.997  -7.719  -2.738  0.00  0.00     0.019 A 
ATOM     33  C   UNL d   1      25.517  -6.467  -3.129  0.00  0.00     0.001 A 
ATOM     34  C   UNL d   1      25.125  -6.267  -4.448  0.00  0.00     0.002 A 
ATOM     35  C   UNL d   1      25.161  -7.327  -5.357  0.00  0.00     0.025 A 
ATOM     36  C   UNL d   1      25.601  -8.595  -4.963  0.00  0.00     0.049 A 
ATOM     37 CL   UNL d   1      25.535  -9.849  -6.149  0.00  0.00    -0.083 Cl
ENDBRANCH  28  31
ENDBRANCH   3  27
TORSDOF 5
ENDMDL
MODEL 7
REMARK VINA RESULT:    -8.625      4.128      9.771
REMARK INTER + INTRA:         -11.561
REMARK INTER:                 -10.117
REMARK INTRA:                  -1.445
REMARK CONF_INDEPENDENT:        1.492
REMARK UNBOUND:                -1.445
REMARK  5 active torsions:
REMARK  status: ('A' for Active; 'I' for Inactive)
REMARK    1  A    between atoms: C_5  and  N_6 
REMARK       I    between atoms: N_6  and  C_7 
REMARK       I    between atoms: C_7  and  N_9 
REMARK    2  A    between atoms: N_9  and  C_10 
REMARK    3  A    between atoms: C_12  and  N_13 
REMARK       I    between atoms: N_13  and  C_14 
REMARK    4  A    between atoms: C_14  and  C_16 
REMARK    5  A    between atoms: C_25  and  N_26 
ROOT
ATOM      1  C   UNL d   1      27.399 -13.889  -3.866  0.00  0.00     0.065 A 
ATOM      2  C   UNL d   1      28.051 -14.846  -4.691  0.00  0.00     0.061 A 
ATOM      3  C   UNL d   1      28.514 -14.484  -5.981  0.00  0.00     0.037 A 
ATOM      4  C   UNL d   1      28.189 -13.224  -6.465  0.00  0.00     0.032 A 
ATOM      5  C   UNL d   1      27.566 -12.285  -5.664  0.00  0.00     0.034 A 
ATOM      6  C   UNL d   1      27.181 -12.578  -4.357  0.00  0.00     0.057 A 
ENDROOT
BRANCH   1   7
ATOM      7  N   UNL d   1      26.962 -14.209  -2.533  0.00  0.00    -0.306 N 
ATOM      8  C   UNL d   1      26.184 -15.347  -2.340  0.00  0.00     0.325 C 
ATOM      9  N   UNL d   1      25.486 -15.401  -1.140  0.00  0.00    -0.308 N 
ATOM     10  O   UNL d   1      26.118 -16.227  -3.204  0.00  0.00    -0.247 OA
ATOM     11  H   UNL d   1      25.799 -14.796  -0.399  0.00  0.00     0.170 HD
ATOM     12  H   UNL d   1      27.441 -13.788  -1.754  0.00  0.00     0.170 HD
BRANCH   9  13
ATOM     13  C   UNL d   1      24.469 -16.376  -0.844  0.00  0.00     0.042 A 
ATOM     14  C   UNL d   1      23.116 -16.097  -1.096  0.00  0.00     0.030 A 
ATOM     15  C   UNL d   1      22.084 -17.001  -0.859  0.00  0.00     0.009 A 
ATOM     16  C   UNL d   1      22.363 -18.251  -0.338  0.00  0.00    -0.061 A 
ATOM     17  C   UNL d   1      21.231 -19.208  -0.099  0.00  0.00     0.048 C 
ATOM     18  C   UNL d   1      23.701 -18.563  -0.051  0.00  0.00     0.015 A 
ATOM     19  C   UNL d   1      24.762 -17.636  -0.283  0.00  0.00    -0.035 A 
ATOM     20  C   UNL d   1      26.155 -18.086   0.064  0.00  0.00     0.050 C 
ENDBRANCH   9  13
ENDBRANCH   1   7
BRANCH   6  21
ATOM     21  N   UNL d   1      26.661 -11.528  -3.625  0.00  0.00    -0.379 N 
ATOM     22  C   UNL d   1      25.540 -10.778  -4.177  0.00  0.00     0.123 C 
ATOM     23  C   UNL d   1      25.884  -9.300  -4.069  0.00  0.00     0.020 C 
ATOM     24  C   UNL d   1      26.257  -8.939  -2.624  0.00  0.00     0.003 C 
ATOM     25  C   UNL d   1      27.323  -9.879  -2.042  0.00  0.00     0.020 C 
ATOM     26  C   UNL d   1      26.917 -11.338  -2.213  0.00  0.00     0.123 C 
ENDBRANCH   6  21
BRANCH   3  27
ATOM     27  N   UNL d   1      29.337 -15.348  -6.759  0.00  0.00    -0.323 N 
ATOM     28  C   UNL d   1      30.048 -16.445  -6.264  0.00  0.00     0.257 C 
ATOM     29  O   UNL d   1      30.082 -16.846  -5.099  0.00  0.00    -0.267 OA
ATOM     30  H   UNL d   1      29.363 -15.183  -7.759  0.00  0.00     0.169 HD
BRANCH  28  31
ATOM     31  C   UNL d   1      30.846 -17.259  -7.206  0.00  0.00     0.054 A 
ATOM     32  C   UNL d   1      30.674 -18.662  -7.162  0.00  0.00     0.019 A 
ATOM     33  C   UNL d   1      31.527 -19.508  -7.873  0.00  0.00     0.001 A 
ATOM     34  C   UNL d   1      32.519 -18.960  -8.679  0.00  0.00     0.002 A 
ATOM     35  C   UNL d   1      32.691 -17.575  -8.731  0.00  0.00     0.025 A 
ATOM     36  C   UNL d   1      31.867 -16.721  -7.991  0.00  0.00     0.049 A 
ATOM     37 CL   UNL d   1      32.215 -15.032  -8.073  0.00  0.00    -0.083 Cl
ENDBRANCH  28  31
ENDBRANCH   3  27
TORSDOF 5
ENDMDL
MODEL 8
REMARK VINA RESULT:    -8.429      6.662      9.867
REMARK INTER + INTRA:         -11.532
REMARK INTER:                  -9.921
REMARK INTRA:                  -1.611
REMARK CONF_INDEPENDENT:        1.492
REMARK UNBOUND:                -1.611
REMARK  5 active torsions:
REMARK  status: ('A' for Active; 'I' for Inactive)
REMARK    1  A    between atoms: C_5  and  N_6 
REMARK       I    between atoms: N_6  and  C_7 
REMARK       I    between atoms: C_7  and  N_9 
REMARK    2  A    between atoms: N_9  and  C_10 
REMARK    3  A    between atoms: C_12  and  N_13 
REMARK       I    between atoms: N_13  and  C_14 
REMARK    4  A    between atoms: C_14  and  C_16 
REMARK    5  A    between atoms: C_25  and  N_26 
ROOT
ATOM      1  C   UNL d   1      28.968 -13.914   3.306  0.00  0.00     0.065 A 
ATOM      2  C   UNL d   1      29.131 -14.371   4.642  0.00  0.00     0.061 A 
ATOM      3  C   UNL d   1      29.066 -13.459   5.725  0.00  0.00     0.037 A 
ATOM      4  C   UNL d   1      28.981 -12.103   5.437  0.00  0.00     0.032 A 
ATOM      5  C   UNL d   1      28.809 -11.653   4.141  0.00  0.00     0.034 A 
ATOM      6  C   UNL d   1      28.775 -12.531   3.060  0.00  0.00     0.057 A 
ENDROOT
BRANCH   1   7
ATOM      7  N   UNL d   1      28.977 -14.819   2.187  0.00  0.00    -0.306 N 
ATOM      8  C   UNL d   1      27.779 -15.072   1.524  0.00  0.00     0.325 C 
ATOM      9  N   UNL d   1      27.764 -16.209   0.725  0.00  0.00    -0.308 N 
ATOM     10  O   UNL d   1      26.802 -14.331   1.669  0.00  0.00    -0.247 OA
ATOM     11  H   UNL d   1      28.655 -16.592   0.454  0.00  0.00     0.170 HD
ATOM     12  H   UNL d   1      29.854 -15.025   1.739  0.00  0.00     0.170 HD
BRANCH   9  13
ATOM     13  C   UNL d   1      26.573 -16.761   0.133  0.00  0.00     0.042 A 
ATOM     14  C   UNL d   1      26.002 -17.938   0.643  0.00  0.00     0.030 A 
ATOM     15  C   UNL d   1      24.838 -18.512   0.137  0.00  0.00     0.009 A 
ATOM     16  C   UNL d   1      24.182 -17.927  -0.931  0.00  0.00    -0.061 A 
ATOM     17  C   UNL d   1      22.926 -18.564  -1.450  0.00  0.00     0.048 C 
ATOM     18  C   UNL d   1      24.733 -16.761  -1.484  0.00  0.00     0.015 A 
ATOM     19  C   UNL d   1      25.931 -16.173  -0.976  0.00  0.00    -0.035 A 
ATOM     20  C   UNL d   1      26.422 -14.922  -1.651  0.00  0.00     0.050 C 
ENDBRANCH   9  13
ENDBRANCH   1   7
BRANCH   6  21
ATOM     21  N   UNL d   1      28.496 -11.971   1.829  0.00  0.00    -0.379 N 
ATOM     22  C   UNL d   1      29.507 -12.048   0.780  0.00  0.00     0.123 C 
ATOM     23  C   UNL d   1      29.667 -10.650   0.201  0.00  0.00     0.020 C 
ATOM     24  C   UNL d   1      28.307 -10.095  -0.248  0.00  0.00     0.003 C 
ATOM     25  C   UNL d   1      27.239 -10.204   0.850  0.00  0.00     0.020 C 
ATOM     26  C   UNL d   1      27.159 -11.624   1.396  0.00  0.00     0.123 C 
ENDBRANCH   6  21
BRANCH   3  27
ATOM     27  N   UNL d   1      29.031 -13.896   7.081  0.00  0.00    -0.323 N 
ATOM     28  C   UNL d   1      28.936 -13.057   8.195  0.00  0.00     0.257 C 
ATOM     29  O   UNL d   1      28.863 -11.826   8.197  0.00  0.00    -0.267 OA
ATOM     30  H   UNL d   1      29.021 -14.896   7.243  0.00  0.00     0.169 HD
BRANCH  28  31
ATOM     31  C   UNL d   1      28.891 -13.666   9.542  0.00  0.00     0.054 A 
ATOM     32  C   UNL d   1      27.796 -13.332  10.372  0.00  0.00     0.019 A 
ATOM     33  C   UNL d   1      27.782 -13.703  11.718  0.00  0.00     0.001 A 
ATOM     34  C   UNL d   1      28.830 -14.461  12.229  0.00  0.00     0.002 A 
ATOM     35  C   UNL d   1      29.912 -14.800  11.414  0.00  0.00     0.025 A 
ATOM     36  C   UNL d   1      29.953 -14.397  10.075  0.00  0.00     0.049 A 
ATOM     37 CL   UNL d   1      31.371 -14.808   9.179  0.00  0.00    -0.083 Cl
ENDBRANCH  28  31
ENDBRANCH   3  27
TORSDOF 5
ENDMDL
MODEL 9
REMARK VINA RESULT:    -8.165      3.540      6.504
REMARK INTER + INTRA:         -11.220
REMARK INTER:                  -9.656
REMARK INTRA:                  -1.564
REMARK CONF_INDEPENDENT:        1.492
REMARK UNBOUND:                -1.564
REMARK  5 active torsions:
REMARK  status: ('A' for Active; 'I' for Inactive)
REMARK    1  A    between atoms: C_5  and  N_6 
REMARK       I    between atoms: N_6  and  C_7 
REMARK       I    between atoms: C_7  and  N_9 
REMARK    2  A    between atoms: N_9  and  C_10 
REMARK    3  A    between atoms: C_12  and  N_13 
REMARK       I    between atoms: N_13  and  C_14 
REMARK    4  A    between atoms: C_14  and  C_16 
REMARK    5  A    between atoms: C_25  and  N_26 
ROOT
ATOM      1  C   UNL d   1      27.900 -13.418  -4.845  0.00  0.00     0.065 A 
ATOM      2  C   UNL d   1      27.220 -14.379  -4.047  0.00  0.00     0.061 A 
ATOM      3  C   UNL d   1      25.943 -14.087  -3.506  0.00  0.00     0.037 A 
ATOM      4  C   UNL d   1      25.444 -12.800  -3.657  0.00  0.00     0.032 A 
ATOM      5  C   UNL d   1      26.093 -11.866  -4.443  0.00  0.00     0.034 A 
ATOM      6  C   UNL d   1      27.306 -12.150  -5.067  0.00  0.00     0.057 A 
ENDROOT
BRANCH   1   7
ATOM      7  N   UNL d   1      29.173 -13.700  -5.452  0.00  0.00    -0.306 N 
ATOM      8  C   UNL d   1      29.327 -14.890  -6.159  0.00  0.00     0.325 C 
ATOM      9  N   UNL d   1      30.639 -15.286  -6.389  0.00  0.00    -0.308 N 
ATOM     10  O   UNL d   1      28.346 -15.543  -6.527  0.00  0.00    -0.247 OA
ATOM     11  H   UNL d   1      31.353 -14.583  -6.300  0.00  0.00     0.170 HD
ATOM     12  H   UNL d   1      29.818 -12.941  -5.598  0.00  0.00     0.170 HD
BRANCH   9  13
ATOM     13  C   UNL d   1      31.010 -16.578  -6.904  0.00  0.00     0.042 A 
ATOM     14  C   UNL d   1      30.462 -17.750  -6.358  0.00  0.00     0.030 A 
ATOM     15  C   UNL d   1      30.757 -19.029  -6.823  0.00  0.00     0.009 A 
ATOM     16  C   UNL d   1      31.639 -19.200  -7.875  0.00  0.00    -0.061 A 
ATOM     17  C   UNL d   1      31.931 -20.589  -8.360  0.00  0.00     0.048 C 
ATOM     18  C   UNL d   1      32.225 -18.055  -8.435  0.00  0.00     0.015 A 
ATOM     19  C   UNL d   1      31.935 -16.741  -7.956  0.00  0.00    -0.035 A 
ATOM     20  C   UNL d   1      32.625 -15.593  -8.639  0.00  0.00     0.050 C 
ENDBRANCH   9  13
ENDBRANCH   1   7
BRANCH   6  21
ATOM     21  N   UNL d   1      27.804 -11.172  -5.905  0.00  0.00    -0.379 N 
ATOM     22  C   UNL d   1      26.973 -10.707  -7.009  0.00  0.00     0.123 C 
ATOM     23  C   UNL d   1      27.828 -10.736  -8.266  0.00  0.00     0.020 C 
ATOM     24  C   UNL d   1      29.126  -9.943  -8.053  0.00  0.00     0.003 C 
ATOM     25  C   UNL d   1      29.867 -10.366  -6.776  0.00  0.00     0.020 C 
ATOM     26  C   UNL d   1      28.937 -10.336  -5.569  0.00  0.00     0.123 C 
ENDBRANCH   6  21
BRANCH   3  27
ATOM     27  N   UNL d   1      25.147 -15.081  -2.867  0.00  0.00    -0.323 N 
ATOM     28  C   UNL d   1      25.408 -15.637  -1.611  0.00  0.00     0.257 C 
ATOM     29  O   UNL d   1      26.345 -15.368  -0.857  0.00  0.00    -0.267 OA
ATOM     30  H   UNL d   1      24.297 -15.365  -3.340  0.00  0.00     0.169 HD
BRANCH  28  31
ATOM     31  C   UNL d   1      24.473 -16.650  -1.074  0.00  0.00     0.054 A 
ATOM     32  C   UNL d   1      23.089 -16.374  -1.169  0.00  0.00     0.019 A 
ATOM     33  C   UNL d   1      22.155 -17.177  -0.512  0.00  0.00     0.001 A 
ATOM     34  C   UNL d   1      22.589 -18.295   0.191  0.00  0.00     0.002 A 
ATOM     35  C   UNL d   1      23.953 -18.577   0.285  0.00  0.00     0.025 A 
ATOM     36  C   UNL d   1      24.899 -17.754  -0.335  0.00  0.00     0.049 A 
ATOM     37 CL   UNL d   1      26.562 -18.154  -0.095  0.00  0.00    -0.083 Cl
ENDBRANCH  28  31
ENDBRANCH   3  27
TORSDOF 5
ENDMDL
