MODEL 1
REMARK VINA RESULT:   -31.137      0.000      0.000
REMARK INTER + INTRA:         -36.194
REMARK INTER:                 -33.822
REMARK INTRA:                  -2.372
REMARK CONF_INDEPENDENT:        2.685
REMARK UNBOUND:                -2.372
REMARK  9 active torsions:
REMARK  status: ('A' for Active; 'I' for Inactive)
REMARK    1  A    between atoms: C_2  and  C_3 
REMARK    2  A    between atoms: C_6  and  C_7 
REMARK    3  A    between atoms: C_10  and  S_11 
REMARK    4  A    between atoms: S_11  and  C_12 
REMARK    5  A    between atoms: C_12  and  C_13 
REMARK       I    between atoms: C_13  and  N_15 
REMARK    6  A    between atoms: N_15  and  CA_16 
REMARK    7  A    between atoms: CA_16  and  CB_17 
REMARK    8  A    between atoms: CA_16  and  C_27 
REMARK    9  A    between atoms: CB_17  and  CG_18 
ROOT
ATOM      1  C   UNK d   0      24.771 -14.897  -2.773  0.00  0.00     0.228 C 
ATOM      2  O   UNK d   0      23.588 -14.536  -2.481  0.00  0.00    -0.273 OA
ATOM      3  N   TRP d   1      25.251 -16.028  -2.202  0.00  0.00    -0.346 N 
ATOM      4  H   TRP d   1      26.280 -16.174  -2.116  0.00  0.00     0.163 HD
ENDROOT
BRANCH   1   5
ATOM      5  C   UNK d   0      25.619 -14.095  -3.802  0.00  0.00     0.185 C 
BRANCH   5   6
ATOM      6  S   UNK d   0      26.369 -15.307  -5.006  0.00  0.00    -0.081 SA
BRANCH   6   7
ATOM      7  C   UNK d   0      27.980 -15.561  -4.511  0.00  0.00     0.183 C 
ATOM      8  N   UNK d   0      28.454 -16.087  -3.428  0.00  0.00    -0.152 NA
ATOM      9  N   UNK d   0      29.808 -16.107  -3.632  0.00  0.00    -0.284 N 
ATOM     10  C   UNK d   0      30.240 -15.814  -4.979  0.00  0.00     0.235 C 
ATOM     11  H   UNK d   0      30.462 -16.378  -2.907  0.00  0.00     0.185 HD
ATOM     12  N   UNK d   0      29.002 -15.199  -5.443  0.00  0.00    -0.342 N 
ATOM     13  H   UNK d   0      28.846 -14.673  -6.286  0.00  0.00     0.164 HD
BRANCH  10  14
ATOM     14  C   UNK d   0      30.506 -17.039  -5.839  0.00  0.00    -0.015 A 
ATOM     15  C   UNK d   0      30.168 -18.336  -5.413  0.00  0.00     0.011 A 
ATOM     16  C   UNK d   0      30.536 -19.458  -6.172  0.00  0.00     0.007 A 
ATOM     17  C   UNK d   0      31.159 -19.295  -7.414  0.00  0.00    -0.059 A 
ATOM     18  C   UNK d   0      31.500 -18.013  -7.842  0.00  0.00     0.007 A 
ATOM     19  C   UNK d   0      31.163 -16.907  -7.076  0.00  0.00     0.011 A 
BRANCH  17  20
ATOM     20  C   UNK d   0      31.294 -20.434  -8.391  0.00  0.00     0.034 C 
ATOM     21  C   UNK d   0      30.793 -19.963  -9.755  0.00  0.00     0.010 C 
ENDBRANCH  17  20
ENDBRANCH  10  14
ENDBRANCH   6   7
ENDBRANCH   5   6
ENDBRANCH   1   5
BRANCH   3  22
ATOM     22  CA  TRP d   1      24.495 -16.822  -1.114  0.00  0.00     0.186 C 
BRANCH  22  23
ATOM     23  CB  TRP d   1      23.049 -17.772  -1.528  0.00  0.00     0.053 C 
BRANCH  23  24
ATOM     24  CG  TRP d   1      21.606 -18.199  -0.537  0.00  0.00     0.022 C 
ATOM     25  CD1 TRP d   1      21.226 -19.329  -1.235  0.00  0.00     0.093 C 
ATOM     26  NE1 TRP d   1      19.905 -18.968  -1.270  0.00  0.00    -0.285 NA
ATOM     27  CE2 TRP d   1      19.511 -19.371  -0.028  0.00  0.00     0.015 A 
ATOM     28  HE1 TRP d   1      19.598 -18.051  -1.566  0.00  0.00     0.128 HD
ATOM     29  CZ2 TRP d   1      18.403 -20.202   0.220  0.00  0.00     0.024 A 
ATOM     30  CD2 TRP d   1      20.624 -18.950   0.746  0.00  0.00    -0.025 A 
ATOM     31  CH2 TRP d   1      18.227 -20.834   1.420  0.00  0.00     0.002 A 
ATOM     32  CZ3 TRP d   1      19.226 -20.604   2.351  0.00  0.00     0.001 A 
ATOM     33  CE3 TRP d   1      20.418 -19.674   2.077  0.00  0.00     0.010 A 
ENDBRANCH  23  24
ENDBRANCH  22  23
BRANCH  22  34
ATOM     34  C   TRP d   1      25.678 -17.718  -0.362  0.00  0.00     0.196 C 
ATOM     35  O   TRP d   1      26.827 -17.635  -0.920  0.00  0.00    -0.646 OA
ATOM     36  OXT TRP d   1      25.347 -18.312   0.699  0.00  0.00    -0.646 OA
ENDBRANCH  22  34
ENDBRANCH   3  22
TORSDOF 9
ENDMDL
MODEL 2
REMARK VINA RESULT:   -30.843      3.728      6.710
REMARK INTER + INTRA:         -36.333
REMARK INTER:                 -33.528
REMARK INTRA:                  -2.806
REMARK CONF_INDEPENDENT:        2.685
REMARK UNBOUND:                -2.806
REMARK  9 active torsions:
REMARK  status: ('A' for Active; 'I' for Inactive)
REMARK    1  A    between atoms: C_2  and  C_3 
REMARK    2  A    between atoms: C_6  and  C_7 
REMARK    3  A    between atoms: C_10  and  S_11 
REMARK    4  A    between atoms: S_11  and  C_12 
REMARK    5  A    between atoms: C_12  and  C_13 
REMARK       I    between atoms: C_13  and  N_15 
REMARK    6  A    between atoms: N_15  and  CA_16 
REMARK    7  A    between atoms: CA_16  and  CB_17 
REMARK    8  A    between atoms: CA_16  and  C_27 
REMARK    9  A    between atoms: CB_17  and  CG_18 
ROOT
ATOM      1  C   UNK d   0      25.321 -15.579  -2.835  0.00  0.00     0.228 C 
ATOM      2  O   UNK d   0      24.376 -14.776  -2.560  0.00  0.00    -0.273 OA
ATOM      3  N   TRP d   1      25.321 -16.793  -2.234  0.00  0.00    -0.346 N 
ATOM      4  H   TRP d   1      26.209 -17.329  -2.137  0.00  0.00     0.163 HD
ENDROOT
BRANCH   1   5
ATOM      5  C   UNK d   0      26.413 -15.201  -3.877  0.00  0.00     0.185 C 
BRANCH   5   6
ATOM      6  S   UNK d   0      27.735 -14.217  -3.002  0.00  0.00    -0.081 SA
BRANCH   6   7
ATOM      7  C   UNK d   0      27.956 -14.937  -1.474  0.00  0.00     0.183 C 
ATOM      8  N   UNK d   0      29.007 -15.472  -0.940  0.00  0.00    -0.152 NA
ATOM      9  N   UNK d   0      28.609 -15.795   0.329  0.00  0.00    -0.284 N 
ATOM     10  C   UNK d   0      27.339 -15.245   0.743  0.00  0.00     0.235 C 
ATOM     11  H   UNK d   0      29.197 -16.323   0.964  0.00  0.00     0.185 HD
ATOM     12  N   UNK d   0      26.837 -14.914  -0.585  0.00  0.00    -0.342 N 
ATOM     13  H   UNK d   0      25.904 -14.649  -0.849  0.00  0.00     0.164 HD
BRANCH  10  14
ATOM     14  C   UNK d   0      27.438 -13.956   1.542  0.00  0.00    -0.015 A 
ATOM     15  C   UNK d   0      27.684 -13.953   2.927  0.00  0.00     0.011 A 
ATOM     16  C   UNK d   0      27.649 -12.757   3.659  0.00  0.00     0.007 A 
ATOM     17  C   UNK d   0      27.464 -11.534   3.003  0.00  0.00    -0.059 A 
ATOM     18  C   UNK d   0      27.217 -11.528   1.631  0.00  0.00     0.007 A 
ATOM     19  C   UNK d   0      27.222 -12.715   0.915  0.00  0.00     0.011 A 
BRANCH  17  20
ATOM     20  C   UNK d   0      27.721 -10.218   3.689  0.00  0.00     0.034 C 
ATOM     21  C   UNK d   0      26.635  -9.231   3.265  0.00  0.00     0.010 C 
ENDBRANCH  17  20
ENDBRANCH  10  14
ENDBRANCH   6   7
ENDBRANCH   5   6
ENDBRANCH   1   5
BRANCH   3  22
ATOM     22  CA  TRP d   1      24.316 -17.199  -1.133  0.00  0.00     0.186 C 
BRANCH  22  23
ATOM     23  CB  TRP d   1      22.856 -18.131  -1.539  0.00  0.00     0.053 C 
BRANCH  23  24
ATOM     24  CG  TRP d   1      21.403 -18.521  -0.548  0.00  0.00     0.022 C 
ATOM     25  CD1 TRP d   1      21.028 -19.675  -1.209  0.00  0.00     0.093 C 
ATOM     26  NE1 TRP d   1      19.708 -19.314  -1.269  0.00  0.00    -0.285 NA
ATOM     27  CE2 TRP d   1      19.301 -19.672  -0.017  0.00  0.00     0.015 A 
ATOM     28  HE1 TRP d   1      19.406 -18.407  -1.601  0.00  0.00     0.128 HD
ATOM     29  CZ2 TRP d   1      18.189 -20.492   0.249  0.00  0.00     0.024 A 
ATOM     30  CD2 TRP d   1      20.407 -19.225   0.752  0.00  0.00    -0.025 A 
ATOM     31  CH2 TRP d   1      18.001 -21.081   1.469  0.00  0.00     0.002 A 
ATOM     32  CZ3 TRP d   1      18.991 -20.819   2.401  0.00  0.00     0.001 A 
ATOM     33  CE3 TRP d   1      20.187 -19.901   2.105  0.00  0.00     0.010 A 
ENDBRANCH  23  24
ENDBRANCH  22  23
BRANCH  22  34
ATOM     34  C   TRP d   1      25.255 -17.922   0.034  0.00  0.00     0.196 C 
ATOM     35  O   TRP d   1      24.583 -18.488   0.966  0.00  0.00    -0.646 OA
ATOM     36  OXT TRP d   1      26.501 -17.906  -0.154  0.00  0.00    -0.646 OA
ENDBRANCH  22  34
ENDBRANCH   3  22
TORSDOF 9
ENDMDL
MODEL 3
REMARK VINA RESULT:   -30.473      3.797      6.961
REMARK INTER + INTRA:         -35.209
REMARK INTER:                 -33.157
REMARK INTRA:                  -2.051
REMARK CONF_INDEPENDENT:        2.685
REMARK UNBOUND:                -2.051
REMARK  9 active torsions:
REMARK  status: ('A' for Active; 'I' for Inactive)
REMARK    1  A    between atoms: C_2  and  C_3 
REMARK    2  A    between atoms: C_6  and  C_7 
REMARK    3  A    between atoms: C_10  and  S_11 
REMARK    4  A    between atoms: S_11  and  C_12 
REMARK    5  A    between atoms: C_12  and  C_13 
REMARK       I    between atoms: C_13  and  N_15 
REMARK    6  A    between atoms: N_15  and  CA_16 
REMARK    7  A    between atoms: CA_16  and  CB_17 
REMARK    8  A    between atoms: CA_16  and  C_27 
REMARK    9  A    between atoms: CB_17  and  CG_18 
ROOT
ATOM      1  C   UNK d   0      25.476 -15.524  -2.673  0.00  0.00     0.228 C 
ATOM      2  O   UNK d   0      24.486 -14.751  -2.479  0.00  0.00    -0.273 OA
ATOM      3  N   TRP d   1      25.486 -16.718  -2.033  0.00  0.00    -0.346 N 
ATOM      4  H   TRP d   1      26.387 -17.215  -1.867  0.00  0.00     0.163 HD
ENDROOT
BRANCH   1   5
ATOM      5  C   UNK d   0      26.611 -15.136  -3.664  0.00  0.00     0.185 C 
BRANCH   5   6
ATOM      6  S   UNK d   0      25.987 -13.751  -4.747  0.00  0.00    -0.081 SA
BRANCH   6   7
ATOM      7  C   UNK d   0      26.647 -12.306  -4.131  0.00  0.00     0.183 C 
ATOM      8  N   UNK d   0      27.784 -11.734  -4.364  0.00  0.00    -0.152 NA
ATOM      9  N   UNK d   0      27.718 -10.562  -3.661  0.00  0.00    -0.284 N 
ATOM     10  C   UNK d   0      26.415 -10.220  -3.139  0.00  0.00     0.235 C 
ATOM     11  H   UNK d   0      28.511  -9.937  -3.571  0.00  0.00     0.185 HD
ATOM     12  N   UNK d   0      25.815 -11.544  -3.254  0.00  0.00    -0.342 N 
ATOM     13  H   UNK d   0      24.949 -11.870  -2.861  0.00  0.00     0.164 HD
BRANCH  10  14
ATOM     14  C   UNK d   0      25.615  -9.265  -4.011  0.00  0.00    -0.015 A 
ATOM     15  C   UNK d   0      25.225  -9.600  -5.320  0.00  0.00     0.011 A 
ATOM     16  C   UNK d   0      24.595  -8.654  -6.144  0.00  0.00     0.007 A 
ATOM     17  C   UNK d   0      24.258  -7.393  -5.639  0.00  0.00    -0.059 A 
ATOM     18  C   UNK d   0      24.643  -7.052  -4.343  0.00  0.00     0.007 A 
ATOM     19  C   UNK d   0      25.293  -7.978  -3.541  0.00  0.00     0.011 A 
BRANCH  17  20
ATOM     20  C   UNK d   0      23.321  -6.468  -6.372  0.00  0.00     0.034 C 
ATOM     21  C   UNK d   0      22.112  -6.197  -5.480  0.00  0.00     0.010 C 
ENDBRANCH  17  20
ENDBRANCH  10  14
ENDBRANCH   6   7
ENDBRANCH   5   6
ENDBRANCH   1   5
BRANCH   3  22
ATOM     22  CA  TRP d   1      24.435 -17.129  -0.977  0.00  0.00     0.186 C 
BRANCH  22  23
ATOM     23  CB  TRP d   1      22.936 -17.951  -1.466  0.00  0.00     0.053 C 
BRANCH  23  24
ATOM     24  CG  TRP d   1      21.479 -18.397  -0.504  0.00  0.00     0.022 C 
ATOM     25  CD1 TRP d   1      21.134 -19.538  -1.203  0.00  0.00     0.093 C 
ATOM     26  NE1 TRP d   1      19.808 -19.200  -1.269  0.00  0.00    -0.285 NA
ATOM     27  CE2 TRP d   1      19.393 -19.602  -0.034  0.00  0.00     0.015 A 
ATOM     28  HE1 TRP d   1      19.492 -18.290  -1.578  0.00  0.00     0.128 HD
ATOM     29  CZ2 TRP d   1      18.294 -20.450   0.195  0.00  0.00     0.024 A 
ATOM     30  CD2 TRP d   1      20.481 -19.158   0.762  0.00  0.00    -0.025 A 
ATOM     31  CH2 TRP d   1      18.103 -21.078   1.395  0.00  0.00     0.002 A 
ATOM     32  CZ3 TRP d   1      19.077 -20.825   2.346  0.00  0.00     0.001 A 
ATOM     33  CE3 TRP d   1      20.258 -19.877   2.092  0.00  0.00     0.010 A 
ENDBRANCH  23  24
ENDBRANCH  22  23
BRANCH  22  34
ATOM     34  C   TRP d   1      25.306 -17.970   0.164  0.00  0.00     0.196 C 
ATOM     35  O   TRP d   1      24.596 -18.436   1.122  0.00  0.00    -0.646 OA
ATOM     36  OXT TRP d   1      26.535 -18.126  -0.067  0.00  0.00    -0.646 OA
ENDBRANCH  22  34
ENDBRANCH   3  22
TORSDOF 9
ENDMDL
MODEL 4
REMARK VINA RESULT:   -30.310      1.385      1.943
REMARK INTER + INTRA:         -35.919
REMARK INTER:                 -32.994
REMARK INTRA:                  -2.925
REMARK CONF_INDEPENDENT:        2.685
REMARK UNBOUND:                -2.925
REMARK  9 active torsions:
REMARK  status: ('A' for Active; 'I' for Inactive)
REMARK    1  A    between atoms: C_2  and  C_3 
REMARK    2  A    between atoms: C_6  and  C_7 
REMARK    3  A    between atoms: C_10  and  S_11 
REMARK    4  A    between atoms: S_11  and  C_12 
REMARK    5  A    between atoms: C_12  and  C_13 
REMARK       I    between atoms: C_13  and  N_15 
REMARK    6  A    between atoms: N_15  and  CA_16 
REMARK    7  A    between atoms: CA_16  and  CB_17 
REMARK    8  A    between atoms: CA_16  and  C_27 
REMARK    9  A    between atoms: CB_17  and  CG_18 
ROOT
ATOM      1  C   UNK d   0      25.061 -15.185  -2.570  0.00  0.00     0.228 C 
ATOM      2  O   UNK d   0      23.856 -14.787  -2.497  0.00  0.00    -0.273 OA
ATOM      3  N   TRP d   1      25.417 -16.273  -1.845  0.00  0.00    -0.346 N 
ATOM      4  H   TRP d   1      26.415 -16.425  -1.586  0.00  0.00     0.163 HD
ENDROOT
BRANCH   1   5
ATOM      5  C   UNK d   0      26.080 -14.480  -3.511  0.00  0.00     0.185 C 
BRANCH   5   6
ATOM      6  S   UNK d   0      27.392 -13.682  -2.452  0.00  0.00    -0.081 SA
BRANCH   6   7
ATOM      7  C   UNK d   0      28.371 -14.939  -1.848  0.00  0.00     0.183 C 
ATOM      8  N   UNK d   0      28.055 -16.011  -1.195  0.00  0.00    -0.152 NA
ATOM      9  N   UNK d   0      29.241 -16.681  -1.061  0.00  0.00    -0.284 N 
ATOM     10  C   UNK d   0      30.339 -16.172  -1.851  0.00  0.00     0.235 C 
ATOM     11  H   UNK d   0      29.329 -17.522  -0.501  0.00  0.00     0.185 HD
ATOM     12  N   UNK d   0      29.768 -14.861  -2.138  0.00  0.00    -0.342 N 
ATOM     13  H   UNK d   0      30.226 -14.056  -2.531  0.00  0.00     0.164 HD
BRANCH  10  14
ATOM     14  C   UNK d   0      30.553 -16.891  -3.173  0.00  0.00    -0.015 A 
ATOM     15  C   UNK d   0      30.250 -16.289  -4.407  0.00  0.00     0.011 A 
ATOM     16  C   UNK d   0      30.343 -17.018  -5.602  0.00  0.00     0.007 A 
ATOM     17  C   UNK d   0      30.833 -18.329  -5.592  0.00  0.00    -0.059 A 
ATOM     18  C   UNK d   0      31.134 -18.934  -4.373  0.00  0.00     0.007 A 
ATOM     19  C   UNK d   0      31.013 -18.221  -3.189  0.00  0.00     0.011 A 
BRANCH  17  20
ATOM     20  C   UNK d   0      31.237 -19.037  -6.859  0.00  0.00     0.034 C 
ATOM     21  C   UNK d   0      30.800 -20.496  -6.758  0.00  0.00     0.010 C 
ENDBRANCH  17  20
ENDBRANCH  10  14
ENDBRANCH   6   7
ENDBRANCH   5   6
ENDBRANCH   1   5
BRANCH   3  22
ATOM     22  CA  TRP d   1      24.479 -16.967  -0.832  0.00  0.00     0.186 C 
BRANCH  22  23
ATOM     23  CB  TRP d   1      22.987 -17.764  -1.380  0.00  0.00     0.053 C 
BRANCH  23  24
ATOM     24  CG  TRP d   1      21.521 -18.264  -0.460  0.00  0.00     0.022 C 
ATOM     25  CD1 TRP d   1      21.240 -19.419  -1.165  0.00  0.00     0.093 C 
ATOM     26  NE1 TRP d   1      19.905 -19.132  -1.270  0.00  0.00    -0.285 NA
ATOM     27  CE2 TRP d   1      19.470 -19.547  -0.046  0.00  0.00     0.015 A 
ATOM     28  HE1 TRP d   1      19.563 -18.236  -1.591  0.00  0.00     0.128 HD
ATOM     29  CZ2 TRP d   1      18.399 -20.437   0.154  0.00  0.00     0.024 A 
ATOM     30  CD2 TRP d   1      20.517 -19.060   0.779  0.00  0.00    -0.025 A 
ATOM     31  CH2 TRP d   1      18.197 -21.069   1.350  0.00  0.00     0.002 A 
ATOM     32  CZ3 TRP d   1      19.133 -20.777   2.328  0.00  0.00     0.001 A 
ATOM     33  CE3 TRP d   1      20.283 -19.784   2.105  0.00  0.00     0.010 A 
ENDBRANCH  23  24
ENDBRANCH  22  23
BRANCH  22  34
ATOM     34  C   TRP d   1      25.482 -17.972   0.035  0.00  0.00     0.196 C 
ATOM     35  O   TRP d   1      26.583 -18.247  -0.559  0.00  0.00    -0.646 OA
ATOM     36  OXT TRP d   1      25.099 -18.290   1.192  0.00  0.00    -0.646 OA
ENDBRANCH  22  34
ENDBRANCH   3  22
TORSDOF 9
ENDMDL
MODEL 5
REMARK VINA RESULT:   -30.166      3.089      5.387
REMARK INTER + INTRA:         -36.395
REMARK INTER:                 -32.850
REMARK INTRA:                  -3.545
REMARK CONF_INDEPENDENT:        2.685
REMARK UNBOUND:                -3.545
REMARK  9 active torsions:
REMARK  status: ('A' for Active; 'I' for Inactive)
REMARK    1  A    between atoms: C_2  and  C_3 
REMARK    2  A    between atoms: C_6  and  C_7 
REMARK    3  A    between atoms: C_10  and  S_11 
REMARK    4  A    between atoms: S_11  and  C_12 
REMARK    5  A    between atoms: C_12  and  C_13 
REMARK       I    between atoms: C_13  and  N_15 
REMARK    6  A    between atoms: N_15  and  CA_16 
REMARK    7  A    between atoms: CA_16  and  CB_17 
REMARK    8  A    between atoms: CA_16  and  C_27 
REMARK    9  A    between atoms: CB_17  and  CG_18 
ROOT
ATOM      1  C   UNK d   0      24.566 -14.934  -2.558  0.00  0.00     0.228 C 
ATOM      2  O   UNK d   0      23.304 -14.809  -2.467  0.00  0.00    -0.273 OA
ATOM      3  N   TRP d   1      25.161 -15.922  -1.847  0.00  0.00    -0.346 N 
ATOM      4  H   TRP d   1      26.171 -15.853  -1.602  0.00  0.00     0.163 HD
ENDROOT
BRANCH   1   5
ATOM      5  C   UNK d   0      25.392 -14.017  -3.505  0.00  0.00     0.185 C 
BRANCH   5   6
ATOM      6  S   UNK d   0      26.502 -15.101  -4.540  0.00  0.00    -0.081 SA
BRANCH   6   7
ATOM      7  C   UNK d   0      27.984 -15.228  -3.709  0.00  0.00     0.183 C 
ATOM      8  N   UNK d   0      29.090 -14.572  -3.857  0.00  0.00    -0.152 NA
ATOM      9  N   UNK d   0      29.893 -15.042  -2.853  0.00  0.00    -0.284 N 
ATOM     10  C   UNK d   0      29.235 -15.854  -1.855  0.00  0.00     0.235 C 
ATOM     11  H   UNK d   0      30.869 -14.782  -2.772  0.00  0.00     0.185 HD
ATOM     12  N   UNK d   0      28.035 -16.159  -2.626  0.00  0.00    -0.342 N 
ATOM     13  H   UNK d   0      27.324 -16.841  -2.425  0.00  0.00     0.164 HD
BRANCH  10  14
ATOM     14  C   UNK d   0      28.810 -15.099  -0.606  0.00  0.00    -0.015 A 
ATOM     15  C   UNK d   0      29.336 -15.402   0.663  0.00  0.00     0.011 A 
ATOM     16  C   UNK d   0      28.837 -14.774   1.814  0.00  0.00     0.007 A 
ATOM     17  C   UNK d   0      27.875 -13.764   1.704  0.00  0.00    -0.059 A 
ATOM     18  C   UNK d   0      27.346 -13.459   0.451  0.00  0.00     0.007 A 
ATOM     19  C   UNK d   0      27.820 -14.103  -0.682  0.00  0.00     0.011 A 
BRANCH  17  20
ATOM     20  C   UNK d   0      27.537 -12.858   2.861  0.00  0.00     0.034 C 
ATOM     21  C   UNK d   0      27.192 -13.726   4.069  0.00  0.00     0.010 C 
ENDBRANCH  17  20
ENDBRANCH  10  14
ENDBRANCH   6   7
ENDBRANCH   5   6
ENDBRANCH   1   5
BRANCH   3  22
ATOM     22  CA  TRP d   1      24.411 -16.811  -0.830  0.00  0.00     0.186 C 
BRANCH  22  23
ATOM     23  CB  TRP d   1      23.014 -17.786  -1.337  0.00  0.00     0.053 C 
BRANCH  23  24
ATOM     24  CG  TRP d   1      21.540 -18.282  -0.428  0.00  0.00     0.022 C 
ATOM     25  CD1 TRP d   1      21.235 -19.411  -1.164  0.00  0.00     0.093 C 
ATOM     26  NE1 TRP d   1      19.905 -19.095  -1.257  0.00  0.00    -0.285 NA
ATOM     27  CE2 TRP d   1      19.465 -19.535  -0.044  0.00  0.00     0.015 A 
ATOM     28  HE1 TRP d   1      19.581 -18.183  -1.552  0.00  0.00     0.128 HD
ATOM     29  CZ2 TRP d   1      18.376 -20.408   0.134  0.00  0.00     0.024 A 
ATOM     30  CD2 TRP d   1      20.523 -19.092   0.792  0.00  0.00    -0.025 A 
ATOM     31  CH2 TRP d   1      18.164 -21.069   1.312  0.00  0.00     0.002 A 
ATOM     32  CZ3 TRP d   1      19.108 -20.823   2.296  0.00  0.00     0.001 A 
ATOM     33  CE3 TRP d   1      20.278 -19.848   2.097  0.00  0.00     0.010 A 
ENDBRANCH  23  24
ENDBRANCH  22  23
BRANCH  22  34
ATOM     34  C   TRP d   1      25.612 -17.707  -0.106  0.00  0.00     0.196 C 
ATOM     35  O   TRP d   1      26.750 -17.615  -0.684  0.00  0.00    -0.646 OA
ATOM     36  OXT TRP d   1      25.302 -18.310   0.957  0.00  0.00    -0.646 OA
ENDBRANCH  22  34
ENDBRANCH   3  22
TORSDOF 9
ENDMDL
MODEL 6
REMARK VINA RESULT:   -29.060      3.620      5.706
REMARK INTER + INTRA:         -34.428
REMARK INTER:                 -31.745
REMARK INTRA:                  -2.683
REMARK CONF_INDEPENDENT:        2.685
REMARK UNBOUND:                -2.683
REMARK  9 active torsions:
REMARK  status: ('A' for Active; 'I' for Inactive)
REMARK    1  A    between atoms: C_2  and  C_3 
REMARK    2  A    between atoms: C_6  and  C_7 
REMARK    3  A    between atoms: C_10  and  S_11 
REMARK    4  A    between atoms: S_11  and  C_12 
REMARK    5  A    between atoms: C_12  and  C_13 
REMARK       I    between atoms: C_13  and  N_15 
REMARK    6  A    between atoms: N_15  and  CA_16 
REMARK    7  A    between atoms: CA_16  and  CB_17 
REMARK    8  A    between atoms: CA_16  and  C_27 
REMARK    9  A    between atoms: CB_17  and  CG_18 
ROOT
ATOM      1  C   UNK d   0      26.108 -17.811  -0.135  0.00  0.00     0.228 C 
ATOM      2  O   UNK d   0      25.726 -18.855   0.482  0.00  0.00    -0.273 OA
ATOM      3  N   TRP d   1      25.169 -17.061  -0.759  0.00  0.00    -0.346 N 
ATOM      4  H   TRP d   1      25.439 -16.432  -1.545  0.00  0.00     0.163 HD
ENDROOT
BRANCH   1   5
ATOM      5  C   UNK d   0      27.602 -17.377  -0.120  0.00  0.00     0.185 C 
BRANCH   5   6
ATOM      6  S   UNK d   0      27.684 -15.565  -0.555  0.00  0.00    -0.081 SA
BRANCH   6   7
ATOM      7  C   UNK d   0      27.260 -15.433  -2.201  0.00  0.00     0.183 C 
ATOM      8  N   UNK d   0      26.236 -15.892  -2.845  0.00  0.00    -0.152 NA
ATOM      9  N   UNK d   0      26.387 -15.394  -4.111  0.00  0.00    -0.284 N 
ATOM     10  C   UNK d   0      27.403 -14.377  -4.264  0.00  0.00     0.235 C 
ATOM     11  H   UNK d   0      25.782 -15.666  -4.877  0.00  0.00     0.185 HD
ATOM     12  N   UNK d   0      28.123 -14.645  -3.024  0.00  0.00    -0.342 N 
ATOM     13  H   UNK d   0      29.024 -14.300  -2.742  0.00  0.00     0.164 HD
BRANCH  10  14
ATOM     14  C   UNK d   0      26.882 -12.950  -4.206  0.00  0.00    -0.015 A 
ATOM     15  C   UNK d   0      26.694 -12.273  -2.988  0.00  0.00     0.011 A 
ATOM     16  C   UNK d   0      26.098 -11.004  -2.958  0.00  0.00     0.007 A 
ATOM     17  C   UNK d   0      25.771 -10.351  -4.152  0.00  0.00    -0.059 A 
ATOM     18  C   UNK d   0      25.952 -11.015  -5.364  0.00  0.00     0.007 A 
ATOM     19  C   UNK d   0      26.513 -12.283  -5.389  0.00  0.00     0.011 A 
BRANCH  17  20
ATOM     20  C   UNK d   0      25.421  -8.885  -4.186  0.00  0.00     0.034 C 
ATOM     21  C   UNK d   0      26.383  -8.136  -3.266  0.00  0.00     0.010 C 
ENDBRANCH  17  20
ENDBRANCH  10  14
ENDBRANCH   6   7
ENDBRANCH   5   6
ENDBRANCH   1   5
BRANCH   3  22
ATOM     22  CA  TRP d   1      23.686 -17.478  -0.880  0.00  0.00     0.186 C 
BRANCH  22  23
ATOM     23  CB  TRP d   1      22.901 -18.414   0.412  0.00  0.00     0.053 C 
BRANCH  23  24
ATOM     24  CG  TRP d   1      21.184 -18.919   0.614  0.00  0.00     0.022 C 
ATOM     25  CD1 TRP d   1      21.105 -19.761  -0.478  0.00  0.00     0.093 C 
ATOM     26  NE1 TRP d   1      19.905 -19.248  -0.895  0.00  0.00    -0.285 NA
ATOM     27  CE2 TRP d   1      19.053 -19.925  -0.073  0.00  0.00     0.015 A 
ATOM     28  HE1 TRP d   1      19.742 -18.255  -0.997  0.00  0.00     0.128 HD
ATOM     29  CZ2 TRP d   1      17.934 -20.652  -0.518  0.00  0.00     0.024 A 
ATOM     30  CD2 TRP d   1      19.773 -19.868   1.149  0.00  0.00    -0.025 A 
ATOM     31  CH2 TRP d   1      17.298 -21.562   0.281  0.00  0.00     0.002 A 
ATOM     32  CZ3 TRP d   1      17.852 -21.717   1.541  0.00  0.00     0.001 A 
ATOM     33  CE3 TRP d   1      19.058 -20.898   2.024  0.00  0.00     0.010 A 
ENDBRANCH  23  24
ENDBRANCH  22  23
BRANCH  22  34
ATOM     34  C   TRP d   1      22.890 -16.064  -1.246  0.00  0.00     0.196 C 
ATOM     35  O   TRP d   1      23.623 -15.189  -1.825  0.00  0.00    -0.646 OA
ATOM     36  OXT TRP d   1      21.656 -16.029  -0.991  0.00  0.00    -0.646 OA
ENDBRANCH  22  34
ENDBRANCH   3  22
TORSDOF 9
ENDMDL
MODEL 7
REMARK VINA RESULT:   -28.795      3.247      4.511
REMARK INTER + INTRA:         -34.696
REMARK INTER:                 -31.480
REMARK INTRA:                  -3.216
REMARK CONF_INDEPENDENT:        2.685
REMARK UNBOUND:                -3.216
REMARK  9 active torsions:
REMARK  status: ('A' for Active; 'I' for Inactive)
REMARK    1  A    between atoms: C_2  and  C_3 
REMARK    2  A    between atoms: C_6  and  C_7 
REMARK    3  A    between atoms: C_10  and  S_11 
REMARK    4  A    between atoms: S_11  and  C_12 
REMARK    5  A    between atoms: C_12  and  C_13 
REMARK       I    between atoms: C_13  and  N_15 
REMARK    6  A    between atoms: N_15  and  CA_16 
REMARK    7  A    between atoms: CA_16  and  CB_17 
REMARK    8  A    between atoms: CA_16  and  C_27 
REMARK    9  A    between atoms: CB_17  and  CG_18 
ROOT
ATOM      1  C   UNK d   0      25.999 -17.115   0.268  0.00  0.00     0.228 C 
ATOM      2  O   UNK d   0      25.885 -18.318   0.660  0.00  0.00    -0.273 OA
ATOM      3  N   TRP d   1      24.939 -16.544  -0.352  0.00  0.00    -0.346 N 
ATOM      4  H   TRP d   1      25.081 -15.731  -0.989  0.00  0.00     0.163 HD
ENDROOT
BRANCH   1   5
ATOM      5  C   UNK d   0      27.297 -16.303   0.548  0.00  0.00     0.185 C 
BRANCH   5   6
ATOM      6  S   UNK d   0      28.033 -15.801  -1.091  0.00  0.00    -0.081 SA
BRANCH   6   7
ATOM      7  C   UNK d   0      26.789 -15.049  -1.981  0.00  0.00     0.183 C 
ATOM      8  N   UNK d   0      26.050 -14.025  -1.694  0.00  0.00    -0.152 NA
ATOM      9  N   UNK d   0      25.297 -13.831  -2.820  0.00  0.00    -0.284 N 
ATOM     10  C   UNK d   0      25.707 -14.585  -3.982  0.00  0.00     0.235 C 
ATOM     11  H   UNK d   0      24.547 -13.151  -2.860  0.00  0.00     0.185 HD
ATOM     12  N   UNK d   0      26.528 -15.569  -3.286  0.00  0.00    -0.342 N 
ATOM     13  H   UNK d   0      26.911 -16.426  -3.646  0.00  0.00     0.164 HD
BRANCH  10  14
ATOM     14  C   UNK d   0      26.603 -13.825  -4.946  0.00  0.00    -0.015 A 
ATOM     15  C   UNK d   0      26.357 -12.484  -5.294  0.00  0.00     0.011 A 
ATOM     16  C   UNK d   0      27.127 -11.847  -6.278  0.00  0.00     0.007 A 
ATOM     17  C   UNK d   0      28.217 -12.506  -6.858  0.00  0.00    -0.059 A 
ATOM     18  C   UNK d   0      28.467 -13.836  -6.521  0.00  0.00     0.007 A 
ATOM     19  C   UNK d   0      27.685 -14.474  -5.570  0.00  0.00     0.011 A 
BRANCH  17  20
ATOM     20  C   UNK d   0      29.245 -11.772  -7.679  0.00  0.00     0.034 C 
ATOM     21  C   UNK d   0      30.622 -12.029  -7.071  0.00  0.00     0.010 C 
ENDBRANCH  17  20
ENDBRANCH  10  14
ENDBRANCH   6   7
ENDBRANCH   5   6
ENDBRANCH   1   5
BRANCH   3  22
ATOM     22  CA  TRP d   1      23.656 -17.316  -0.732  0.00  0.00     0.186 C 
BRANCH  22  23
ATOM     23  CB  TRP d   1      22.908 -18.449   0.417  0.00  0.00     0.053 C 
BRANCH  23  24
ATOM     24  CG  TRP d   1      21.190 -18.951   0.616  0.00  0.00     0.022 C 
ATOM     25  CD1 TRP d   1      21.104 -19.774  -0.491  0.00  0.00     0.093 C 
ATOM     26  NE1 TRP d   1      19.905 -19.249  -0.895  0.00  0.00    -0.285 NA
ATOM     27  CE2 TRP d   1      19.053 -19.936  -0.081  0.00  0.00     0.015 A 
ATOM     28  HE1 TRP d   1      19.746 -18.254  -0.979  0.00  0.00     0.128 HD
ATOM     29  CZ2 TRP d   1      17.929 -20.652  -0.535  0.00  0.00     0.024 A 
ATOM     30  CD2 TRP d   1      19.777 -19.904   1.138  0.00  0.00    -0.025 A 
ATOM     31  CH2 TRP d   1      17.293 -21.573   0.250  0.00  0.00     0.002 A 
ATOM     32  CZ3 TRP d   1      17.850 -21.751   1.505  0.00  0.00     0.001 A 
ATOM     33  CE3 TRP d   1      19.061 -20.946   1.998  0.00  0.00     0.010 A 
ENDBRANCH  23  24
ENDBRANCH  22  23
BRANCH  22  34
ATOM     34  C   TRP d   1      22.611 -16.138  -1.269  0.00  0.00     0.196 C 
ATOM     35  O   TRP d   1      23.182 -15.190  -1.914  0.00  0.00    -0.646 OA
ATOM     36  OXT TRP d   1      21.384 -16.333  -1.057  0.00  0.00    -0.646 OA
ENDBRANCH  22  34
ENDBRANCH   3  22
TORSDOF 9
ENDMDL
