MODEL 1
REMARK VINA RESULT:   -32.625      0.000      0.000
REMARK INTER + INTRA:         -35.763
REMARK INTER:                 -34.713
REMARK INTRA:                  -1.050
REMARK CONF_INDEPENDENT:        2.088
REMARK UNBOUND:                -1.050
REMARK  7 active torsions:
REMARK  status: ('A' for Active; 'I' for Inactive)
REMARK    1  A    between atoms: C_8  and  C_9 
REMARK    2  A    between atoms: C_9  and  C_10 
REMARK    3  A    between atoms: C_10  and  N_11 
REMARK       I    between atoms: N_11  and  C_12 
REMARK    4  A    between atoms: C_12  and  C_14 
REMARK    5  A    between atoms: N_16  and  C_17 
REMARK    6  A    between atoms: C_24  and  C_25 
REMARK       I    between atoms: C_25  and  N_27 
REMARK    7  A    between atoms: N_27  and  C_28 
ROOT
ATOM      1  C   UNL d   1      25.600 -15.188  -1.657  0.00  0.00     0.098 A 
ATOM      2  C   UNL d   1      26.262 -14.826  -0.539  0.00  0.00     0.112 A 
ATOM      3  N   UNL d   1      27.024 -13.664  -0.415  0.00  0.00    -0.360 N 
ATOM      4  C   UNL d   1      27.066 -12.818  -1.516  0.00  0.00     0.112 A 
ATOM      5  C   UNL d   1      26.444 -13.031  -2.685  0.00  0.00     0.098 A 
ATOM      6  C   UNL d   1      25.660 -14.274  -2.825  0.00  0.00     0.206 A 
ATOM      7  O   UNL d   1      25.091 -14.543  -3.885  0.00  0.00    -0.286 OA
ENDROOT
BRANCH   1   8
ATOM      8  C   UNL d   1      24.812 -16.444  -1.675  0.00  0.00     0.257 C 
ATOM      9  N   UNL d   1      24.067 -16.687  -0.536  0.00  0.00    -0.356 N 
ATOM     10  H   UNL d   1      24.176 -16.079   0.268  0.00  0.00     0.162 HD
ATOM     11  O   UNL d   1      24.828 -17.179  -2.652  0.00  0.00    -0.267 OA
BRANCH   9  12
ATOM     12  C   UNL d   1      23.313 -17.926  -0.409  0.00  0.00     0.130 C 
BRANCH  12  13
ATOM     13  C   UNL d   1      22.034 -17.979  -1.256  0.00  0.00     0.098 C 
BRANCH  13  14
ATOM     14  C   UNL d   1      20.978 -18.818  -0.600  0.00  0.00     0.106 A 
ATOM     15  N   UNL d   1      19.905 -19.325  -1.174  0.00  0.00    -0.233 NA
ATOM     16  C   UNL d   1      19.233 -20.013  -0.192  0.00  0.00     0.086 A 
ATOM     17  C   UNL d   1      18.034 -20.739  -0.263  0.00  0.00     0.034 A 
ATOM     18  C   UNL d   1      19.908 -19.929   1.019  0.00  0.00     0.068 A 
ATOM     19  C   UNL d   1      17.552 -21.357   0.896  0.00  0.00     0.003 A 
ATOM     20  C   UNL d   1      18.250 -21.254   2.101  0.00  0.00     0.009 A 
ATOM     21  C   UNL d   1      19.457 -20.536   2.202  0.00  0.00    -0.033 A 
ATOM     22  C   UNL d   1      20.188 -20.448   3.503  0.00  0.00     0.050 C 
ATOM     23  N   UNL d   1      21.016 -19.164   0.730  0.00  0.00    -0.342 N 
ATOM     24  H   UNL d   1      21.731 -18.904   1.393  0.00  0.00     0.167 HD
ENDBRANCH  13  14
ENDBRANCH  12  13
ENDBRANCH   9  12
ENDBRANCH   1   8
BRANCH   3  25
ATOM     25  C   UNL d   1      27.746 -13.312   0.838  0.00  0.00     0.088 C 
ATOM     26  C   UNL d   1      26.791 -12.614   1.826  0.00  0.00     0.026 C 
ATOM     27  C   UNL d   1      27.444 -12.360   3.181  0.00  0.00     0.002 C 
ATOM     28  C   UNL d   1      28.021 -13.642   3.771  0.00  0.00     0.000 C 
ATOM     29  C   UNL d   1      29.018 -14.285   2.812  0.00  0.00     0.002 C 
ATOM     30  C   UNL d   1      28.378 -14.572   1.458  0.00  0.00     0.026 C 
ENDBRANCH   3  25
BRANCH   5  31
ATOM     31  C   UNL d   1      26.629 -12.006  -3.734  0.00  0.00     0.257 C 
ATOM     32  O   UNL d   1      27.654 -11.332  -3.749  0.00  0.00    -0.267 OA
ATOM     33  N   UNL d   1      25.602 -11.896  -4.645  0.00  0.00    -0.352 N 
ATOM     34  H   UNL d   1      24.827 -12.561  -4.575  0.00  0.00     0.163 HD
BRANCH  33  35
ATOM     35  C   UNL d   1      25.618 -11.010  -5.768  0.00  0.00     0.084 A 
ATOM     36  C   UNL d   1      26.075  -9.582  -5.621  0.00  0.00     0.027 A 
ATOM     37  C   UNL d   1      26.898 -10.548  -6.416  0.00  0.00     0.027 A 
ENDBRANCH  33  35
ENDBRANCH   5  31
TORSDOF 7
ENDMDL
MODEL 2
REMARK VINA RESULT:   -31.832      2.823      5.427
REMARK INTER + INTRA:         -35.093
REMARK INTER:                 -33.920
REMARK INTRA:                  -1.173
REMARK CONF_INDEPENDENT:        2.088
REMARK UNBOUND:                -1.173
REMARK  7 active torsions:
REMARK  status: ('A' for Active; 'I' for Inactive)
REMARK    1  A    between atoms: C_8  and  C_9 
REMARK    2  A    between atoms: C_9  and  C_10 
REMARK    3  A    between atoms: C_10  and  N_11 
REMARK       I    between atoms: N_11  and  C_12 
REMARK    4  A    between atoms: C_12  and  C_14 
REMARK    5  A    between atoms: N_16  and  C_17 
REMARK    6  A    between atoms: C_24  and  C_25 
REMARK       I    between atoms: C_25  and  N_27 
REMARK    7  A    between atoms: N_27  and  C_28 
ROOT
ATOM      1  C   UNL d   1      26.556 -16.750  -1.062  0.00  0.00     0.098 A 
ATOM      2  C   UNL d   1      26.453 -15.626  -1.800  0.00  0.00     0.112 A 
ATOM      3  N   UNL d   1      27.537 -14.946  -2.357  0.00  0.00    -0.360 N 
ATOM      4  C   UNL d   1      28.796 -15.495  -2.154  0.00  0.00     0.112 A 
ATOM      5  C   UNL d   1      29.055 -16.615  -1.464  0.00  0.00     0.098 A 
ATOM      6  C   UNL d   1      27.911 -17.320  -0.852  0.00  0.00     0.206 A 
ATOM      7  O   UNL d   1      28.086 -18.337  -0.178  0.00  0.00    -0.286 OA
ENDROOT
BRANCH   1   8
ATOM      8  C   UNL d   1      25.334 -17.396  -0.526  0.00  0.00     0.257 C 
ATOM      9  N   UNL d   1      24.154 -16.723  -0.778  0.00  0.00    -0.356 N 
ATOM     10  H   UNL d   1      24.187 -15.803  -1.203  0.00  0.00     0.162 HD
ATOM     11  O   UNL d   1      25.401 -18.459   0.076  0.00  0.00    -0.267 OA
BRANCH   9  12
ATOM     12  C   UNL d   1      22.899 -17.224  -0.236  0.00  0.00     0.130 C 
BRANCH  12  13
ATOM     13  C   UNL d   1      21.985 -17.895  -1.269  0.00  0.00     0.098 C 
BRANCH  13  14
ATOM     14  C   UNL d   1      20.964 -18.774  -0.608  0.00  0.00     0.106 A 
ATOM     15  N   UNL d   1      19.905 -19.316  -1.175  0.00  0.00    -0.233 NA
ATOM     16  C   UNL d   1      19.267 -20.032  -0.190  0.00  0.00     0.086 A 
ATOM     17  C   UNL d   1      18.093 -20.799  -0.254  0.00  0.00     0.034 A 
ATOM     18  C   UNL d   1      19.949 -19.929   1.015  0.00  0.00     0.068 A 
ATOM     19  C   UNL d   1      17.643 -21.439   0.906  0.00  0.00     0.003 A 
ATOM     20  C   UNL d   1      18.348 -21.317   2.105  0.00  0.00     0.009 A 
ATOM     21  C   UNL d   1      19.530 -20.557   2.199  0.00  0.00    -0.033 A 
ATOM     22  C   UNL d   1      20.269 -20.449   3.494  0.00  0.00     0.050 C 
ATOM     23  N   UNL d   1      21.027 -19.124   0.721  0.00  0.00    -0.342 N 
ATOM     24  H   UNL d   1      21.738 -18.842   1.378  0.00  0.00     0.167 HD
ENDBRANCH  13  14
ENDBRANCH  12  13
ENDBRANCH   9  12
ENDBRANCH   1   8
BRANCH   3  25
ATOM     25  C   UNL d   1      27.373 -13.702  -3.157  0.00  0.00     0.088 C 
ATOM     26  C   UNL d   1      26.267 -13.889  -4.214  0.00  0.00     0.026 C 
ATOM     27  C   UNL d   1      25.961 -12.598  -4.967  0.00  0.00     0.002 C 
ATOM     28  C   UNL d   1      25.633 -11.458  -4.009  0.00  0.00     0.000 C 
ATOM     29  C   UNL d   1      26.767 -11.237  -3.013  0.00  0.00     0.002 C 
ATOM     30  C   UNL d   1      27.072 -12.510  -2.230  0.00  0.00     0.026 C 
ENDBRANCH   3  25
BRANCH   5  31
ATOM     31  C   UNL d   1      30.473 -17.020  -1.359  0.00  0.00     0.257 C 
ATOM     32  O   UNL d   1      31.257 -16.717  -2.251  0.00  0.00    -0.267 OA
ATOM     33  N   UNL d   1      30.807 -17.723  -0.222  0.00  0.00    -0.352 N 
ATOM     34  H   UNL d   1      30.083 -17.857   0.488  0.00  0.00     0.163 HD
BRANCH  33  35
ATOM     35  C   UNL d   1      32.136 -18.149   0.094  0.00  0.00     0.084 A 
ATOM     36  C   UNL d   1      32.623 -18.176   1.519  0.00  0.00     0.027 A 
ATOM     37  C   UNL d   1      32.424 -19.461   0.777  0.00  0.00     0.027 A 
ENDBRANCH  33  35
ENDBRANCH   5  31
TORSDOF 7
ENDMDL
MODEL 3
REMARK VINA RESULT:   -31.758      2.556      3.078
REMARK INTER + INTRA:         -35.030
REMARK INTER:                 -33.846
REMARK INTRA:                  -1.184
REMARK CONF_INDEPENDENT:        2.088
REMARK UNBOUND:                -1.184
REMARK  7 active torsions:
REMARK  status: ('A' for Active; 'I' for Inactive)
REMARK    1  A    between atoms: C_8  and  C_9 
REMARK    2  A    between atoms: C_9  and  C_10 
REMARK    3  A    between atoms: C_10  and  N_11 
REMARK       I    between atoms: N_11  and  C_12 
REMARK    4  A    between atoms: C_12  and  C_14 
REMARK    5  A    between atoms: N_16  and  C_17 
REMARK    6  A    between atoms: C_24  and  C_25 
REMARK       I    between atoms: C_25  and  N_27 
REMARK    7  A    between atoms: N_27  and  C_28 
ROOT
ATOM      1  C   UNL d   1      26.665 -16.531  -1.548  0.00  0.00     0.098 A 
ATOM      2  C   UNL d   1      27.958 -16.698  -1.209  0.00  0.00     0.112 A 
ATOM      3  N   UNL d   1      29.038 -16.257  -1.975  0.00  0.00    -0.360 N 
ATOM      4  C   UNL d   1      28.740 -15.571  -3.146  0.00  0.00     0.112 A 
ATOM      5  C   UNL d   1      27.508 -15.309  -3.602  0.00  0.00     0.098 A 
ATOM      6  C   UNL d   1      26.366 -15.800  -2.805  0.00  0.00     0.206 A 
ATOM      7  O   UNL d   1      25.208 -15.619  -3.187  0.00  0.00    -0.286 OA
ENDROOT
BRANCH   1   8
ATOM      8  C   UNL d   1      25.595 -17.034  -0.653  0.00  0.00     0.257 C 
ATOM      9  N   UNL d   1      24.425 -17.409  -1.286  0.00  0.00    -0.356 N 
ATOM     10  H   UNL d   1      24.317 -17.227  -2.278  0.00  0.00     0.162 HD
ATOM     11  O   UNL d   1      25.776 -17.117   0.554  0.00  0.00    -0.267 OA
BRANCH   9  12
ATOM     12  C   UNL d   1      23.280 -17.848  -0.503  0.00  0.00     0.130 C 
BRANCH  12  13
ATOM     13  C   UNL d   1      21.952 -17.859  -1.271  0.00  0.00     0.098 C 
BRANCH  13  14
ATOM     14  C   UNL d   1      20.945 -18.754  -0.613  0.00  0.00     0.106 A 
ATOM     15  N   UNL d   1      19.894 -19.311  -1.181  0.00  0.00    -0.233 NA
ATOM     16  C   UNL d   1      19.266 -20.038  -0.198  0.00  0.00     0.086 A 
ATOM     17  C   UNL d   1      18.105 -20.822  -0.263  0.00  0.00     0.034 A 
ATOM     18  C   UNL d   1      19.947 -19.927   1.008  0.00  0.00     0.068 A 
ATOM     19  C   UNL d   1      17.664 -21.471   0.896  0.00  0.00     0.003 A 
ATOM     20  C   UNL d   1      18.366 -21.341   2.095  0.00  0.00     0.009 A 
ATOM     21  C   UNL d   1      19.537 -20.564   2.191  0.00  0.00    -0.033 A 
ATOM     22  C   UNL d   1      20.274 -20.447   3.486  0.00  0.00     0.050 C 
ATOM     23  N   UNL d   1      21.012 -19.106   0.715  0.00  0.00    -0.342 N 
ATOM     24  H   UNL d   1      21.719 -18.814   1.374  0.00  0.00     0.167 HD
ENDBRANCH  13  14
ENDBRANCH  12  13
ENDBRANCH   9  12
ENDBRANCH   1   8
BRANCH   3  25
ATOM     25  C   UNL d   1      30.452 -16.474  -1.564  0.00  0.00     0.088 C 
ATOM     26  C   UNL d   1      30.684 -15.925  -0.143  0.00  0.00     0.026 C 
ATOM     27  C   UNL d   1      32.079 -16.250   0.383  0.00  0.00     0.002 C 
ATOM     28  C   UNL d   1      32.370 -17.744   0.306  0.00  0.00     0.000 C 
ATOM     29  C   UNL d   1      32.205 -18.261  -1.119  0.00  0.00     0.002 C 
ATOM     30  C   UNL d   1      30.807 -17.970  -1.656  0.00  0.00     0.026 C 
ENDBRANCH   3  25
BRANCH   5  31
ATOM     31  C   UNL d   1      27.413 -14.573  -4.881  0.00  0.00     0.257 C 
ATOM     32  O   UNL d   1      27.261 -15.193  -5.928  0.00  0.00    -0.267 OA
ATOM     33  N   UNL d   1      27.498 -13.201  -4.784  0.00  0.00    -0.352 N 
ATOM     34  H   UNL d   1      27.553 -12.790  -3.849  0.00  0.00     0.163 HD
BRANCH  33  35
ATOM     35  C   UNL d   1      27.367 -12.310  -5.896  0.00  0.00     0.084 A 
ATOM     36  C   UNL d   1      27.570 -10.828  -5.730  0.00  0.00     0.027 A 
ATOM     37  C   UNL d   1      28.551 -11.627  -6.530  0.00  0.00     0.027 A 
ENDBRANCH  33  35
ENDBRANCH   5  31
TORSDOF 7
ENDMDL
MODEL 4
REMARK VINA RESULT:   -31.504      1.541      5.171
REMARK INTER + INTRA:         -35.359
REMARK INTER:                 -33.592
REMARK INTRA:                  -1.767
REMARK CONF_INDEPENDENT:        2.088
REMARK UNBOUND:                -1.767
REMARK  7 active torsions:
REMARK  status: ('A' for Active; 'I' for Inactive)
REMARK    1  A    between atoms: C_8  and  C_9 
REMARK    2  A    between atoms: C_9  and  C_10 
REMARK    3  A    between atoms: C_10  and  N_11 
REMARK       I    between atoms: N_11  and  C_12 
REMARK    4  A    between atoms: C_12  and  C_14 
REMARK    5  A    between atoms: N_16  and  C_17 
REMARK    6  A    between atoms: C_24  and  C_25 
REMARK       I    between atoms: C_25  and  N_27 
REMARK    7  A    between atoms: N_27  and  C_28 
ROOT
ATOM      1  C   UNL d   1      25.905 -15.587  -1.332  0.00  0.00     0.098 A 
ATOM      2  C   UNL d   1      26.086 -14.651  -2.285  0.00  0.00     0.112 A 
ATOM      3  N   UNL d   1      26.964 -13.572  -2.173  0.00  0.00    -0.360 N 
ATOM      4  C   UNL d   1      27.718 -13.492  -1.010  0.00  0.00     0.112 A 
ATOM      5  C   UNL d   1      27.666 -14.357   0.013  0.00  0.00     0.098 A 
ATOM      6  C   UNL d   1      26.717 -15.483  -0.094  0.00  0.00     0.206 A 
ATOM      7  O   UNL d   1      26.598 -16.295   0.827  0.00  0.00    -0.286 OA
ENDROOT
BRANCH   1   8
ATOM      8  C   UNL d   1      24.949 -16.698  -1.560  0.00  0.00     0.257 C 
ATOM      9  N   UNL d   1      24.293 -17.151  -0.432  0.00  0.00    -0.356 N 
ATOM     10  H   UNL d   1      24.565 -16.794   0.478  0.00  0.00     0.162 HD
ATOM     11  O   UNL d   1      24.765 -17.145  -2.685  0.00  0.00    -0.267 OA
BRANCH   9  12
ATOM     12  C   UNL d   1      23.387 -18.287  -0.521  0.00  0.00     0.130 C 
BRANCH  12  13
ATOM     13  C   UNL d   1      22.033 -17.969  -1.169  0.00  0.00     0.098 C 
BRANCH  13  14
ATOM     14  C   UNL d   1      20.938 -18.818  -0.594  0.00  0.00     0.106 A 
ATOM     15  N   UNL d   1      19.905 -19.318  -1.243  0.00  0.00    -0.233 NA
ATOM     16  C   UNL d   1      19.173 -20.020  -0.315  0.00  0.00     0.086 A 
ATOM     17  C   UNL d   1      17.982 -20.745  -0.473  0.00  0.00     0.034 A 
ATOM     18  C   UNL d   1      19.769 -19.953   0.938  0.00  0.00     0.068 A 
ATOM     19  C   UNL d   1      17.427 -21.380   0.644  0.00  0.00     0.003 A 
ATOM     20  C   UNL d   1      18.047 -21.294   1.892  0.00  0.00     0.009 A 
ATOM     21  C   UNL d   1      19.244 -20.577   2.080  0.00  0.00    -0.033 A 
ATOM     22  C   UNL d   1      19.891 -20.507   3.427  0.00  0.00     0.050 C 
ATOM     23  N   UNL d   1      20.892 -19.183   0.731  0.00  0.00    -0.342 N 
ATOM     24  H   UNL d   1      21.563 -18.932   1.442  0.00  0.00     0.167 HD
ENDBRANCH  13  14
ENDBRANCH  12  13
ENDBRANCH   9  12
ENDBRANCH   1   8
BRANCH   3  25
ATOM     25  C   UNL d   1      27.122 -12.556  -3.249  0.00  0.00     0.088 C 
ATOM     26  C   UNL d   1      26.931 -13.210  -4.632  0.00  0.00     0.026 C 
ATOM     27  C   UNL d   1      26.941 -12.185  -5.763  0.00  0.00     0.002 C 
ATOM     28  C   UNL d   1      25.922 -11.078  -5.522  0.00  0.00     0.000 C 
ATOM     29  C   UNL d   1      26.166 -10.392  -4.181  0.00  0.00     0.002 C 
ATOM     30  C   UNL d   1      26.134 -11.395  -3.032  0.00  0.00     0.026 C 
ENDBRANCH   3  25
BRANCH   5  31
ATOM     31  C   UNL d   1      28.549 -14.081   1.165  0.00  0.00     0.257 C 
ATOM     32  O   UNL d   1      29.637 -13.545   0.981  0.00  0.00    -0.267 OA
ATOM     33  N   UNL d   1      28.054 -14.453   2.396  0.00  0.00    -0.352 N 
ATOM     34  H   UNL d   1      27.103 -14.828   2.436  0.00  0.00     0.163 HD
BRANCH  33  35
ATOM     35  C   UNL d   1      28.727 -14.215   3.636  0.00  0.00     0.084 A 
ATOM     36  C   UNL d   1      28.107 -13.350   4.701  0.00  0.00     0.027 A 
ATOM     37  C   UNL d   1      28.266 -14.820   4.937  0.00  0.00     0.027 A 
ENDBRANCH  33  35
ENDBRANCH   5  31
TORSDOF 7
ENDMDL
MODEL 5
REMARK VINA RESULT:   -31.387      1.767      2.001
REMARK INTER + INTRA:         -35.240
REMARK INTER:                 -33.475
REMARK INTRA:                  -1.766
REMARK CONF_INDEPENDENT:        2.088
REMARK UNBOUND:                -1.766
REMARK  7 active torsions:
REMARK  status: ('A' for Active; 'I' for Inactive)
REMARK    1  A    between atoms: C_8  and  C_9 
REMARK    2  A    between atoms: C_9  and  C_10 
REMARK    3  A    between atoms: C_10  and  N_11 
REMARK       I    between atoms: N_11  and  C_12 
REMARK    4  A    between atoms: C_12  and  C_14 
REMARK    5  A    between atoms: N_16  and  C_17 
REMARK    6  A    between atoms: C_24  and  C_25 
REMARK       I    between atoms: C_25  and  N_27 
REMARK    7  A    between atoms: N_27  and  C_28 
ROOT
ATOM      1  C   UNL d   1      26.366 -16.174  -0.428  0.00  0.00     0.098 A 
ATOM      2  C   UNL d   1      26.864 -15.503   0.629  0.00  0.00     0.112 A 
ATOM      3  N   UNL d   1      27.780 -14.454   0.537  0.00  0.00    -0.360 N 
ATOM      4  C   UNL d   1      28.169 -14.068  -0.740  0.00  0.00     0.112 A 
ATOM      5  C   UNL d   1      27.744 -14.624  -1.884  0.00  0.00     0.098 A 
ATOM      6  C   UNL d   1      26.796 -15.751  -1.784  0.00  0.00     0.206 A 
ATOM      7  O   UNL d   1      26.393 -16.326  -2.798  0.00  0.00    -0.286 OA
ENDROOT
BRANCH   1   8
ATOM      8  C   UNL d   1      25.389 -17.269  -0.213  0.00  0.00     0.257 C 
ATOM      9  N   UNL d   1      24.457 -17.432  -1.220  0.00  0.00    -0.356 N 
ATOM     10  H   UNL d   1      24.417 -16.755  -1.974  0.00  0.00     0.162 HD
ATOM     11  O   UNL d   1      25.445 -17.972   0.787  0.00  0.00    -0.267 OA
BRANCH   9  12
ATOM     12  C   UNL d   1      23.403 -18.426  -1.085  0.00  0.00     0.130 C 
BRANCH  12  13
ATOM     13  C   UNL d   1      21.983 -17.873  -1.263  0.00  0.00     0.098 C 
BRANCH  13  14
ATOM     14  C   UNL d   1      20.964 -18.755  -0.605  0.00  0.00     0.106 A 
ATOM     15  N   UNL d   1      19.904 -19.295  -1.172  0.00  0.00    -0.233 NA
ATOM     16  C   UNL d   1      19.268 -20.016  -0.190  0.00  0.00     0.086 A 
ATOM     17  C   UNL d   1      18.095 -20.783  -0.255  0.00  0.00     0.034 A 
ATOM     18  C   UNL d   1      19.953 -19.919   1.015  0.00  0.00     0.068 A 
ATOM     19  C   UNL d   1      17.647 -21.429   0.903  0.00  0.00     0.003 A 
ATOM     20  C   UNL d   1      18.354 -21.313   2.101  0.00  0.00     0.009 A 
ATOM     21  C   UNL d   1      19.536 -20.552   2.197  0.00  0.00    -0.033 A 
ATOM     22  C   UNL d   1      20.278 -20.450   3.491  0.00  0.00     0.050 C 
ATOM     23  N   UNL d   1      21.029 -19.112   0.722  0.00  0.00    -0.342 N 
ATOM     24  H   UNL d   1      21.742 -18.832   1.380  0.00  0.00     0.167 HD
ENDBRANCH  13  14
ENDBRANCH  12  13
ENDBRANCH   9  12
ENDBRANCH   1   8
BRANCH   3  25
ATOM     25  C   UNL d   1      28.311 -13.748   1.735  0.00  0.00     0.088 C 
ATOM     26  C   UNL d   1      27.595 -12.395   1.918  0.00  0.00     0.026 C 
ATOM     27  C   UNL d   1      28.000 -11.696   3.212  0.00  0.00     0.002 C 
ATOM     28  C   UNL d   1      27.802 -12.602   4.421  0.00  0.00     0.000 C 
ATOM     29  C   UNL d   1      28.573 -13.908   4.259  0.00  0.00     0.002 C 
ATOM     30  C   UNL d   1      28.164 -14.638   2.983  0.00  0.00     0.026 C 
ENDBRANCH   3  25
BRANCH   5  31
ATOM     31  C   UNL d   1      28.293 -14.068  -3.138  0.00  0.00     0.257 C 
ATOM     32  O   UNL d   1      29.427 -13.601  -3.150  0.00  0.00    -0.267 OA
ATOM     33  N   UNL d   1      27.457 -14.131  -4.232  0.00  0.00    -0.352 N 
ATOM     34  H   UNL d   1      26.558 -14.607  -4.120  0.00  0.00     0.163 HD
BRANCH  33  35
ATOM     35  C   UNL d   1      27.824 -13.703  -5.547  0.00  0.00     0.084 A 
ATOM     36  C   UNL d   1      29.268 -13.666  -5.974  0.00  0.00     0.027 A 
ATOM     37  C   UNL d   1      28.334 -14.658  -6.595  0.00  0.00     0.027 A 
ENDBRANCH  33  35
ENDBRANCH   5  31
TORSDOF 7
ENDMDL
MODEL 6
REMARK VINA RESULT:   -31.249      2.530      5.199
REMARK INTER + INTRA:         -34.904
REMARK INTER:                 -33.337
REMARK INTRA:                  -1.567
REMARK CONF_INDEPENDENT:        2.088
REMARK UNBOUND:                -1.567
REMARK  7 active torsions:
REMARK  status: ('A' for Active; 'I' for Inactive)
REMARK    1  A    between atoms: C_8  and  C_9 
REMARK    2  A    between atoms: C_9  and  C_10 
REMARK    3  A    between atoms: C_10  and  N_11 
REMARK       I    between atoms: N_11  and  C_12 
REMARK    4  A    between atoms: C_12  and  C_14 
REMARK    5  A    between atoms: N_16  and  C_17 
REMARK    6  A    between atoms: C_24  and  C_25 
REMARK       I    between atoms: C_25  and  N_27 
REMARK    7  A    between atoms: N_27  and  C_28 
ROOT
ATOM      1  C   UNL d   1      25.667 -16.022  -2.043  0.00  0.00     0.098 A 
ATOM      2  C   UNL d   1      25.616 -15.246  -3.144  0.00  0.00     0.112 A 
ATOM      3  N   UNL d   1      26.736 -14.727  -3.794  0.00  0.00    -0.360 N 
ATOM      4  C   UNL d   1      27.979 -15.069  -3.278  0.00  0.00     0.112 A 
ATOM      5  C   UNL d   1      28.190 -15.846  -2.206  0.00  0.00     0.098 A 
ATOM      6  C   UNL d   1      27.004 -16.374  -1.502  0.00  0.00     0.206 A 
ATOM      7  O   UNL d   1      27.129 -17.068  -0.491  0.00  0.00    -0.286 OA
ENDROOT
BRANCH   1   8
ATOM      8  C   UNL d   1      24.411 -16.528  -1.437  0.00  0.00     0.257 C 
ATOM      9  N   UNL d   1      24.526 -17.725  -0.757  0.00  0.00    -0.356 N 
ATOM     10  H   UNL d   1      25.401 -18.236  -0.795  0.00  0.00     0.162 HD
ATOM     11  O   UNL d   1      23.369 -15.894  -1.536  0.00  0.00    -0.267 OA
BRANCH   9  12
ATOM     12  C   UNL d   1      23.345 -18.355  -0.185  0.00  0.00     0.130 C 
BRANCH  12  13
ATOM     13  C   UNL d   1      22.031 -17.998  -0.891  0.00  0.00     0.098 C 
BRANCH  13  14
ATOM     14  C   UNL d   1      20.906 -18.877  -0.431  0.00  0.00     0.106 A 
ATOM     15  N   UNL d   1      19.905 -19.325  -1.163  0.00  0.00    -0.233 NA
ATOM     16  C   UNL d   1      19.125 -20.083  -0.324  0.00  0.00     0.086 A 
ATOM     17  C   UNL d   1      17.941 -20.788  -0.590  0.00  0.00     0.034 A 
ATOM     18  C   UNL d   1      19.657 -20.104   0.959  0.00  0.00     0.068 A 
ATOM     19  C   UNL d   1      17.328 -21.493   0.452  0.00  0.00     0.003 A 
ATOM     20  C   UNL d   1      17.884 -21.496   1.733  0.00  0.00     0.009 A 
ATOM     21  C   UNL d   1      19.072 -20.800   2.030  0.00  0.00    -0.033 A 
ATOM     22  C   UNL d   1      19.649 -20.825   3.408  0.00  0.00     0.050 C 
ATOM     23  N   UNL d   1      20.791 -19.330   0.862  0.00  0.00    -0.342 N 
ATOM     24  H   UNL d   1      21.426 -19.131   1.621  0.00  0.00     0.167 HD
ENDBRANCH  13  14
ENDBRANCH  12  13
ENDBRANCH   9  12
ENDBRANCH   1   8
BRANCH   3  25
ATOM     25  C   UNL d   1      26.630 -13.865  -5.003  0.00  0.00     0.088 C 
ATOM     26  C   UNL d   1      26.122 -12.462  -4.616  0.00  0.00     0.026 C 
ATOM     27  C   UNL d   1      26.130 -11.497  -5.797  0.00  0.00     0.002 C 
ATOM     28  C   UNL d   1      27.503 -11.433  -6.455  0.00  0.00     0.000 C 
ATOM     29  C   UNL d   1      27.963 -12.818  -6.898  0.00  0.00     0.002 C 
ATOM     30  C   UNL d   1      27.988 -13.794  -5.726  0.00  0.00     0.026 C 
ENDBRANCH   3  25
BRANCH   5  31
ATOM     31  C   UNL d   1      29.597 -16.077  -1.817  0.00  0.00     0.257 C 
ATOM     32  O   UNL d   1      30.477 -16.033  -2.669  0.00  0.00    -0.267 OA
ATOM     33  N   UNL d   1      29.810 -16.324  -0.478  0.00  0.00    -0.352 N 
ATOM     34  H   UNL d   1      29.006 -16.267   0.153  0.00  0.00     0.163 HD
BRANCH  33  35
ATOM     35  C   UNL d   1      31.102 -16.510   0.107  0.00  0.00     0.084 A 
ATOM     36  C   UNL d   1      32.228 -15.551  -0.180  0.00  0.00     0.027 A 
ATOM     37  C   UNL d   1      31.636 -15.614   1.194  0.00  0.00     0.027 A 
ENDBRANCH  33  35
ENDBRANCH   5  31
TORSDOF 7
ENDMDL
MODEL 7
REMARK VINA RESULT:   -30.819      2.977      5.260
REMARK INTER + INTRA:         -33.532
REMARK INTER:                 -32.908
REMARK INTRA:                  -0.625
REMARK CONF_INDEPENDENT:        2.088
REMARK UNBOUND:                -0.625
REMARK  7 active torsions:
REMARK  status: ('A' for Active; 'I' for Inactive)
REMARK    1  A    between atoms: C_8  and  C_9 
REMARK    2  A    between atoms: C_9  and  C_10 
REMARK    3  A    between atoms: C_10  and  N_11 
REMARK       I    between atoms: N_11  and  C_12 
REMARK    4  A    between atoms: C_12  and  C_14 
REMARK    5  A    between atoms: N_16  and  C_17 
REMARK    6  A    between atoms: C_24  and  C_25 
REMARK       I    between atoms: C_25  and  N_27 
REMARK    7  A    between atoms: N_27  and  C_28 
ROOT
ATOM      1  C   UNL d   1      26.115 -16.091  -1.212  0.00  0.00     0.098 A 
ATOM      2  C   UNL d   1      27.239 -16.434  -1.872  0.00  0.00     0.112 A 
ATOM      3  N   UNL d   1      28.516 -15.976  -1.545  0.00  0.00    -0.360 N 
ATOM      4  C   UNL d   1      28.620 -15.137  -0.443  0.00  0.00     0.112 A 
ATOM      5  C   UNL d   1      27.600 -14.726   0.323  0.00  0.00     0.098 A 
ATOM      6  C   UNL d   1      26.245 -15.190  -0.040  0.00  0.00     0.206 A 
ATOM      7  O   UNL d   1      25.261 -14.823   0.605  0.00  0.00    -0.286 OA
ENDROOT
BRANCH   1   8
ATOM      8  C   UNL d   1      24.808 -16.646  -1.641  0.00  0.00     0.257 C 
ATOM      9  N   UNL d   1      24.489 -17.881  -1.108  0.00  0.00    -0.356 N 
ATOM     10  H   UNL d   1      25.182 -18.379  -0.560  0.00  0.00     0.162 HD
ATOM     11  O   UNL d   1      24.080 -16.020  -2.399  0.00  0.00    -0.267 OA
BRANCH   9  12
ATOM     12  C   UNL d   1      23.267 -18.558  -1.516  0.00  0.00     0.130 C 
BRANCH  12  13
ATOM     13  C   UNL d   1      21.978 -17.793  -1.185  0.00  0.00     0.098 C 
BRANCH  13  14
ATOM     14  C   UNL d   1      20.958 -18.689  -0.548  0.00  0.00     0.106 A 
ATOM     15  N   UNL d   1      19.905 -19.226  -1.132  0.00  0.00    -0.233 NA
ATOM     16  C   UNL d   1      19.264 -19.963  -0.165  0.00  0.00     0.086 A 
ATOM     17  C   UNL d   1      18.095 -20.734  -0.251  0.00  0.00     0.034 A 
ATOM     18  C   UNL d   1      19.938 -19.879   1.047  0.00  0.00     0.068 A 
ATOM     19  C   UNL d   1      17.640 -21.398   0.894  0.00  0.00     0.003 A 
ATOM     20  C   UNL d   1      18.336 -21.295   2.100  0.00  0.00     0.009 A 
ATOM     21  C   UNL d   1      19.514 -20.531   2.216  0.00  0.00    -0.033 A 
ATOM     22  C   UNL d   1      20.244 -20.444   3.518  0.00  0.00     0.050 C 
ATOM     23  N   UNL d   1      21.013 -19.064   0.775  0.00  0.00    -0.342 N 
ATOM     24  H   UNL d   1      21.719 -18.790   1.442  0.00  0.00     0.167 HD
ENDBRANCH  13  14
ENDBRANCH  12  13
ENDBRANCH   9  12
ENDBRANCH   1   8
BRANCH   3  25
ATOM     25  C   UNL d   1      29.728 -16.375  -2.311  0.00  0.00     0.088 C 
ATOM     26  C   UNL d   1      30.392 -17.603  -1.658  0.00  0.00     0.026 C 
ATOM     27  C   UNL d   1      31.557 -18.139  -2.484  0.00  0.00     0.002 C 
ATOM     28  C   UNL d   1      31.135 -18.429  -3.920  0.00  0.00     0.000 C 
ATOM     29  C   UNL d   1      30.545 -17.186  -4.578  0.00  0.00     0.002 C 
ATOM     30  C   UNL d   1      29.361 -16.647  -3.782  0.00  0.00     0.026 C 
ENDBRANCH   3  25
BRANCH   5  31
ATOM     31  C   UNL d   1      27.930 -13.823   1.445  0.00  0.00     0.257 C 
ATOM     32  O   UNL d   1      27.723 -12.619   1.334  0.00  0.00    -0.267 OA
ATOM     33  N   UNL d   1      28.452 -14.432   2.565  0.00  0.00    -0.352 N 
ATOM     34  H   UNL d   1      28.514 -15.453   2.569  0.00  0.00     0.163 HD
BRANCH  33  35
ATOM     35  C   UNL d   1      28.777 -13.741   3.775  0.00  0.00     0.084 A 
ATOM     36  C   UNL d   1      28.079 -14.072   5.067  0.00  0.00     0.027 A 
ATOM     37  C   UNL d   1      29.532 -14.395   4.902  0.00  0.00     0.027 A 
ENDBRANCH  33  35
ENDBRANCH   5  31
TORSDOF 7
ENDMDL
MODEL 8
REMARK VINA RESULT:   -30.049      2.655      4.563
REMARK INTER + INTRA:         -33.803
REMARK INTER:                 -32.138
REMARK INTRA:                  -1.666
REMARK CONF_INDEPENDENT:        2.088
REMARK UNBOUND:                -1.666
REMARK  7 active torsions:
REMARK  status: ('A' for Active; 'I' for Inactive)
REMARK    1  A    between atoms: C_8  and  C_9 
REMARK    2  A    between atoms: C_9  and  C_10 
REMARK    3  A    between atoms: C_10  and  N_11 
REMARK       I    between atoms: N_11  and  C_12 
REMARK    4  A    between atoms: C_12  and  C_14 
REMARK    5  A    between atoms: N_16  and  C_17 
REMARK    6  A    between atoms: C_24  and  C_25 
REMARK       I    between atoms: C_25  and  N_27 
REMARK    7  A    between atoms: N_27  and  C_28 
ROOT
ATOM      1  C   UNL d   1      26.477 -16.189  -0.949  0.00  0.00     0.098 A 
ATOM      2  C   UNL d   1      27.474 -16.366  -1.840  0.00  0.00     0.112 A 
ATOM      3  N   UNL d   1      28.444 -15.408  -2.138  0.00  0.00    -0.360 N 
ATOM      4  C   UNL d   1      28.382 -14.210  -1.437  0.00  0.00     0.112 A 
ATOM      5  C   UNL d   1      27.467 -13.898  -0.509  0.00  0.00     0.098 A 
ATOM      6  C   UNL d   1      26.425 -14.901  -0.213  0.00  0.00     0.206 A 
ATOM      7  O   UNL d   1      25.536 -14.662   0.607  0.00  0.00    -0.286 OA
ENDROOT
BRANCH   1   8
ATOM      8  C   UNL d   1      25.504 -17.281  -0.703  0.00  0.00     0.257 C 
ATOM      9  N   UNL d   1      24.222 -16.868  -0.395  0.00  0.00    -0.356 N 
ATOM     10  H   UNL d   1      24.040 -15.881  -0.249  0.00  0.00     0.162 HD
ATOM     11  O   UNL d   1      25.842 -18.453  -0.794  0.00  0.00    -0.267 OA
BRANCH   9  12
ATOM     12  C   UNL d   1      23.200 -17.849  -0.061  0.00  0.00     0.130 C 
BRANCH  12  13
ATOM     13  C   UNL d   1      21.932 -17.761  -0.920  0.00  0.00     0.098 C 
BRANCH  13  14
ATOM     14  C   UNL d   1      20.872 -18.703  -0.429  0.00  0.00     0.106 A 
ATOM     15  N   UNL d   1      19.905 -19.243  -1.144  0.00  0.00    -0.233 NA
ATOM     16  C   UNL d   1      19.181 -20.029  -0.280  0.00  0.00     0.086 A 
ATOM     17  C   UNL d   1      18.051 -20.824  -0.520  0.00  0.00     0.034 A 
ATOM     18  C   UNL d   1      19.715 -19.973   1.002  0.00  0.00     0.068 A 
ATOM     19  C   UNL d   1      17.491 -21.539   0.545  0.00  0.00     0.003 A 
ATOM     20  C   UNL d   1      18.047 -21.463   1.823  0.00  0.00     0.009 A 
ATOM     21  C   UNL d   1      19.183 -20.677   2.095  0.00  0.00    -0.033 A 
ATOM     22  C   UNL d   1      19.763 -20.619   3.472  0.00  0.00     0.050 C 
ATOM     23  N   UNL d   1      20.791 -19.124   0.878  0.00  0.00    -0.342 N 
ATOM     24  H   UNL d   1      21.412 -18.858   1.628  0.00  0.00     0.167 HD
ENDBRANCH  13  14
ENDBRANCH  12  13
ENDBRANCH   9  12
ENDBRANCH   1   8
BRANCH   3  25
ATOM     25  C   UNL d   1      29.520 -15.645  -3.138  0.00  0.00     0.088 C 
ATOM     26  C   UNL d   1      29.820 -17.153  -3.250  0.00  0.00     0.026 C 
ATOM     27  C   UNL d   1      30.816 -17.463  -4.364  0.00  0.00     0.002 C 
ATOM     28  C   UNL d   1      30.360 -16.883  -5.698  0.00  0.00     0.000 C 
ATOM     29  C   UNL d   1      30.134 -15.378  -5.591  0.00  0.00     0.002 C 
ATOM     30  C   UNL d   1      29.122 -15.046  -4.500  0.00  0.00     0.026 C 
ENDBRANCH   3  25
BRANCH   5  31
ATOM     31  C   UNL d   1      27.576 -12.560   0.110  0.00  0.00     0.257 C 
ATOM     32  O   UNL d   1      28.015 -11.622  -0.546  0.00  0.00    -0.267 OA
ATOM     33  N   UNL d   1      27.150 -12.474   1.418  0.00  0.00    -0.352 N 
ATOM     34  H   UNL d   1      26.736 -13.309   1.842  0.00  0.00     0.163 HD
BRANCH  33  35
ATOM     35  C   UNL d   1      27.118 -11.259   2.172  0.00  0.00     0.084 A 
ATOM     36  C   UNL d   1      27.896 -10.049   1.725  0.00  0.00     0.027 A 
ATOM     37  C   UNL d   1      26.400 -10.025   1.687  0.00  0.00     0.027 A 
ENDBRANCH  33  35
ENDBRANCH   5  31
TORSDOF 7
ENDMDL
MODEL 9
REMARK VINA RESULT:   -29.734      2.813      4.803
REMARK INTER + INTRA:         -33.007
REMARK INTER:                 -31.822
REMARK INTRA:                  -1.185
REMARK CONF_INDEPENDENT:        2.088
REMARK UNBOUND:                -1.185
REMARK  7 active torsions:
REMARK  status: ('A' for Active; 'I' for Inactive)
REMARK    1  A    between atoms: C_8  and  C_9 
REMARK    2  A    between atoms: C_9  and  C_10 
REMARK    3  A    between atoms: C_10  and  N_11 
REMARK       I    between atoms: N_11  and  C_12 
REMARK    4  A    between atoms: C_12  and  C_14 
REMARK    5  A    between atoms: N_16  and  C_17 
REMARK    6  A    between atoms: C_24  and  C_25 
REMARK       I    between atoms: C_25  and  N_27 
REMARK    7  A    between atoms: N_27  and  C_28 
ROOT
ATOM      1  C   UNL d   1      25.153 -14.876  -2.510  0.00  0.00     0.098 A 
ATOM      2  C   UNL d   1      25.231 -13.663  -3.091  0.00  0.00     0.112 A 
ATOM      3  N   UNL d   1      26.399 -13.121  -3.631  0.00  0.00    -0.360 N 
ATOM      4  C   UNL d   1      27.539 -13.912  -3.586  0.00  0.00     0.112 A 
ATOM      5  C   UNL d   1      27.612 -15.144  -3.062  0.00  0.00     0.098 A 
ATOM      6  C   UNL d   1      26.383 -15.706  -2.467  0.00  0.00     0.206 A 
ATOM      7  O   UNL d   1      26.393 -16.820  -1.940  0.00  0.00    -0.286 OA
ENDROOT
BRANCH   1   8
ATOM      8  C   UNL d   1      23.856 -15.357  -1.976  0.00  0.00     0.257 C 
ATOM      9  N   UNL d   1      23.941 -16.407  -1.081  0.00  0.00    -0.356 N 
ATOM     10  H   UNL d   1      24.837 -16.853  -0.922  0.00  0.00     0.162 HD
ATOM     11  O   UNL d   1      22.805 -14.826  -2.310  0.00  0.00    -0.267 OA
BRANCH   9  12
ATOM     12  C   UNL d   1      22.728 -17.011  -0.549  0.00  0.00     0.130 C 
BRANCH  12  13
ATOM     13  C   UNL d   1      22.079 -18.049  -1.473  0.00  0.00     0.098 C 
BRANCH  13  14
ATOM     14  C   UNL d   1      21.023 -18.838  -0.755  0.00  0.00     0.106 A 
ATOM     15  N   UNL d   1      19.905 -19.310  -1.270  0.00  0.00    -0.233 NA
ATOM     16  C   UNL d   1      19.255 -19.958  -0.247  0.00  0.00     0.086 A 
ATOM     17  C   UNL d   1      18.027 -20.636  -0.249  0.00  0.00     0.034 A 
ATOM     18  C   UNL d   1      19.990 -19.883   0.930  0.00  0.00     0.068 A 
ATOM     19  C   UNL d   1      17.577 -21.219   0.940  0.00  0.00     0.003 A 
ATOM     20  C   UNL d   1      18.335 -21.128   2.109  0.00  0.00     0.009 A 
ATOM     21  C   UNL d   1      19.573 -20.456   2.142  0.00  0.00    -0.033 A 
ATOM     22  C   UNL d   1      20.368 -20.379   3.406  0.00  0.00     0.050 C 
ATOM     23  N   UNL d   1      21.112 -19.166   0.577  0.00  0.00    -0.342 N 
ATOM     24  H   UNL d   1      21.867 -18.925   1.201  0.00  0.00     0.167 HD
ENDBRANCH  13  14
ENDBRANCH  12  13
ENDBRANCH   9  12
ENDBRANCH   1   8
BRANCH   3  25
ATOM     25  C   UNL d   1      26.438 -11.770  -4.255  0.00  0.00     0.088 C 
ATOM     26  C   UNL d   1      26.028 -11.855  -5.738  0.00  0.00     0.026 C 
ATOM     27  C   UNL d   1      25.913 -10.479  -6.387  0.00  0.00     0.002 C 
ATOM     28  C   UNL d   1      24.980  -9.567  -5.600  0.00  0.00     0.000 C 
ATOM     29  C   UNL d   1      25.438  -9.435  -4.151  0.00  0.00     0.002 C 
ATOM     30  C   UNL d   1      25.534 -10.798  -3.474  0.00  0.00     0.026 C 
ENDBRANCH   3  25
BRANCH   5  31
ATOM     31  C   UNL d   1      28.931 -15.810  -3.107  0.00  0.00     0.257 C 
ATOM     32  O   UNL d   1      29.405 -16.285  -2.081  0.00  0.00    -0.267 OA
ATOM     33  N   UNL d   1      29.534 -15.851  -4.345  0.00  0.00    -0.352 N 
ATOM     34  H   UNL d   1      29.011 -15.483  -5.144  0.00  0.00     0.163 HD
BRANCH  33  35
ATOM     35  C   UNL d   1      30.780 -16.503  -4.608  0.00  0.00     0.084 A 
ATOM     36  C   UNL d   1      30.833 -17.978  -4.909  0.00  0.00     0.027 A 
ATOM     37  C   UNL d   1      31.166 -16.987  -5.982  0.00  0.00     0.027 A 
ENDBRANCH  33  35
ENDBRANCH   5  31
TORSDOF 7
ENDMDL
