MODEL 1
REMARK VINA RESULT:    -7.735      0.000      0.000
REMARK INTER + INTRA:         -10.680
REMARK INTER:                 -10.122
REMARK INTRA:                  -0.558
REMARK CONF_INDEPENDENT:        2.386
REMARK UNBOUND:                -0.558
REMARK  8 active torsions:
REMARK  status: ('A' for Active; 'I' for Inactive)
REMARK    1  A    between atoms: C_2  and  C_3 
REMARK    2  A    between atoms: C_3  and  N_5 
REMARK       I    between atoms: N_5  and  C_6 
REMARK    3  A    between atoms: C_6  and  C_8 
REMARK    4  A    between atoms: C_8  and  C_9 
REMARK    5  A    between atoms: C_9  and  N_10 
REMARK       I    between atoms: N_10  and  C_11 
REMARK       I    between atoms: C_11  and  N_13 
REMARK    6  A    between atoms: N_13  and  O_14 
REMARK    7  A    between atoms: O_14  and  C_15 
REMARK    8  A    between atoms: C_15  and  C_16 
ROOT
ATOM      1  N   UNL d   1      24.153 -16.539  -0.707  0.00  0.00    -0.341 N 
ATOM      2  C   UNL d   1      24.565 -16.437  -2.029  0.00  0.00     0.339 C 
ATOM      3  O   UNL d   1      24.759 -17.428  -2.732  0.00  0.00    -0.245 OA
ATOM      4  N   UNL d   1      24.725 -15.135  -2.456  0.00  0.00    -0.216 N 
ATOM      5  H   UNL d   1      24.008 -15.702  -0.168  0.00  0.00     0.164 HD
ATOM      6  H   UNL d   1      24.573 -14.325  -1.880  0.00  0.00     0.199 HD
ENDROOT
BRANCH   1   7
ATOM      7  C   UNL d   1      23.935 -17.852  -0.088  0.00  0.00     0.134 C 
BRANCH   7   8
ATOM      8  C   UNL d   1      23.069 -18.826  -0.912  0.00  0.00     0.122 C 
BRANCH   8   9
ATOM      9  C   UNL d   1      21.607 -18.730  -0.482  0.00  0.00     0.219 C 
ATOM     10  N   UNL d   1      21.164 -19.680   0.430  0.00  0.00    -0.357 N 
ATOM     11  H   UNL d   1      21.777 -20.433   0.719  0.00  0.00     0.162 HD
ATOM     12  O   UNL d   1      20.866 -17.852  -0.918  0.00  0.00    -0.274 OA
BRANCH  10  13
ATOM     13  C   UNL d   1      19.781 -19.648   0.945  0.00  0.00     0.080 C 
ATOM     14  C   UNL d   1      19.749 -20.075   2.418  0.00  0.00     0.032 C 
BRANCH  13  15
ATOM     15  C   UNL d   1      18.822 -20.539   0.122  0.00  0.00     0.020 C 
ATOM     16  C   UNL d   1      18.037 -21.526   0.989  0.00  0.00     0.007 C 
ENDBRANCH  13  15
ENDBRANCH  10  13
ENDBRANCH   8   9
ENDBRANCH   7   8
ENDBRANCH   1   7
BRANCH   4  17
ATOM     17  O   UNL d   1      25.145 -14.954  -3.804  0.00  0.00    -0.272 OA
BRANCH  17  18
ATOM     18  C   UNL d   1      26.067 -13.858  -3.929  0.00  0.00     0.240 C 
BRANCH  18  19
ATOM     19  C   UNL d   1      27.335 -14.359  -4.591  0.00  0.00    -0.032 A 
ATOM     20  C   UNL d   1      27.727 -13.851  -5.839  0.00  0.00     0.009 A 
ATOM     21  C   UNL d   1      28.757 -14.460  -6.560  0.00  0.00     0.001 A 
ATOM     22  C   UNL d   1      29.473 -15.517  -6.002  0.00  0.00     0.000 A 
ATOM     23  C   UNL d   1      29.149 -15.976  -4.727  0.00  0.00     0.001 A 
ATOM     24  C   UNL d   1      28.084 -15.403  -4.026  0.00  0.00     0.009 A 
ENDBRANCH  18  19
ENDBRANCH  17  18
ENDBRANCH   4  17
TORSDOF 8
ENDMDL
MODEL 2
REMARK VINA RESULT:    -7.140      1.699      9.010
REMARK INTER + INTRA:         -10.863
REMARK INTER:                  -9.526
REMARK INTRA:                  -1.336
REMARK CONF_INDEPENDENT:        2.386
REMARK UNBOUND:                -1.336
REMARK  8 active torsions:
REMARK  status: ('A' for Active; 'I' for Inactive)
REMARK    1  A    between atoms: C_2  and  C_3 
REMARK    2  A    between atoms: C_3  and  N_5 
REMARK       I    between atoms: N_5  and  C_6 
REMARK    3  A    between atoms: C_6  and  C_8 
REMARK    4  A    between atoms: C_8  and  C_9 
REMARK    5  A    between atoms: C_9  and  N_10 
REMARK       I    between atoms: N_10  and  C_11 
REMARK       I    between atoms: C_11  and  N_13 
REMARK    6  A    between atoms: N_13  and  O_14 
REMARK    7  A    between atoms: O_14  and  C_15 
REMARK    8  A    between atoms: C_15  and  C_16 
ROOT
ATOM      1  N   UNL d   1      25.045 -18.330   0.053  0.00  0.00    -0.341 N 
ATOM      2  C   UNL d   1      24.028 -18.338  -0.892  0.00  0.00     0.339 C 
ATOM      3  O   UNL d   1      24.054 -17.616  -1.888  0.00  0.00    -0.245 OA
ATOM      4  N   UNL d   1      23.013 -19.225  -0.599  0.00  0.00    -0.216 N 
ATOM      5  H   UNL d   1      24.982 -18.936   0.854  0.00  0.00     0.164 HD
ATOM      6  H   UNL d   1      22.987 -19.811   0.218  0.00  0.00     0.199 HD
ENDROOT
BRANCH   1   7
ATOM      7  C   UNL d   1      26.205 -17.444  -0.100  0.00  0.00     0.134 C 
BRANCH   7   8
ATOM      8  C   UNL d   1      25.873 -15.939  -0.155  0.00  0.00     0.122 C 
BRANCH   8   9
ATOM      9  C   UNL d   1      26.503 -15.301  -1.391  0.00  0.00     0.219 C 
ATOM     10  N   UNL d   1      26.077 -15.779  -2.624  0.00  0.00    -0.357 N 
ATOM     11  H   UNL d   1      25.439 -16.564  -2.672  0.00  0.00     0.162 HD
ATOM     12  O   UNL d   1      27.339 -14.405  -1.295  0.00  0.00    -0.274 OA
BRANCH  10  13
ATOM     13  C   UNL d   1      26.590 -15.198  -3.880  0.00  0.00     0.080 C 
ATOM     14  C   UNL d   1      28.063 -15.575  -4.080  0.00  0.00     0.032 C 
BRANCH  13  15
ATOM     15  C   UNL d   1      26.433 -13.661  -3.928  0.00  0.00     0.020 C 
ATOM     16  C   UNL d   1      25.150 -13.217  -4.636  0.00  0.00     0.007 C 
ENDBRANCH  13  15
ENDBRANCH  10  13
ENDBRANCH   8   9
ENDBRANCH   7   8
ENDBRANCH   1   7
BRANCH   4  17
ATOM     17  O   UNL d   1      21.935 -19.288  -1.527  0.00  0.00    -0.272 OA
BRANCH  17  18
ATOM     18  C   UNL d   1      20.782 -18.574  -1.049  0.00  0.00     0.240 C 
BRANCH  18  19
ATOM     19  C   UNL d   1      20.024 -19.460  -0.082  0.00  0.00    -0.032 A 
ATOM     20  C   UNL d   1      18.912 -20.193  -0.521  0.00  0.00     0.009 A 
ATOM     21  C   UNL d   1      18.073 -20.828   0.399  0.00  0.00     0.001 A 
ATOM     22  C   UNL d   1      18.391 -20.824   1.756  0.00  0.00     0.000 A 
ATOM     23  C   UNL d   1      19.540 -20.171   2.196  0.00  0.00     0.001 A 
ATOM     24  C   UNL d   1      20.351 -19.490   1.283  0.00  0.00     0.009 A 
ENDBRANCH  18  19
ENDBRANCH  17  18
ENDBRANCH   4  17
TORSDOF 8
ENDMDL
MODEL 3
REMARK VINA RESULT:    -7.107      3.357      4.438
REMARK INTER + INTRA:         -10.107
REMARK INTER:                  -9.493
REMARK INTRA:                  -0.614
REMARK CONF_INDEPENDENT:        2.386
REMARK UNBOUND:                -0.614
REMARK  8 active torsions:
REMARK  status: ('A' for Active; 'I' for Inactive)
REMARK    1  A    between atoms: C_2  and  C_3 
REMARK    2  A    between atoms: C_3  and  N_5 
REMARK       I    between atoms: N_5  and  C_6 
REMARK    3  A    between atoms: C_6  and  C_8 
REMARK    4  A    between atoms: C_8  and  C_9 
REMARK    5  A    between atoms: C_9  and  N_10 
REMARK       I    between atoms: N_10  and  C_11 
REMARK       I    between atoms: C_11  and  N_13 
REMARK    6  A    between atoms: N_13  and  O_14 
REMARK    7  A    between atoms: O_14  and  C_15 
REMARK    8  A    between atoms: C_15  and  C_16 
ROOT
ATOM      1  N   UNL d   1      24.995 -18.269  -0.400  0.00  0.00    -0.341 N 
ATOM      2  C   UNL d   1      25.161 -16.927  -0.713  0.00  0.00     0.339 C 
ATOM      3  O   UNL d   1      24.209 -16.150  -0.789  0.00  0.00    -0.245 OA
ATOM      4  N   UNL d   1      26.477 -16.570  -0.921  0.00  0.00    -0.216 N 
ATOM      5  H   UNL d   1      25.800 -18.869  -0.350  0.00  0.00     0.164 HD
ATOM      6  H   UNL d   1      27.255 -17.205  -0.865  0.00  0.00     0.199 HD
ENDROOT
BRANCH   1   7
ATOM      7  C   UNL d   1      23.659 -18.822  -0.148  0.00  0.00     0.134 C 
BRANCH   7   8
ATOM      8  C   UNL d   1      22.645 -18.624  -1.294  0.00  0.00     0.122 C 
BRANCH   8   9
ATOM      9  C   UNL d   1      21.217 -18.731  -0.764  0.00  0.00     0.219 C 
ATOM     10  N   UNL d   1      21.017 -19.583   0.315  0.00  0.00    -0.357 N 
ATOM     11  H   UNL d   1      21.779 -20.151   0.663  0.00  0.00     0.162 HD
ATOM     12  O   UNL d   1      20.297 -18.089  -1.265  0.00  0.00    -0.274 OA
BRANCH  10  13
ATOM     13  C   UNL d   1      19.683 -19.723   0.932  0.00  0.00     0.080 C 
ATOM     14  C   UNL d   1      19.816 -20.072   2.419  0.00  0.00     0.032 C 
BRANCH  13  15
ATOM     15  C   UNL d   1      18.811 -20.784   0.222  0.00  0.00     0.020 C 
ATOM     16  C   UNL d   1      17.933 -21.577   1.193  0.00  0.00     0.007 C 
ENDBRANCH  13  15
ENDBRANCH  10  13
ENDBRANCH   8   9
ENDBRANCH   7   8
ENDBRANCH   1   7
BRANCH   4  17
ATOM     17  O   UNL d   1      26.723 -15.205  -1.245  0.00  0.00    -0.272 OA
BRANCH  17  18
ATOM     18  C   UNL d   1      28.004 -14.768  -0.762  0.00  0.00     0.240 C 
BRANCH  18  19
ATOM     19  C   UNL d   1      27.832 -14.187   0.627  0.00  0.00    -0.032 A 
ATOM     20  C   UNL d   1      28.486 -14.771   1.721  0.00  0.00     0.009 A 
ATOM     21  C   UNL d   1      28.159 -14.393   3.026  0.00  0.00     0.001 A 
ATOM     22  C   UNL d   1      27.252 -13.360   3.250  0.00  0.00     0.000 A 
ATOM     23  C   UNL d   1      26.658 -12.714   2.168  0.00  0.00     0.001 A 
ATOM     24  C   UNL d   1      26.943 -13.127   0.863  0.00  0.00     0.009 A 
ENDBRANCH  18  19
ENDBRANCH  17  18
ENDBRANCH   4  17
TORSDOF 8
ENDMDL
MODEL 4
REMARK VINA RESULT:    -7.080      2.769      9.623
REMARK INTER + INTRA:          -9.972
REMARK INTER:                  -9.466
REMARK INTRA:                  -0.506
REMARK CONF_INDEPENDENT:        2.386
REMARK UNBOUND:                -0.506
REMARK  8 active torsions:
REMARK  status: ('A' for Active; 'I' for Inactive)
REMARK    1  A    between atoms: C_2  and  C_3 
REMARK    2  A    between atoms: C_3  and  N_5 
REMARK       I    between atoms: N_5  and  C_6 
REMARK    3  A    between atoms: C_6  and  C_8 
REMARK    4  A    between atoms: C_8  and  C_9 
REMARK    5  A    between atoms: C_9  and  N_10 
REMARK       I    between atoms: N_10  and  C_11 
REMARK       I    between atoms: C_11  and  N_13 
REMARK    6  A    between atoms: N_13  and  O_14 
REMARK    7  A    between atoms: O_14  and  C_15 
REMARK    8  A    between atoms: C_15  and  C_16 
ROOT
ATOM      1  N   UNL d   1      24.945 -18.126   0.178  0.00  0.00    -0.341 N 
ATOM      2  C   UNL d   1      23.933 -18.220  -0.767  0.00  0.00     0.339 C 
ATOM      3  O   UNL d   1      23.910 -17.513  -1.775  0.00  0.00    -0.245 OA
ATOM      4  N   UNL d   1      22.983 -19.172  -0.461  0.00  0.00    -0.216 N 
ATOM      5  H   UNL d   1      24.924 -18.722   0.988  0.00  0.00     0.164 HD
ATOM      6  H   UNL d   1      22.997 -19.745   0.365  0.00  0.00     0.199 HD
ENDROOT
BRANCH   1   7
ATOM      7  C   UNL d   1      26.040 -17.162   0.012  0.00  0.00     0.134 C 
BRANCH   7   8
ATOM      8  C   UNL d   1      27.451 -17.729   0.270  0.00  0.00     0.122 C 
BRANCH   8   9
ATOM      9  C   UNL d   1      28.431 -17.212  -0.781  0.00  0.00     0.219 C 
ATOM     10  N   UNL d   1      29.673 -17.834  -0.832  0.00  0.00    -0.357 N 
ATOM     11  H   UNL d   1      29.919 -18.536  -0.146  0.00  0.00     0.162 HD
ATOM     12  O   UNL d   1      28.129 -16.298  -1.545  0.00  0.00    -0.274 OA
BRANCH  10  13
ATOM     13  C   UNL d   1      30.675 -17.440  -1.842  0.00  0.00     0.080 C 
ATOM     14  C   UNL d   1      31.241 -16.052  -1.519  0.00  0.00     0.032 C 
BRANCH  13  15
ATOM     15  C   UNL d   1      30.104 -17.450  -3.278  0.00  0.00     0.020 C 
ATOM     16  C   UNL d   1      31.153 -17.103  -4.337  0.00  0.00     0.007 C 
ENDBRANCH  13  15
ENDBRANCH  10  13
ENDBRANCH   8   9
ENDBRANCH   7   8
ENDBRANCH   1   7
BRANCH   4  17
ATOM     17  O   UNL d   1      21.913 -19.325  -1.389  0.00  0.00    -0.272 OA
BRANCH  17  18
ATOM     18  C   UNL d   1      20.723 -18.654  -0.941  0.00  0.00     0.240 C 
BRANCH  18  19
ATOM     19  C   UNL d   1      19.951 -19.584  -0.027  0.00  0.00    -0.032 A 
ATOM     20  C   UNL d   1      18.831 -20.276  -0.508  0.00  0.00     0.009 A 
ATOM     21  C   UNL d   1      17.982 -20.952   0.373  0.00  0.00     0.001 A 
ATOM     22  C   UNL d   1      18.297 -21.030   1.728  0.00  0.00     0.000 A 
ATOM     23  C   UNL d   1      19.454 -20.418   2.206  0.00  0.00     0.001 A 
ATOM     24  C   UNL d   1      20.275 -19.695   1.335  0.00  0.00     0.009 A 
ENDBRANCH  18  19
ENDBRANCH  17  18
ENDBRANCH   4  17
TORSDOF 8
ENDMDL
MODEL 5
REMARK VINA RESULT:    -7.056      4.665      6.004
REMARK INTER + INTRA:          -9.976
REMARK INTER:                  -9.443
REMARK INTRA:                  -0.533
REMARK CONF_INDEPENDENT:        2.386
REMARK UNBOUND:                -0.533
REMARK  8 active torsions:
REMARK  status: ('A' for Active; 'I' for Inactive)
REMARK    1  A    between atoms: C_2  and  C_3 
REMARK    2  A    between atoms: C_3  and  N_5 
REMARK       I    between atoms: N_5  and  C_6 
REMARK    3  A    between atoms: C_6  and  C_8 
REMARK    4  A    between atoms: C_8  and  C_9 
REMARK    5  A    between atoms: C_9  and  N_10 
REMARK       I    between atoms: N_10  and  C_11 
REMARK       I    between atoms: C_11  and  N_13 
REMARK    6  A    between atoms: N_13  and  O_14 
REMARK    7  A    between atoms: O_14  and  C_15 
REMARK    8  A    between atoms: C_15  and  C_16 
ROOT
ATOM      1  N   UNL d   1      26.043 -17.550   0.126  0.00  0.00    -0.341 N 
ATOM      2  C   UNL d   1      26.461 -16.227   0.156  0.00  0.00     0.339 C 
ATOM      3  O   UNL d   1      25.844 -15.333  -0.423  0.00  0.00    -0.245 OA
ATOM      4  N   UNL d   1      27.611 -16.030   0.891  0.00  0.00    -0.216 N 
ATOM      5  H   UNL d   1      26.579 -18.250   0.612  0.00  0.00     0.164 HD
ATOM      6  H   UNL d   1      28.119 -16.761   1.359  0.00  0.00     0.199 HD
ENDROOT
BRANCH   1   7
ATOM      7  C   UNL d   1      24.836 -17.941  -0.613  0.00  0.00     0.134 C 
BRANCH   7   8
ATOM      8  C   UNL d   1      23.549 -18.010   0.233  0.00  0.00     0.122 C 
BRANCH   8   9
ATOM      9  C   UNL d   1      22.467 -18.793  -0.509  0.00  0.00     0.219 C 
ATOM     10  N   UNL d   1      21.432 -19.307   0.263  0.00  0.00    -0.357 N 
ATOM     11  H   UNL d   1      21.458 -19.221   1.271  0.00  0.00     0.162 HD
ATOM     12  O   UNL d   1      22.511 -18.950  -1.727  0.00  0.00    -0.274 OA
BRANCH  10  13
ATOM     13  C   UNL d   1      20.314 -20.039  -0.364  0.00  0.00     0.080 C 
ATOM     14  C   UNL d   1      19.263 -19.056  -0.895  0.00  0.00     0.032 C 
BRANCH  13  15
ATOM     15  C   UNL d   1      19.647 -21.043   0.605  0.00  0.00     0.020 C 
ATOM     16  C   UNL d   1      18.878 -20.355   1.736  0.00  0.00     0.007 C 
ENDBRANCH  13  15
ENDBRANCH  10  13
ENDBRANCH   8   9
ENDBRANCH   7   8
ENDBRANCH   1   7
BRANCH   4  17
ATOM     17  O   UNL d   1      28.097 -14.694   0.967  0.00  0.00    -0.272 OA
BRANCH  17  18
ATOM     18  C   UNL d   1      27.193 -13.841   1.689  0.00  0.00     0.240 C 
BRANCH  18  19
ATOM     19  C   UNL d   1      27.686 -13.702   3.115  0.00  0.00    -0.032 A 
ATOM     20  C   UNL d   1      28.156 -14.825   3.812  0.00  0.00     0.009 A 
ATOM     21  C   UNL d   1      28.395 -14.757   5.187  0.00  0.00     0.001 A 
ATOM     22  C   UNL d   1      28.267 -13.545   5.862  0.00  0.00     0.000 A 
ATOM     23  C   UNL d   1      27.882 -12.402   5.164  0.00  0.00     0.001 A 
ATOM     24  C   UNL d   1      27.589 -12.480   3.799  0.00  0.00     0.009 A 
ENDBRANCH  18  19
ENDBRANCH  17  18
ENDBRANCH   4  17
TORSDOF 8
ENDMDL
MODEL 6
REMARK VINA RESULT:    -7.027      8.045      9.868
REMARK INTER + INTRA:          -9.944
REMARK INTER:                  -9.414
REMARK INTRA:                  -0.530
REMARK CONF_INDEPENDENT:        2.386
REMARK UNBOUND:                -0.530
REMARK  8 active torsions:
REMARK  status: ('A' for Active; 'I' for Inactive)
REMARK    1  A    between atoms: C_2  and  C_3 
REMARK    2  A    between atoms: C_3  and  N_5 
REMARK       I    between atoms: N_5  and  C_6 
REMARK    3  A    between atoms: C_6  and  C_8 
REMARK    4  A    between atoms: C_8  and  C_9 
REMARK    5  A    between atoms: C_9  and  N_10 
REMARK       I    between atoms: N_10  and  C_11 
REMARK       I    between atoms: C_11  and  N_13 
REMARK    6  A    between atoms: N_13  and  O_14 
REMARK    7  A    between atoms: O_14  and  C_15 
REMARK    8  A    between atoms: C_15  and  C_16 
ROOT
ATOM      1  N   UNL d   1      28.391 -14.886   4.320  0.00  0.00    -0.341 N 
ATOM      2  C   UNL d   1      27.786 -14.456   3.148  0.00  0.00     0.339 C 
ATOM      3  O   UNL d   1      26.991 -13.516   3.127  0.00  0.00    -0.245 OA
ATOM      4  N   UNL d   1      28.167 -15.179   2.036  0.00  0.00    -0.216 N 
ATOM      5  H   UNL d   1      29.033 -15.660   4.291  0.00  0.00     0.164 HD
ATOM      6  H   UNL d   1      28.811 -15.951   2.052  0.00  0.00     0.199 HD
ENDROOT
BRANCH   1   7
ATOM      7  C   UNL d   1      28.100 -14.230   5.601  0.00  0.00     0.134 C 
BRANCH   7   8
ATOM      8  C   UNL d   1      29.229 -13.331   6.144  0.00  0.00     0.122 C 
BRANCH   8   9
ATOM      9  C   UNL d   1      29.144 -13.233   7.666  0.00  0.00     0.219 C 
ATOM     10  N   UNL d   1      29.555 -14.349   8.384  0.00  0.00    -0.357 N 
ATOM     11  H   UNL d   1      29.819 -15.198   7.899  0.00  0.00     0.162 HD
ATOM     12  O   UNL d   1      28.739 -12.214   8.222  0.00  0.00    -0.274 OA
BRANCH  10  13
ATOM     13  C   UNL d   1      29.556 -14.341   9.860  0.00  0.00     0.080 C 
ATOM     14  C   UNL d   1      30.311 -15.562  10.400  0.00  0.00     0.032 C 
BRANCH  13  15
ATOM     15  C   UNL d   1      28.129 -14.305  10.453  0.00  0.00     0.020 C 
ATOM     16  C   UNL d   1      27.782 -12.954  11.084  0.00  0.00     0.007 C 
ENDBRANCH  13  15
ENDBRANCH  10  13
ENDBRANCH   8   9
ENDBRANCH   7   8
ENDBRANCH   1   7
BRANCH   4  17
ATOM     17  O   UNL d   1      27.585 -14.791   0.795  0.00  0.00    -0.272 OA
BRANCH  17  18
ATOM     18  C   UNL d   1      27.741 -15.812  -0.205  0.00  0.00     0.240 C 
BRANCH  18  19
ATOM     19  C   UNL d   1      26.406 -16.494  -0.421  0.00  0.00    -0.032 A 
ATOM     20  C   UNL d   1      25.432 -15.896  -1.236  0.00  0.00     0.009 A 
ATOM     21  C   UNL d   1      24.127 -16.393  -1.260  0.00  0.00     0.001 A 
ATOM     22  C   UNL d   1      23.803 -17.550  -0.554  0.00  0.00     0.000 A 
ATOM     23  C   UNL d   1      24.783 -18.202   0.192  0.00  0.00     0.001 A 
ATOM     24  C   UNL d   1      26.076 -17.676   0.261  0.00  0.00     0.009 A 
ENDBRANCH  18  19
ENDBRANCH  17  18
ENDBRANCH   4  17
TORSDOF 8
ENDMDL
MODEL 7
REMARK VINA RESULT:    -7.002      2.052      2.947
REMARK INTER + INTRA:         -10.098
REMARK INTER:                  -9.388
REMARK INTRA:                  -0.710
REMARK CONF_INDEPENDENT:        2.386
REMARK UNBOUND:                -0.710
REMARK  8 active torsions:
REMARK  status: ('A' for Active; 'I' for Inactive)
REMARK    1  A    between atoms: C_2  and  C_3 
REMARK    2  A    between atoms: C_3  and  N_5 
REMARK       I    between atoms: N_5  and  C_6 
REMARK    3  A    between atoms: C_6  and  C_8 
REMARK    4  A    between atoms: C_8  and  C_9 
REMARK    5  A    between atoms: C_9  and  N_10 
REMARK       I    between atoms: N_10  and  C_11 
REMARK       I    between atoms: C_11  and  N_13 
REMARK    6  A    between atoms: N_13  and  O_14 
REMARK    7  A    between atoms: O_14  and  C_15 
REMARK    8  A    between atoms: C_15  and  C_16 
ROOT
ATOM      1  N   UNL d   1      23.206 -16.501  -0.718  0.00  0.00    -0.341 N 
ATOM      2  C   UNL d   1      24.107 -16.456  -1.773  0.00  0.00     0.339 C 
ATOM      3  O   UNL d   1      24.723 -17.452  -2.151  0.00  0.00    -0.245 OA
ATOM      4  N   UNL d   1      24.228 -15.204  -2.340  0.00  0.00    -0.216 N 
ATOM      5  H   UNL d   1      22.726 -15.661  -0.441  0.00  0.00     0.164 HD
ATOM      6  H   UNL d   1      23.730 -14.388  -2.028  0.00  0.00     0.199 HD
ENDROOT
BRANCH   1   7
ATOM      7  C   UNL d   1      22.954 -17.755   0.002  0.00  0.00     0.134 C 
BRANCH   7   8
ATOM      8  C   UNL d   1      22.541 -18.945  -0.888  0.00  0.00     0.122 C 
BRANCH   8   9
ATOM      9  C   UNL d   1      21.150 -19.441  -0.499  0.00  0.00     0.219 C 
ATOM     10  N   UNL d   1      20.907 -19.610   0.858  0.00  0.00    -0.357 N 
ATOM     11  H   UNL d   1      21.654 -19.480   1.529  0.00  0.00     0.162 HD
ATOM     12  O   UNL d   1      20.290 -19.670  -1.348  0.00  0.00    -0.274 OA
BRANCH  10  13
ATOM     13  C   UNL d   1      19.580 -20.041   1.341  0.00  0.00     0.080 C 
ATOM     14  C   UNL d   1      19.623 -20.308   2.851  0.00  0.00     0.032 C 
BRANCH  13  15
ATOM     15  C   UNL d   1      19.060 -21.295   0.602  0.00  0.00     0.020 C 
ATOM     16  C   UNL d   1      17.581 -21.576   0.879  0.00  0.00     0.007 C 
ENDBRANCH  13  15
ENDBRANCH  10  13
ENDBRANCH   8   9
ENDBRANCH   7   8
ENDBRANCH   1   7
BRANCH   4  17
ATOM     17  O   UNL d   1      25.135 -15.084  -3.430  0.00  0.00    -0.272 OA
BRANCH  17  18
ATOM     18  C   UNL d   1      26.349 -14.420  -3.040  0.00  0.00     0.240 C 
BRANCH  18  19
ATOM     19  C   UNL d   1      26.763 -14.923  -1.672  0.00  0.00    -0.032 A 
ATOM     20  C   UNL d   1      26.577 -14.118  -0.539  0.00  0.00     0.009 A 
ATOM     21  C   UNL d   1      27.158 -14.470   0.683  0.00  0.00     0.001 A 
ATOM     22  C   UNL d   1      27.843 -15.676   0.812  0.00  0.00     0.000 A 
ATOM     23  C   UNL d   1      27.962 -16.525  -0.286  0.00  0.00     0.001 A 
ATOM     24  C   UNL d   1      27.429 -16.150  -1.522  0.00  0.00     0.009 A 
ENDBRANCH  18  19
ENDBRANCH  17  18
ENDBRANCH   4  17
TORSDOF 8
ENDMDL
MODEL 8
REMARK VINA RESULT:    -6.796      3.784      9.071
REMARK INTER + INTRA:         -10.231
REMARK INTER:                  -9.182
REMARK INTRA:                  -1.049
REMARK CONF_INDEPENDENT:        2.386
REMARK UNBOUND:                -1.049
REMARK  8 active torsions:
REMARK  status: ('A' for Active; 'I' for Inactive)
REMARK    1  A    between atoms: C_2  and  C_3 
REMARK    2  A    between atoms: C_3  and  N_5 
REMARK       I    between atoms: N_5  and  C_6 
REMARK    3  A    between atoms: C_6  and  C_8 
REMARK    4  A    between atoms: C_8  and  C_9 
REMARK    5  A    between atoms: C_9  and  N_10 
REMARK       I    between atoms: N_10  and  C_11 
REMARK       I    between atoms: C_11  and  N_13 
REMARK    6  A    between atoms: N_13  and  O_14 
REMARK    7  A    between atoms: O_14  and  C_15 
REMARK    8  A    between atoms: C_15  and  C_16 
ROOT
ATOM      1  N   UNL d   1      25.257 -17.374  -0.602  0.00  0.00    -0.341 N 
ATOM      2  C   UNL d   1      23.962 -17.807  -0.348  0.00  0.00     0.339 C 
ATOM      3  O   UNL d   1      23.729 -18.822   0.308  0.00  0.00    -0.245 OA
ATOM      4  N   UNL d   1      22.993 -16.991  -0.894  0.00  0.00    -0.216 N 
ATOM      5  H   UNL d   1      25.402 -16.540  -1.145  0.00  0.00     0.164 HD
ATOM      6  H   UNL d   1      23.183 -16.165  -1.436  0.00  0.00     0.199 HD
ENDROOT
BRANCH   1   7
ATOM      7  C   UNL d   1      26.413 -18.124  -0.096  0.00  0.00     0.134 C 
BRANCH   7   8
ATOM      8  C   UNL d   1      27.704 -17.297   0.069  0.00  0.00     0.122 C 
BRANCH   8   9
ATOM      9  C   UNL d   1      27.367 -15.858   0.454  0.00  0.00     0.219 C 
ATOM     10  N   UNL d   1      27.747 -15.449   1.726  0.00  0.00    -0.357 N 
ATOM     11  H   UNL d   1      28.154 -16.113   2.373  0.00  0.00     0.162 HD
ATOM     12  O   UNL d   1      26.795 -15.102  -0.329  0.00  0.00    -0.274 OA
BRANCH  10  13
ATOM     13  C   UNL d   1      27.509 -14.064   2.179  0.00  0.00     0.080 C 
ATOM     14  C   UNL d   1      28.220 -13.071   1.251  0.00  0.00     0.032 C 
BRANCH  13  15
ATOM     15  C   UNL d   1      27.962 -13.833   3.638  0.00  0.00     0.020 C 
ATOM     16  C   UNL d   1      28.044 -12.349   4.006  0.00  0.00     0.007 C 
ENDBRANCH  13  15
ENDBRANCH  10  13
ENDBRANCH   8   9
ENDBRANCH   7   8
ENDBRANCH   1   7
BRANCH   4  17
ATOM     17  O   UNL d   1      21.640 -17.374  -0.671  0.00  0.00    -0.272 OA
BRANCH  17  18
ATOM     18  C   UNL d   1      21.415 -18.752  -1.015  0.00  0.00     0.240 C 
BRANCH  18  19
ATOM     19  C   UNL d   1      20.402 -19.337  -0.053  0.00  0.00    -0.032 A 
ATOM     20  C   UNL d   1      20.652 -19.328   1.327  0.00  0.00     0.009 A 
ATOM     21  C   UNL d   1      19.844 -20.061   2.199  0.00  0.00     0.001 A 
ATOM     22  C   UNL d   1      18.718 -20.727   1.719  0.00  0.00     0.000 A 
ATOM     23  C   UNL d   1      18.410 -20.674   0.361  0.00  0.00     0.001 A 
ATOM     24  C   UNL d   1      19.249 -19.986  -0.521  0.00  0.00     0.009 A 
ENDBRANCH  18  19
ENDBRANCH  17  18
ENDBRANCH   4  17
TORSDOF 8
ENDMDL
MODEL 9
REMARK VINA RESULT:    -5.885      3.278      7.944
REMARK INTER + INTRA:          -9.987
REMARK INTER:                  -8.272
REMARK INTRA:                  -1.715
REMARK CONF_INDEPENDENT:        2.386
REMARK UNBOUND:                -1.715
REMARK  8 active torsions:
REMARK  status: ('A' for Active; 'I' for Inactive)
REMARK    1  A    between atoms: C_2  and  C_3 
REMARK    2  A    between atoms: C_3  and  N_5 
REMARK       I    between atoms: N_5  and  C_6 
REMARK    3  A    between atoms: C_6  and  C_8 
REMARK    4  A    between atoms: C_8  and  C_9 
REMARK    5  A    between atoms: C_9  and  N_10 
REMARK       I    between atoms: N_10  and  C_11 
REMARK       I    between atoms: C_11  and  N_13 
REMARK    6  A    between atoms: N_13  and  O_14 
REMARK    7  A    between atoms: O_14  and  C_15 
REMARK    8  A    between atoms: C_15  and  C_16 
ROOT
ATOM      1  N   UNL d   1      29.247 -16.651  -1.855  0.00  0.00    -0.341 N 
ATOM      2  C   UNL d   1      28.057 -16.516  -1.153  0.00  0.00     0.339 C 
ATOM      3  O   UNL d   1      27.236 -15.639  -1.419  0.00  0.00    -0.245 OA
ATOM      4  N   UNL d   1      27.899 -17.454  -0.154  0.00  0.00    -0.216 N 
ATOM      5  H   UNL d   1      29.890 -17.382  -1.603  0.00  0.00     0.164 HD
ATOM      6  H   UNL d   1      28.572 -18.168   0.068  0.00  0.00     0.199 HD
ENDROOT
BRANCH   1   7
ATOM      7  C   UNL d   1      29.579 -15.736  -2.953  0.00  0.00     0.134 C 
BRANCH   7   8
ATOM      8  C   UNL d   1      29.226 -16.253  -4.362  0.00  0.00     0.122 C 
BRANCH   8   9
ATOM      9  C   UNL d   1      28.126 -15.395  -4.983  0.00  0.00     0.219 C 
ATOM     10  N   UNL d   1      27.270 -14.747  -4.101  0.00  0.00    -0.357 N 
ATOM     11  H   UNL d   1      27.344 -14.914  -3.105  0.00  0.00     0.162 HD
ATOM     12  O   UNL d   1      28.012 -15.280  -6.202  0.00  0.00    -0.274 OA
BRANCH  10  13
ATOM     13  C   UNL d   1      26.203 -13.856  -4.598  0.00  0.00     0.080 C 
ATOM     14  C   UNL d   1      26.780 -12.483  -4.961  0.00  0.00     0.032 C 
BRANCH  13  15
ATOM     15  C   UNL d   1      25.052 -13.687  -3.580  0.00  0.00     0.020 C 
ATOM     16  C   UNL d   1      24.784 -14.958  -2.770  0.00  0.00     0.007 C 
ENDBRANCH  13  15
ENDBRANCH  10  13
ENDBRANCH   8   9
ENDBRANCH   7   8
ENDBRANCH   1   7
BRANCH   4  17
ATOM     17  O   UNL d   1      26.698 -17.377   0.608  0.00  0.00    -0.272 OA
BRANCH  17  18
ATOM     18  C   UNL d   1      25.903 -18.566   0.465  0.00  0.00     0.240 C 
BRANCH  18  19
ATOM     19  C   UNL d   1      24.561 -18.188  -0.130  0.00  0.00    -0.032 A 
ATOM     20  C   UNL d   1      24.198 -16.839  -0.251  0.00  0.00     0.009 A 
ATOM     21  C   UNL d   1      22.887 -16.484  -0.580  0.00  0.00     0.001 A 
ATOM     22  C   UNL d   1      21.952 -17.469  -0.891  0.00  0.00     0.000 A 
ATOM     23  C   UNL d   1      22.323 -18.811  -0.857  0.00  0.00     0.001 A 
ATOM     24  C   UNL d   1      23.619 -19.170  -0.475  0.00  0.00     0.009 A 
ENDBRANCH  18  19
ENDBRANCH  17  18
ENDBRANCH   4  17
TORSDOF 8
ENDMDL
