MODEL 1
REMARK VINA RESULT:    -9.764      0.000      0.000
REMARK INTER + INTRA:         -12.591
REMARK INTER:                 -11.554
REMARK INTRA:                  -1.037
REMARK CONF_INDEPENDENT:        1.790
REMARK UNBOUND:                -1.037
REMARK  6 active torsions:
REMARK  status: ('A' for Active; 'I' for Inactive)
REMARK    1  A    between atoms: C_2  and  N_3 
REMARK    2  A    between atoms: C_2  and  C_30 
REMARK       I    between atoms: N_3  and  C_4 
REMARK    3  A    between atoms: C_4  and  C_6 
REMARK    4  A    between atoms: N_19  and  C_20 
REMARK    5  A    between atoms: C_20  and  C_21 
REMARK    6  A    between atoms: C_28  and  N_29 
ROOT
ATOM      1  C   UNL d   1      27.337 -13.866   1.266  0.00  0.00     0.076 C 
ATOM      2  C   UNL d   1      27.367 -12.709   0.532  0.00  0.00     0.042 C 
ATOM      3  C   UNL d   1      27.030 -12.795  -0.807  0.00  0.00     0.080 A 
ATOM      4  C   UNL d   1      27.065 -11.583  -1.620  0.00  0.00     0.267 A 
ATOM      5  O   UNL d   1      27.424 -10.535  -1.072  0.00  0.00    -0.267 OA
ATOM      6  N   UNL d   1      26.674 -11.707  -2.937  0.00  0.00    -0.273 N 
ATOM      7  C   UNL d   1      26.679 -10.560  -3.727  0.00  0.00     0.102 A 
ATOM      8  C   UNL d   1      26.309 -10.584  -5.009  0.00  0.00     0.018 A 
ATOM      9  C   UNL d   1      25.892 -11.825  -5.602  0.00  0.00     0.005 A 
ATOM     10  C   UNL d   1      25.868 -12.957  -4.885  0.00  0.00     0.051 A 
ATOM     11  C   UNL d   1      26.277 -12.947  -3.447  0.00  0.00     0.139 A 
ATOM     12  N   UNL d   1      26.246 -14.052  -2.751  0.00  0.00    -0.212 NA
ATOM     13  C   UNL d   1      26.633 -14.000  -1.402  0.00  0.00     0.149 A 
ATOM     14  N   UNL d   1      26.631 -15.163  -0.659  0.00  0.00    -0.312 N 
ATOM     15  C   UNL d   1      27.064 -15.114   0.651  0.00  0.00     0.118 C 
ENDROOT
BRANCH   1  16
ATOM     16  C   UNL d   1      27.681 -13.836   2.710  0.00  0.00     0.256 C 
ATOM     17  N   UNL d   1      28.809 -14.522   3.087  0.00  0.00    -0.348 N 
ATOM     18  H   UNL d   1      29.321 -15.096   2.432  0.00  0.00     0.163 HD
ATOM     19  O   UNL d   1      27.030 -13.131   3.467  0.00  0.00    -0.268 OA
BRANCH  17  20
ATOM     20  C   UNL d   1      29.315 -14.449   4.460  0.00  0.00     0.114 C 
ATOM     21  C   UNL d   1      28.403 -15.200   5.449  0.00  0.00     0.037 C 
BRANCH  20  22
ATOM     22  C   UNL d   1      29.429 -13.010   4.937  0.00  0.00    -0.036 A 
ATOM     23  C   UNL d   1      28.640 -12.551   6.003  0.00  0.00     0.009 A 
ATOM     24  C   UNL d   1      28.509 -11.180   6.243  0.00  0.00     0.001 A 
ATOM     25  C   UNL d   1      29.262 -10.266   5.510  0.00  0.00     0.000 A 
ATOM     26  C   UNL d   1      30.159 -10.721   4.548  0.00  0.00     0.001 A 
ATOM     27  C   UNL d   1      30.197 -12.075   4.224  0.00  0.00     0.009 A 
ENDBRANCH  20  22
ENDBRANCH  17  20
ENDBRANCH   1  16
BRANCH  15  28
ATOM     28  N   UNL d   1      27.405 -16.230   1.389  0.00  0.00    -0.384 N 
ATOM     29  H   UNL d   1      28.316 -16.478   1.717  0.00  0.00     0.157 HD
ATOM     30  H   UNL d   1      26.753 -17.019   1.404  0.00  0.00     0.157 HD
ENDBRANCH  15  28
BRANCH  14  31
ATOM     31  C   UNL d   1      26.117 -16.438  -1.346  0.00  0.00     0.171 C 
BRANCH  31  32
ATOM     32  C   UNL d   1      24.819 -17.044  -0.802  0.00  0.00    -0.040 C 
ATOM     33  C   UNL d   1      24.758 -18.415  -0.462  0.00  0.00     0.010 C 
ATOM     34  C   UNL d   1      23.525 -19.091  -0.520  0.00  0.00     0.024 C 
ATOM     35  C   UNL d   1      22.340 -18.376  -0.681  0.00  0.00     0.034 C 
ATOM     36 CL   UNL d   1      20.852 -19.214  -0.894  0.00  0.00    -0.084 Cl
ATOM     37  C   UNL d   1      22.374 -16.986  -0.782  0.00  0.00     0.024 C 
ATOM     38  C   UNL d   1      23.608 -16.325  -0.895  0.00  0.00     0.010 C 
ENDBRANCH  31  32
ENDBRANCH  14  31
TORSDOF 6
ENDMDL
MODEL 2
REMARK VINA RESULT:    -9.180      4.851      8.172
REMARK INTER + INTRA:         -12.207
REMARK INTER:                 -10.970
REMARK INTRA:                  -1.237
REMARK CONF_INDEPENDENT:        1.790
REMARK UNBOUND:                -1.237
REMARK  6 active torsions:
REMARK  status: ('A' for Active; 'I' for Inactive)
REMARK    1  A    between atoms: C_2  and  N_3 
REMARK    2  A    between atoms: C_2  and  C_30 
REMARK       I    between atoms: N_3  and  C_4 
REMARK    3  A    between atoms: C_4  and  C_6 
REMARK    4  A    between atoms: N_19  and  C_20 
REMARK    5  A    between atoms: C_20  and  C_21 
REMARK    6  A    between atoms: C_28  and  N_29 
ROOT
ATOM      1  C   UNL d   1      26.459 -14.613  -3.863  0.00  0.00     0.076 C 
ATOM      2  C   UNL d   1      27.576 -15.327  -4.213  0.00  0.00     0.042 C 
ATOM      3  C   UNL d   1      28.346 -14.836  -5.253  0.00  0.00     0.080 A 
ATOM      4  C   UNL d   1      29.534 -15.581  -5.658  0.00  0.00     0.267 A 
ATOM      5  O   UNL d   1      29.779 -16.637  -5.065  0.00  0.00    -0.267 OA
ATOM      6  N   UNL d   1      30.298 -15.030  -6.666  0.00  0.00    -0.273 N 
ATOM      7  C   UNL d   1      31.448 -15.711  -7.056  0.00  0.00     0.102 A 
ATOM      8  C   UNL d   1      32.252 -15.249  -8.016  0.00  0.00     0.018 A 
ATOM      9  C   UNL d   1      31.929 -14.012  -8.675  0.00  0.00     0.005 A 
ATOM     10  C   UNL d   1      30.834 -13.317  -8.335  0.00  0.00     0.051 A 
ATOM     11  C   UNL d   1      29.926 -13.820  -7.260  0.00  0.00     0.139 A 
ATOM     12  N   UNL d   1      28.863 -13.136  -6.929  0.00  0.00    -0.212 NA
ATOM     13  C   UNL d   1      28.037 -13.640  -5.911  0.00  0.00     0.149 A 
ATOM     14  N   UNL d   1      26.896 -12.942  -5.568  0.00  0.00    -0.312 N 
ATOM     15  C   UNL d   1      26.062 -13.471  -4.604  0.00  0.00     0.118 C 
ENDROOT
BRANCH   1  16
ATOM     16  C   UNL d   1      25.597 -15.084  -2.751  0.00  0.00     0.256 C 
ATOM     17  N   UNL d   1      26.232 -15.689  -1.695  0.00  0.00    -0.348 N 
ATOM     18  H   UNL d   1      27.222 -15.889  -1.719  0.00  0.00     0.163 HD
ATOM     19  O   UNL d   1      24.402 -14.823  -2.765  0.00  0.00    -0.268 OA
BRANCH  17  20
ATOM     20  C   UNL d   1      25.495 -16.071  -0.487  0.00  0.00     0.114 C 
ATOM     21  C   UNL d   1      26.379 -16.857   0.500  0.00  0.00     0.037 C 
BRANCH  20  22
ATOM     22  C   UNL d   1      24.290 -16.937  -0.820  0.00  0.00    -0.036 A 
ATOM     23  C   UNL d   1      23.009 -16.370  -0.899  0.00  0.00     0.009 A 
ATOM     24  C   UNL d   1      21.876 -17.188  -0.895  0.00  0.00     0.001 A 
ATOM     25  C   UNL d   1      22.012 -18.573  -0.945  0.00  0.00     0.000 A 
ATOM     26  C   UNL d   1      23.280 -19.143  -1.016  0.00  0.00     0.001 A 
ATOM     27  C   UNL d   1      24.408 -18.335  -0.894  0.00  0.00     0.009 A 
ENDBRANCH  20  22
ENDBRANCH  17  20
ENDBRANCH   1  16
BRANCH  15  28
ATOM     28  N   UNL d   1      24.763 -13.049  -4.398  0.00  0.00    -0.384 N 
ATOM     29  H   UNL d   1      24.465 -12.259  -3.864  0.00  0.00     0.157 HD
ATOM     30  H   UNL d   1      24.004 -13.713  -4.575  0.00  0.00     0.157 HD
ENDBRANCH  15  28
BRANCH  14  31
ATOM     31  C   UNL d   1      26.650 -11.600  -6.274  0.00  0.00     0.171 C 
BRANCH  31  32
ATOM     32  C   UNL d   1      25.906 -10.523  -5.478  0.00  0.00    -0.040 C 
ATOM     33  C   UNL d   1      25.096  -9.574  -6.145  0.00  0.00     0.010 C 
ATOM     34  C   UNL d   1      24.889  -8.308  -5.564  0.00  0.00     0.024 C 
ATOM     35  C   UNL d   1      25.278  -8.068  -4.248  0.00  0.00     0.034 C 
ATOM     36 CL   UNL d   1      25.154  -6.483  -3.591  0.00  0.00    -0.084 Cl
ATOM     37  C   UNL d   1      25.871  -9.085  -3.501  0.00  0.00     0.024 C 
ATOM     38  C   UNL d   1      26.232 -10.290  -4.125  0.00  0.00     0.010 C 
ENDBRANCH  31  32
ENDBRANCH  14  31
TORSDOF 6
ENDMDL
MODEL 3
REMARK VINA RESULT:    -9.018      1.901      7.178
REMARK INTER + INTRA:         -12.324
REMARK INTER:                 -10.808
REMARK INTRA:                  -1.516
REMARK CONF_INDEPENDENT:        1.790
REMARK UNBOUND:                -1.516
REMARK  6 active torsions:
REMARK  status: ('A' for Active; 'I' for Inactive)
REMARK    1  A    between atoms: C_2  and  N_3 
REMARK    2  A    between atoms: C_2  and  C_30 
REMARK       I    between atoms: N_3  and  C_4 
REMARK    3  A    between atoms: C_4  and  C_6 
REMARK    4  A    between atoms: N_19  and  C_20 
REMARK    5  A    between atoms: C_20  and  C_21 
REMARK    6  A    between atoms: C_28  and  N_29 
ROOT
ATOM      1  C   UNL d   1      26.420 -13.224  -2.708  0.00  0.00     0.076 C 
ATOM      2  C   UNL d   1      26.830 -12.379  -1.709  0.00  0.00     0.042 C 
ATOM      3  C   UNL d   1      27.024 -12.925  -0.453  0.00  0.00     0.080 A 
ATOM      4  C   UNL d   1      27.448 -12.048   0.635  0.00  0.00     0.267 A 
ATOM      5  O   UNL d   1      27.586 -10.847   0.383  0.00  0.00    -0.267 OA
ATOM      6  N   UNL d   1      27.677 -12.645   1.858  0.00  0.00    -0.273 N 
ATOM      7  C   UNL d   1      28.102 -11.833   2.907  0.00  0.00     0.102 A 
ATOM      8  C   UNL d   1      28.355 -12.323   4.122  0.00  0.00     0.018 A 
ATOM      9  C   UNL d   1      28.186 -13.730   4.367  0.00  0.00     0.005 A 
ATOM     10  C   UNL d   1      27.780 -14.554   3.391  0.00  0.00     0.051 A 
ATOM     11  C   UNL d   1      27.495 -14.021   2.024  0.00  0.00     0.139 A 
ATOM     12  N   UNL d   1      27.106 -14.830   1.075  0.00  0.00    -0.212 NA
ATOM     13  C   UNL d   1      26.852 -14.291  -0.197  0.00  0.00     0.149 A 
ATOM     14  N   UNL d   1      26.415 -15.127  -1.204  0.00  0.00    -0.312 N 
ATOM     15  C   UNL d   1      26.117 -14.581  -2.437  0.00  0.00     0.118 C 
ENDROOT
BRANCH   1  16
ATOM     16  C   UNL d   1      26.202 -12.698  -4.080  0.00  0.00     0.256 C 
ATOM     17  N   UNL d   1      25.840 -11.378  -4.182  0.00  0.00    -0.348 N 
ATOM     18  H   UNL d   1      25.638 -10.822  -3.363  0.00  0.00     0.163 HD
ATOM     19  O   UNL d   1      26.455 -13.410  -5.042  0.00  0.00    -0.268 OA
BRANCH  17  20
ATOM     20  C   UNL d   1      25.729 -10.723  -5.487  0.00  0.00     0.114 C 
ATOM     21  C   UNL d   1      27.073 -10.712  -6.241  0.00  0.00     0.037 C 
BRANCH  20  22
ATOM     22  C   UNL d   1      25.265  -9.282  -5.350  0.00  0.00    -0.036 A 
ATOM     23  C   UNL d   1      25.867  -8.428  -4.413  0.00  0.00     0.009 A 
ATOM     24  C   UNL d   1      25.255  -7.221  -4.065  0.00  0.00     0.001 A 
ATOM     25  C   UNL d   1      24.113  -6.795  -4.739  0.00  0.00     0.000 A 
ATOM     26  C   UNL d   1      23.590  -7.566  -5.773  0.00  0.00     0.001 A 
ATOM     27  C   UNL d   1      24.126  -8.825  -6.034  0.00  0.00     0.009 A 
ENDBRANCH  20  22
ENDBRANCH  17  20
ENDBRANCH   1  16
BRANCH  15  28
ATOM     28  N   UNL d   1      25.387 -15.235  -3.409  0.00  0.00    -0.384 N 
ATOM     29  H   UNL d   1      24.879 -16.090  -3.306  0.00  0.00     0.157 HD
ATOM     30  H   UNL d   1      25.563 -14.998  -4.389  0.00  0.00     0.157 HD
ENDBRANCH  15  28
BRANCH  14  31
ATOM     31  C   UNL d   1      26.315 -16.627  -0.883  0.00  0.00     0.171 C 
BRANCH  31  32
ATOM     32  C   UNL d   1      24.944 -17.154  -0.448  0.00  0.00    -0.040 C 
ATOM     33  C   UNL d   1      24.749 -18.536  -0.221  0.00  0.00     0.010 C 
ATOM     34  C   UNL d   1      23.468 -19.094  -0.389  0.00  0.00     0.024 C 
ATOM     35  C   UNL d   1      22.358 -18.266  -0.547  0.00  0.00     0.034 C 
ATOM     36 CL   UNL d   1      20.818 -18.951  -0.894  0.00  0.00    -0.084 Cl
ATOM     37  C   UNL d   1      22.515 -16.881  -0.536  0.00  0.00     0.024 C 
ATOM     38  C   UNL d   1      23.805 -16.325  -0.539  0.00  0.00     0.010 C 
ENDBRANCH  31  32
ENDBRANCH  14  31
TORSDOF 6
ENDMDL
MODEL 4
REMARK VINA RESULT:    -8.996      2.527      7.557
REMARK INTER + INTRA:         -11.893
REMARK INTER:                 -10.785
REMARK INTRA:                  -1.108
REMARK CONF_INDEPENDENT:        1.790
REMARK UNBOUND:                -1.108
REMARK  6 active torsions:
REMARK  status: ('A' for Active; 'I' for Inactive)
REMARK    1  A    between atoms: C_2  and  N_3 
REMARK    2  A    between atoms: C_2  and  C_30 
REMARK       I    between atoms: N_3  and  C_4 
REMARK    3  A    between atoms: C_4  and  C_6 
REMARK    4  A    between atoms: N_19  and  C_20 
REMARK    5  A    between atoms: C_20  and  C_21 
REMARK    6  A    between atoms: C_28  and  N_29 
ROOT
ATOM      1  C   UNL d   1      26.993 -14.439  -3.186  0.00  0.00     0.076 C 
ATOM      2  C   UNL d   1      27.468 -13.298  -2.594  0.00  0.00     0.042 C 
ATOM      3  C   UNL d   1      27.320 -13.182  -1.223  0.00  0.00     0.080 A 
ATOM      4  C   UNL d   1      27.804 -11.972  -0.564  0.00  0.00     0.267 A 
ATOM      5  O   UNL d   1      28.301 -11.092  -1.275  0.00  0.00    -0.267 OA
ATOM      6  N   UNL d   1      27.679 -11.921   0.809  0.00  0.00    -0.273 N 
ATOM      7  C   UNL d   1      28.152 -10.786   1.462  0.00  0.00     0.102 A 
ATOM      8  C   UNL d   1      28.082 -10.653   2.789  0.00  0.00     0.018 A 
ATOM      9  C   UNL d   1      27.500 -11.706   3.575  0.00  0.00     0.005 A 
ATOM     10  C   UNL d   1      27.031 -12.820   2.995  0.00  0.00     0.051 A 
ATOM     11  C   UNL d   1      27.105 -12.985   1.511  0.00  0.00     0.139 A 
ATOM     12  N   UNL d   1      26.652 -14.076   0.951  0.00  0.00    -0.212 NA
ATOM     13  C   UNL d   1      26.744 -14.195  -0.446  0.00  0.00     0.149 A 
ATOM     14  N   UNL d   1      26.246 -15.328  -1.055  0.00  0.00    -0.312 N 
ATOM     15  C   UNL d   1      26.293 -15.414  -2.432  0.00  0.00     0.118 C 
ENDROOT
BRANCH   1  16
ATOM     16  C   UNL d   1      27.129 -14.625  -4.652  0.00  0.00     0.256 C 
ATOM     17  N   UNL d   1      27.986 -13.773  -5.303  0.00  0.00    -0.348 N 
ATOM     18  H   UNL d   1      28.425 -12.999  -4.824  0.00  0.00     0.163 HD
ATOM     19  O   UNL d   1      26.576 -15.574  -5.191  0.00  0.00    -0.268 OA
BRANCH  17  20
ATOM     20  C   UNL d   1      28.298 -13.951  -6.723  0.00  0.00     0.114 C 
ATOM     21  C   UNL d   1      29.734 -14.466  -6.936  0.00  0.00     0.037 C 
BRANCH  20  22
ATOM     22  C   UNL d   1      28.155 -12.647  -7.493  0.00  0.00    -0.036 A 
ATOM     23  C   UNL d   1      27.530 -11.539  -6.901  0.00  0.00     0.009 A 
ATOM     24  C   UNL d   1      27.121 -10.458  -7.688  0.00  0.00     0.001 A 
ATOM     25  C   UNL d   1      27.446 -10.415  -9.042  0.00  0.00     0.000 A 
ATOM     26  C   UNL d   1      28.194 -11.443  -9.608  0.00  0.00     0.001 A 
ATOM     27  C   UNL d   1      28.493 -12.575  -8.855  0.00  0.00     0.009 A 
ENDBRANCH  20  22
ENDBRANCH  17  20
ENDBRANCH   1  16
BRANCH  15  28
ATOM     28  N   UNL d   1      25.562 -16.325  -3.169  0.00  0.00    -0.384 N 
ATOM     29  H   UNL d   1      25.356 -17.271  -2.921  0.00  0.00     0.157 HD
ATOM     30  H   UNL d   1      25.418 -16.139  -4.165  0.00  0.00     0.157 HD
ENDBRANCH  15  28
BRANCH  14  31
ATOM     31  C   UNL d   1      25.694 -16.435  -0.143  0.00  0.00     0.171 C 
BRANCH  31  32
ATOM     32  C   UNL d   1      24.466 -17.201  -0.647  0.00  0.00    -0.040 C 
ATOM     33  C   UNL d   1      23.281 -16.508  -0.985  0.00  0.00     0.010 C 
ATOM     34  C   UNL d   1      22.040 -17.167  -0.889  0.00  0.00     0.024 C 
ATOM     35  C   UNL d   1      21.991 -18.546  -0.692  0.00  0.00     0.034 C 
ATOM     36 CL   UNL d   1      20.479 -19.324  -0.433  0.00  0.00    -0.084 Cl
ATOM     37  C   UNL d   1      23.174 -19.277  -0.593  0.00  0.00     0.024 C 
ATOM     38  C   UNL d   1      24.405 -18.606  -0.518  0.00  0.00     0.010 C 
ENDBRANCH  31  32
ENDBRANCH  14  31
TORSDOF 6
ENDMDL
MODEL 5
REMARK VINA RESULT:    -8.833      1.240      2.236
REMARK INTER + INTRA:         -12.267
REMARK INTER:                 -10.622
REMARK INTRA:                  -1.644
REMARK CONF_INDEPENDENT:        1.790
REMARK UNBOUND:                -1.644
REMARK  6 active torsions:
REMARK  status: ('A' for Active; 'I' for Inactive)
REMARK    1  A    between atoms: C_2  and  N_3 
REMARK    2  A    between atoms: C_2  and  C_30 
REMARK       I    between atoms: N_3  and  C_4 
REMARK    3  A    between atoms: C_4  and  C_6 
REMARK    4  A    between atoms: N_19  and  C_20 
REMARK    5  A    between atoms: C_20  and  C_21 
REMARK    6  A    between atoms: C_28  and  N_29 
ROOT
ATOM      1  C   UNL d   1      27.343 -13.065   1.474  0.00  0.00     0.076 C 
ATOM      2  C   UNL d   1      27.161 -12.075   0.543  0.00  0.00     0.042 C 
ATOM      3  C   UNL d   1      27.206 -12.439  -0.791  0.00  0.00     0.080 A 
ATOM      4  C   UNL d   1      27.029 -11.405  -1.807  0.00  0.00     0.267 A 
ATOM      5  O   UNL d   1      26.874 -10.242  -1.420  0.00  0.00    -0.267 OA
ATOM      6  N   UNL d   1      27.032 -11.821  -3.122  0.00  0.00    -0.273 N 
ATOM      7  C   UNL d   1      26.845 -10.856  -4.109  0.00  0.00     0.102 A 
ATOM      8  C   UNL d   1      26.825 -11.167  -5.406  0.00  0.00     0.018 A 
ATOM      9  C   UNL d   1      27.003 -12.536  -5.808  0.00  0.00     0.005 A 
ATOM     10  C   UNL d   1      27.186 -13.503  -4.898  0.00  0.00     0.051 A 
ATOM     11  C   UNL d   1      27.208 -13.171  -3.441  0.00  0.00     0.139 A 
ATOM     12  N   UNL d   1      27.380 -14.118  -2.557  0.00  0.00    -0.212 NA
ATOM     13  C   UNL d   1      27.391 -13.766  -1.197  0.00  0.00     0.149 A 
ATOM     14  N   UNL d   1      27.598 -14.750  -0.253  0.00  0.00    -0.312 N 
ATOM     15  C   UNL d   1      27.659 -14.389   1.078  0.00  0.00     0.118 C 
ENDROOT
BRANCH   1  16
ATOM     16  C   UNL d   1      27.298 -12.738   2.921  0.00  0.00     0.256 C 
ATOM     17  N   UNL d   1      27.882 -11.556   3.303  0.00  0.00    -0.348 N 
ATOM     18  H   UNL d   1      28.401 -10.988   2.648  0.00  0.00     0.163 HD
ATOM     19  O   UNL d   1      26.662 -13.457   3.679  0.00  0.00    -0.268 OA
BRANCH  17  20
ATOM     20  C   UNL d   1      27.780 -11.072   4.682  0.00  0.00     0.114 C 
ATOM     21  C   UNL d   1      28.436  -9.689   4.856  0.00  0.00     0.037 C 
BRANCH  20  22
ATOM     22  C   UNL d   1      28.448 -12.027   5.659  0.00  0.00    -0.036 A 
ATOM     23  C   UNL d   1      29.242 -13.084   5.188  0.00  0.00     0.009 A 
ATOM     24  C   UNL d   1      29.599 -14.132   6.042  0.00  0.00     0.001 A 
ATOM     25  C   UNL d   1      29.280 -14.070   7.396  0.00  0.00     0.000 A 
ATOM     26  C   UNL d   1      28.620 -12.955   7.903  0.00  0.00     0.001 A 
ATOM     27  C   UNL d   1      28.157 -11.972   7.032  0.00  0.00     0.009 A 
ENDBRANCH  20  22
ENDBRANCH  17  20
ENDBRANCH   1  16
BRANCH  15  28
ATOM     28  N   UNL d   1      28.165 -15.203   2.072  0.00  0.00    -0.384 N 
ATOM     29  H   UNL d   1      27.985 -15.137   3.053  0.00  0.00     0.157 HD
ATOM     30  H   UNL d   1      28.991 -15.770   1.861  0.00  0.00     0.157 HD
ENDBRANCH  15  28
BRANCH  14  31
ATOM     31  C   UNL d   1      27.721 -16.197  -0.756  0.00  0.00     0.171 C 
BRANCH  31  32
ATOM     32  C   UNL d   1      26.418 -16.981  -0.939  0.00  0.00    -0.040 C 
ATOM     33  C   UNL d   1      25.368 -16.449  -1.722  0.00  0.00     0.010 C 
ATOM     34  C   UNL d   1      24.039 -16.827  -1.451  0.00  0.00     0.024 C 
ATOM     35  C   UNL d   1      23.774 -17.885  -0.584  0.00  0.00     0.034 C 
ATOM     36 CL   UNL d   1      22.150 -18.250  -0.146  0.00  0.00    -0.084 Cl
ATOM     37  C   UNL d   1      24.827 -18.574   0.016  0.00  0.00     0.024 C 
ATOM     38  C   UNL d   1      26.140 -18.095  -0.118  0.00  0.00     0.010 C 
ENDBRANCH  31  32
ENDBRANCH  14  31
TORSDOF 6
ENDMDL
MODEL 6
REMARK VINA RESULT:    -8.735      1.907      7.641
REMARK INTER + INTRA:         -11.872
REMARK INTER:                 -10.525
REMARK INTRA:                  -1.347
REMARK CONF_INDEPENDENT:        1.790
REMARK UNBOUND:                -1.347
REMARK  6 active torsions:
REMARK  status: ('A' for Active; 'I' for Inactive)
REMARK    1  A    between atoms: C_2  and  N_3 
REMARK    2  A    between atoms: C_2  and  C_30 
REMARK       I    between atoms: N_3  and  C_4 
REMARK    3  A    between atoms: C_4  and  C_6 
REMARK    4  A    between atoms: N_19  and  C_20 
REMARK    5  A    between atoms: C_20  and  C_21 
REMARK    6  A    between atoms: C_28  and  N_29 
ROOT
ATOM      1  C   UNL d   1      26.252 -12.851  -2.912  0.00  0.00     0.076 C 
ATOM      2  C   UNL d   1      26.705 -12.117  -1.846  0.00  0.00     0.042 C 
ATOM      3  C   UNL d   1      26.929 -12.791  -0.659  0.00  0.00     0.080 A 
ATOM      4  C   UNL d   1      27.399 -12.035   0.499  0.00  0.00     0.267 A 
ATOM      5  O   UNL d   1      27.547 -10.815   0.366  0.00  0.00    -0.267 OA
ATOM      6  N   UNL d   1      27.657 -12.755   1.647  0.00  0.00    -0.273 N 
ATOM      7  C   UNL d   1      28.125 -12.059   2.759  0.00  0.00     0.102 A 
ATOM      8  C   UNL d   1      28.409 -12.674   3.909  0.00  0.00     0.018 A 
ATOM      9  C   UNL d   1      28.227 -14.096   4.015  0.00  0.00     0.005 A 
ATOM     10  C   UNL d   1      27.780 -14.812   2.973  0.00  0.00     0.051 A 
ATOM     11  C   UNL d   1      27.461 -14.139   1.678  0.00  0.00     0.139 A 
ATOM     12  N   UNL d   1      27.031 -14.842   0.664  0.00  0.00    -0.212 NA
ATOM     13  C   UNL d   1      26.745 -14.174  -0.538  0.00  0.00     0.149 A 
ATOM     14  N   UNL d   1      26.265 -14.898  -1.610  0.00  0.00    -0.312 N 
ATOM     15  C   UNL d   1      25.938 -14.226  -2.770  0.00  0.00     0.118 C 
ENDROOT
BRANCH   1  16
ATOM     16  C   UNL d   1      25.999 -12.186  -4.215  0.00  0.00     0.256 C 
ATOM     17  N   UNL d   1      26.711 -11.041  -4.469  0.00  0.00    -0.348 N 
ATOM     18  H   UNL d   1      27.302 -10.620  -3.766  0.00  0.00     0.163 HD
ATOM     19  O   UNL d   1      25.272 -12.730  -5.035  0.00  0.00    -0.268 OA
BRANCH  17  20
ATOM     20  C   UNL d   1      26.640 -10.379  -5.774  0.00  0.00     0.114 C 
ATOM     21  C   UNL d   1      25.195  -9.991  -6.144  0.00  0.00     0.037 C 
BRANCH  20  22
ATOM     22  C   UNL d   1      27.176 -11.272  -6.882  0.00  0.00    -0.036 A 
ATOM     23  C   UNL d   1      28.177 -12.217  -6.610  0.00  0.00     0.009 A 
ATOM     24  C   UNL d   1      28.885 -12.814  -7.656  0.00  0.00     0.001 A 
ATOM     25  C   UNL d   1      28.517 -12.574  -8.978  0.00  0.00     0.000 A 
ATOM     26  C   UNL d   1      27.429 -11.751  -9.255  0.00  0.00     0.001 A 
ATOM     27  C   UNL d   1      26.804 -11.060  -8.220  0.00  0.00     0.009 A 
ENDBRANCH  20  22
ENDBRANCH  17  20
ENDBRANCH   1  16
BRANCH  15  28
ATOM     28  N   UNL d   1      25.169 -14.769  -3.780  0.00  0.00    -0.384 N 
ATOM     29  H   UNL d   1      24.336 -14.383  -4.176  0.00  0.00     0.157 HD
ATOM     30  H   UNL d   1      25.279 -15.765  -3.992  0.00  0.00     0.157 HD
ENDBRANCH  15  28
BRANCH  14  31
ATOM     31  C   UNL d   1      26.154 -16.421  -1.439  0.00  0.00     0.171 C 
BRANCH  31  32
ATOM     32  C   UNL d   1      24.867 -16.956  -0.803  0.00  0.00    -0.040 C 
ATOM     33  C   UNL d   1      24.843 -18.241  -0.212  0.00  0.00     0.010 C 
ATOM     34  C   UNL d   1      23.631 -18.956  -0.153  0.00  0.00     0.024 C 
ATOM     35  C   UNL d   1      22.428 -18.322  -0.457  0.00  0.00     0.034 C 
ATOM     36 CL   UNL d   1      20.970 -19.233  -0.522  0.00  0.00    -0.084 Cl
ATOM     37  C   UNL d   1      22.422 -16.975  -0.816  0.00  0.00     0.024 C 
ATOM     38  C   UNL d   1      23.636 -16.307  -1.039  0.00  0.00     0.010 C 
ENDBRANCH  31  32
ENDBRANCH  14  31
TORSDOF 6
ENDMDL
MODEL 7
REMARK VINA RESULT:    -8.570      3.499      9.161
REMARK INTER + INTRA:         -12.014
REMARK INTER:                 -10.360
REMARK INTRA:                  -1.654
REMARK CONF_INDEPENDENT:        1.790
REMARK UNBOUND:                -1.654
REMARK  6 active torsions:
REMARK  status: ('A' for Active; 'I' for Inactive)
REMARK    1  A    between atoms: C_2  and  N_3 
REMARK    2  A    between atoms: C_2  and  C_30 
REMARK       I    between atoms: N_3  and  C_4 
REMARK    3  A    between atoms: C_4  and  C_6 
REMARK    4  A    between atoms: N_19  and  C_20 
REMARK    5  A    between atoms: C_20  and  C_21 
REMARK    6  A    between atoms: C_28  and  N_29 
ROOT
ATOM      1  C   UNL d   1      27.890 -13.378   2.712  0.00  0.00     0.076 C 
ATOM      2  C   UNL d   1      28.081 -14.168   3.816  0.00  0.00     0.042 C 
ATOM      3  C   UNL d   1      28.313 -13.532   5.022  0.00  0.00     0.080 A 
ATOM      4  C   UNL d   1      28.534 -14.347   6.214  0.00  0.00     0.267 A 
ATOM      5  O   UNL d   1      28.529 -15.575   6.078  0.00  0.00    -0.267 OA
ATOM      6  N   UNL d   1      28.713 -13.671   7.402  0.00  0.00    -0.273 N 
ATOM      7  C   UNL d   1      28.905 -14.426   8.557  0.00  0.00     0.102 A 
ATOM      8  C   UNL d   1      29.078 -13.858   9.752  0.00  0.00     0.018 A 
ATOM      9  C   UNL d   1      29.070 -12.425   9.863  0.00  0.00     0.005 A 
ATOM     10  C   UNL d   1      28.888 -11.652   8.782  0.00  0.00     0.051 A 
ATOM     11  C   UNL d   1      28.690 -12.273   7.437  0.00  0.00     0.139 A 
ATOM     12  N   UNL d   1      28.507 -11.516   6.388  0.00  0.00    -0.212 NA
ATOM     13  C   UNL d   1      28.320 -12.137   5.142  0.00  0.00     0.149 A 
ATOM     14  N   UNL d   1      28.152 -11.351   4.020  0.00  0.00    -0.312 N 
ATOM     15  C   UNL d   1      28.022 -11.968   2.793  0.00  0.00     0.118 C 
ENDROOT
BRANCH   1  16
ATOM     16  C   UNL d   1      27.628 -14.001   1.390  0.00  0.00     0.256 C 
ATOM     17  N   UNL d   1      28.258 -15.194   1.138  0.00  0.00    -0.348 N 
ATOM     18  H   UNL d   1      28.940 -15.576   1.779  0.00  0.00     0.163 HD
ATOM     19  O   UNL d   1      26.798 -13.500   0.645  0.00  0.00    -0.268 OA
BRANCH  17  20
ATOM     20  C   UNL d   1      27.969 -15.961  -0.077  0.00  0.00     0.114 C 
ATOM     21  C   UNL d   1      28.211 -15.130  -1.352  0.00  0.00     0.037 C 
BRANCH  20  22
ATOM     22  C   UNL d   1      26.526 -16.439  -0.103  0.00  0.00    -0.036 A 
ATOM     23  C   UNL d   1      26.163 -17.635   0.536  0.00  0.00     0.009 A 
ATOM     24  C   UNL d   1      24.930 -18.234   0.261  0.00  0.00     0.001 A 
ATOM     25  C   UNL d   1      24.001 -17.583  -0.547  0.00  0.00     0.000 A 
ATOM     26  C   UNL d   1      24.294 -16.327  -1.068  0.00  0.00     0.001 A 
ATOM     27  C   UNL d   1      25.567 -15.788  -0.896  0.00  0.00     0.009 A 
ENDBRANCH  20  22
ENDBRANCH  17  20
ENDBRANCH   1  16
BRANCH  15  28
ATOM     28  N   UNL d   1      28.163 -11.313   1.586  0.00  0.00    -0.384 N 
ATOM     29  H   UNL d   1      28.735 -10.515   1.398  0.00  0.00     0.157 HD
ATOM     30  H   UNL d   1      27.452 -11.465   0.865  0.00  0.00     0.157 HD
ENDBRANCH  15  28
BRANCH  14  31
ATOM     31  C   UNL d   1      28.096  -9.829   4.227  0.00  0.00     0.171 C 
BRANCH  31  32
ATOM     32  C   UNL d   1      27.138  -9.042   3.327  0.00  0.00    -0.040 C 
ATOM     33  C   UNL d   1      25.899  -9.602   2.939  0.00  0.00     0.010 C 
ATOM     34  C   UNL d   1      25.301  -9.198   1.731  0.00  0.00     0.024 C 
ATOM     35  C   UNL d   1      25.797  -8.095   1.038  0.00  0.00     0.034 C 
ATOM     36 CL   UNL d   1      25.156  -7.692  -0.507  0.00  0.00    -0.084 Cl
ATOM     37  C   UNL d   1      26.886  -7.387   1.544  0.00  0.00     0.024 C 
ATOM     38  C   UNL d   1      27.588  -7.885   2.653  0.00  0.00     0.010 C 
ENDBRANCH  31  32
ENDBRANCH  14  31
TORSDOF 6
ENDMDL
MODEL 8
REMARK VINA RESULT:    -8.498      4.443      7.413
REMARK INTER + INTRA:         -11.814
REMARK INTER:                 -10.288
REMARK INTRA:                  -1.526
REMARK CONF_INDEPENDENT:        1.790
REMARK UNBOUND:                -1.526
REMARK  6 active torsions:
REMARK  status: ('A' for Active; 'I' for Inactive)
REMARK    1  A    between atoms: C_2  and  N_3 
REMARK    2  A    between atoms: C_2  and  C_30 
REMARK       I    between atoms: N_3  and  C_4 
REMARK    3  A    between atoms: C_4  and  C_6 
REMARK    4  A    between atoms: N_19  and  C_20 
REMARK    5  A    between atoms: C_20  and  C_21 
REMARK    6  A    between atoms: C_28  and  N_29 
ROOT
ATOM      1  C   UNL d   1      26.909 -13.812  -4.217  0.00  0.00     0.076 C 
ATOM      2  C   UNL d   1      27.723 -14.373  -5.167  0.00  0.00     0.042 C 
ATOM      3  C   UNL d   1      28.524 -15.431  -4.775  0.00  0.00     0.080 A 
ATOM      4  C   UNL d   1      29.412 -16.041  -5.760  0.00  0.00     0.267 A 
ATOM      5  O   UNL d   1      29.424 -15.559  -6.897  0.00  0.00    -0.267 OA
ATOM      6  N   UNL d   1      30.155 -17.124  -5.337  0.00  0.00    -0.273 N 
ATOM      7  C   UNL d   1      30.995 -17.736  -6.264  0.00  0.00     0.102 A 
ATOM      8  C   UNL d   1      31.745 -18.794  -5.948  0.00  0.00     0.018 A 
ATOM      9  C   UNL d   1      31.693 -19.324  -4.613  0.00  0.00     0.005 A 
ATOM     10  C   UNL d   1      30.900 -18.772  -3.683  0.00  0.00     0.051 A 
ATOM     11  C   UNL d   1      30.052 -17.589  -4.023  0.00  0.00     0.139 A 
ATOM     12  N   UNL d   1      29.277 -17.058  -3.115  0.00  0.00    -0.212 NA
ATOM     13  C   UNL d   1      28.492 -15.949  -3.474  0.00  0.00     0.149 A 
ATOM     14  N   UNL d   1      27.688 -15.361  -2.520  0.00  0.00    -0.312 N 
ATOM     15  C   UNL d   1      26.960 -14.240  -2.867  0.00  0.00     0.118 C 
ENDROOT
BRANCH   1  16
ATOM     16  C   UNL d   1      26.021 -12.678  -4.578  0.00  0.00     0.256 C 
ATOM     17  N   UNL d   1      26.513 -11.778  -5.490  0.00  0.00    -0.348 N 
ATOM     18  H   UNL d   1      27.466 -11.831  -5.822  0.00  0.00     0.163 HD
ATOM     19  O   UNL d   1      24.876 -12.652  -4.149  0.00  0.00    -0.268 OA
BRANCH  17  20
ATOM     20  C   UNL d   1      25.674 -10.699  -6.017  0.00  0.00     0.114 C 
ATOM     21  C   UNL d   1      26.280 -10.066  -7.284  0.00  0.00     0.037 C 
BRANCH  20  22
ATOM     22  C   UNL d   1      25.483  -9.591  -4.993  0.00  0.00    -0.036 A 
ATOM     23  C   UNL d   1      24.752  -8.439  -5.322  0.00  0.00     0.009 A 
ATOM     24  C   UNL d   1      24.831  -7.301  -4.515  0.00  0.00     0.001 A 
ATOM     25  C   UNL d   1      25.530  -7.344  -3.311  0.00  0.00     0.000 A 
ATOM     26  C   UNL d   1      26.136  -8.528  -2.903  0.00  0.00     0.001 A 
ATOM     27  C   UNL d   1      26.163  -9.622  -3.764  0.00  0.00     0.009 A 
ENDBRANCH  20  22
ENDBRANCH  17  20
ENDBRANCH   1  16
BRANCH  15  28
ATOM     28  N   UNL d   1      26.379 -13.389  -1.948  0.00  0.00    -0.384 N 
ATOM     29  H   UNL d   1      25.596 -12.785  -2.099  0.00  0.00     0.157 HD
ATOM     30  H   UNL d   1      26.915 -13.136  -1.114  0.00  0.00     0.157 HD
ENDBRANCH  15  28
BRANCH  14  31
ATOM     31  C   UNL d   1      27.641 -16.020  -1.132  0.00  0.00     0.171 C 
BRANCH  31  32
ATOM     32  C   UNL d   1      26.287 -16.566  -0.669  0.00  0.00    -0.040 C 
ATOM     33  C   UNL d   1      26.202 -17.836  -0.052  0.00  0.00     0.010 C 
ATOM     34  C   UNL d   1      25.008 -18.575  -0.144  0.00  0.00     0.024 C 
ATOM     35  C   UNL d   1      23.848 -17.975  -0.632  0.00  0.00     0.034 C 
ATOM     36 CL   UNL d   1      22.430 -18.919  -0.877  0.00  0.00    -0.084 Cl
ATOM     37  C   UNL d   1      23.869 -16.638  -1.027  0.00  0.00     0.024 C 
ATOM     38  C   UNL d   1      25.090 -15.950  -1.095  0.00  0.00     0.010 C 
ENDBRANCH  31  32
ENDBRANCH  14  31
TORSDOF 6
ENDMDL
MODEL 9
REMARK VINA RESULT:    -8.163      4.114      9.490
REMARK INTER + INTRA:         -11.899
REMARK INTER:                  -9.953
REMARK INTRA:                  -1.947
REMARK CONF_INDEPENDENT:        1.790
REMARK UNBOUND:                -1.947
REMARK  6 active torsions:
REMARK  status: ('A' for Active; 'I' for Inactive)
REMARK    1  A    between atoms: C_2  and  N_3 
REMARK    2  A    between atoms: C_2  and  C_30 
REMARK       I    between atoms: N_3  and  C_4 
REMARK    3  A    between atoms: C_4  and  C_6 
REMARK    4  A    between atoms: N_19  and  C_20 
REMARK    5  A    between atoms: C_20  and  C_21 
REMARK    6  A    between atoms: C_28  and  N_29 
ROOT
ATOM      1  C   UNL d   1      27.493 -13.959   2.026  0.00  0.00     0.076 C 
ATOM      2  C   UNL d   1      27.973 -14.551   3.165  0.00  0.00     0.042 C 
ATOM      3  C   UNL d   1      28.130 -13.750   4.282  0.00  0.00     0.080 A 
ATOM      4  C   UNL d   1      28.651 -14.348   5.508  0.00  0.00     0.267 A 
ATOM      5  O   UNL d   1      28.955 -15.545   5.477  0.00  0.00    -0.267 OA
ATOM      6  N   UNL d   1      28.744 -13.523   6.609  0.00  0.00    -0.273 N 
ATOM      7  C   UNL d   1      29.219 -14.075   7.796  0.00  0.00     0.102 A 
ATOM      8  C   UNL d   1      29.335 -13.355   8.914  0.00  0.00     0.018 A 
ATOM      9  C   UNL d   1      28.964 -11.967   8.903  0.00  0.00     0.005 A 
ATOM     10  C   UNL d   1      28.499 -11.387   7.787  0.00  0.00     0.051 A 
ATOM     11  C   UNL d   1      28.360 -12.181   6.528  0.00  0.00     0.139 A 
ATOM     12  N   UNL d   1      27.902 -11.612   5.444  0.00  0.00    -0.212 NA
ATOM     13  C   UNL d   1      27.783 -12.393   4.282  0.00  0.00     0.149 A 
ATOM     14  N   UNL d   1      27.325 -11.802   3.123  0.00  0.00    -0.312 N 
ATOM     15  C   UNL d   1      27.260 -12.562   1.972  0.00  0.00     0.118 C 
ENDROOT
BRANCH   1  16
ATOM     16  C   UNL d   1      27.296 -14.768   0.797  0.00  0.00     0.256 C 
ATOM     17  N   UNL d   1      28.045 -15.914   0.689  0.00  0.00    -0.348 N 
ATOM     18  H   UNL d   1      28.762 -16.141   1.363  0.00  0.00     0.163 HD
ATOM     19  O   UNL d   1      26.419 -14.453   0.005  0.00  0.00    -0.268 OA
BRANCH  17  20
ATOM     20  C   UNL d   1      27.835 -16.854  -0.415  0.00  0.00     0.114 C 
ATOM     21  C   UNL d   1      28.280 -16.262  -1.767  0.00  0.00     0.037 C 
BRANCH  20  22
ATOM     22  C   UNL d   1      26.371 -17.247  -0.542  0.00  0.00    -0.036 A 
ATOM     23  C   UNL d   1      25.586 -16.732  -1.585  0.00  0.00     0.009 A 
ATOM     24  C   UNL d   1      24.193 -16.835  -1.533  0.00  0.00     0.001 A 
ATOM     25  C   UNL d   1      23.581 -17.562  -0.515  0.00  0.00     0.000 A 
ATOM     26  C   UNL d   1      24.361 -18.201   0.444  0.00  0.00     0.001 A 
ATOM     27  C   UNL d   1      25.738 -17.995   0.464  0.00  0.00     0.009 A 
ENDBRANCH  20  22
ENDBRANCH  17  20
ENDBRANCH   1  16
BRANCH  15  28
ATOM     28  N   UNL d   1      27.127 -12.027   0.706  0.00  0.00    -0.384 N 
ATOM     29  H   UNL d   1      26.551 -12.371  -0.034  0.00  0.00     0.157 HD
ATOM     30  H   UNL d   1      27.848 -11.380   0.375  0.00  0.00     0.157 HD
ENDBRANCH  15  28
BRANCH  14  31
ATOM     31  C   UNL d   1      26.891 -10.329   3.205  0.00  0.00     0.171 C 
BRANCH  31  32
ATOM     32  C   UNL d   1      27.897  -9.342   3.805  0.00  0.00    -0.040 C 
ATOM     33  C   UNL d   1      29.287  -9.563   3.663  0.00  0.00     0.010 C 
ATOM     34  C   UNL d   1      30.173  -9.049   4.628  0.00  0.00     0.024 C 
ATOM     35  C   UNL d   1      29.721  -8.138   5.582  0.00  0.00     0.034 C 
ATOM     36 CL   UNL d   1      30.772  -7.623   6.843  0.00  0.00    -0.084 Cl
ATOM     37  C   UNL d   1      28.388  -7.732   5.578  0.00  0.00     0.024 C 
ATOM     38  C   UNL d   1      27.467  -8.366   4.730  0.00  0.00     0.010 C 
ENDBRANCH  31  32
ENDBRANCH  14  31
TORSDOF 6
ENDMDL
