MODEL 1
REMARK VINA RESULT:    -8.961      0.000      0.000
REMARK INTER + INTRA:         -12.026
REMARK INTER:                 -10.452
REMARK INTRA:                  -1.574
REMARK CONF_INDEPENDENT:        1.492
REMARK UNBOUND:                -1.574
REMARK  5 active torsions:
REMARK  status: ('A' for Active; 'I' for Inactive)
REMARK       I    between atoms: C_2  and  N_3 
REMARK    1  A    between atoms: C_2  and  C_17 
REMARK    2  A    between atoms: N_3  and  N_4 
REMARK       I    between atoms: N_4  and  C_5 
REMARK    3  A    between atoms: C_7  and  C_5 
REMARK    4  A    between atoms: C_9  and  C_10 
REMARK    5  A    between atoms: C_22  and  O_23 
ROOT
ATOM      1  N   UNL d   1      23.544 -17.786  -0.392  0.00  0.00    -0.267 N 
ATOM      2  C   UNL d   1      24.821 -17.647   0.156  0.00  0.00     0.240 C 
ATOM      3  O   UNL d   1      25.215 -18.269   1.142  0.00  0.00    -0.271 OA
ATOM      4  H   UNL d   1      23.236 -17.268  -1.215  0.00  0.00     0.190 HD
ENDROOT
BRANCH   1   5
ATOM      5  N   UNL d   1      22.550 -18.626   0.198  0.00  0.00    -0.263 N 
ATOM      6  C   UNL d   1      21.237 -18.578  -0.287  0.00  0.00     0.272 C 
ATOM      7  O   UNL d   1      20.894 -17.803  -1.179  0.00  0.00    -0.266 OA
ATOM      8  H   UNL d   1      22.864 -19.282   0.907  0.00  0.00     0.190 HD
BRANCH   6   9
ATOM      9  C   UNL d   1      20.233 -19.477   0.379  0.00  0.00     0.066 A 
ATOM     10  C   UNL d   1      20.315 -19.681   1.765  0.00  0.00     0.020 A 
ATOM     11  C   UNL d   1      19.353 -20.450   2.436  0.00  0.00     0.001 A 
ATOM     12  C   UNL d   1      18.298 -21.029   1.732  0.00  0.00     0.003 A 
ATOM     13  C   UNL d   1      18.196 -20.834   0.354  0.00  0.00     0.037 A 
ATOM     14  C   UNL d   1      19.154 -20.055  -0.318  0.00  0.00     0.081 A 
BRANCH  14  15
ATOM     15  O   UNL d   1      19.043 -19.889  -1.671  0.00  0.00    -0.360 OA
ATOM     16  H   UNL d   1      18.911 -18.951  -1.885  0.00  0.00     0.217 HD
ENDBRANCH  14  15
ENDBRANCH   6   9
ENDBRANCH   1   5
BRANCH   2  17
ATOM     17  C   UNL d   1      25.692 -16.634  -0.548  0.00  0.00     0.088 A 
ATOM     18  C   UNL d   1      27.142 -16.864  -0.931  0.00  0.00     0.025 A 
ATOM     19  C   UNL d   1      26.110 -16.729  -2.021  0.00  0.00     0.032 A 
BRANCH  19  20
ATOM     20  C   UNL d   1      25.964 -15.468  -2.872  0.00  0.00    -0.050 A 
ATOM     21  C   UNL d   1      24.779 -14.703  -2.921  0.00  0.00     0.007 A 
ATOM     22  C   UNL d   1      24.624 -13.624  -3.800  0.00  0.00     0.004 A 
ATOM     23  C   UNL d   1      25.666 -13.266  -4.646  0.00  0.00     0.042 A 
ATOM     24  C   UNL d   1      26.860 -13.969  -4.578  0.00  0.00     0.116 A 
ATOM     25  F   UNL d   1      27.874 -13.617  -5.381  0.00  0.00    -0.206 F 
ATOM     26  C   UNL d   1      27.017 -15.044  -3.704  0.00  0.00     0.049 A 
ENDBRANCH  19  20
ENDBRANCH   2  17
TORSDOF 5
ENDMDL
MODEL 2
REMARK VINA RESULT:    -8.900      0.880      1.430
REMARK INTER + INTRA:         -11.855
REMARK INTER:                 -10.391
REMARK INTRA:                  -1.463
REMARK CONF_INDEPENDENT:        1.492
REMARK UNBOUND:                -1.463
REMARK  5 active torsions:
REMARK  status: ('A' for Active; 'I' for Inactive)
REMARK       I    between atoms: C_2  and  N_3 
REMARK    1  A    between atoms: C_2  and  C_17 
REMARK    2  A    between atoms: N_3  and  N_4 
REMARK       I    between atoms: N_4  and  C_5 
REMARK    3  A    between atoms: C_7  and  C_5 
REMARK    4  A    between atoms: C_9  and  C_10 
REMARK    5  A    between atoms: C_22  and  O_23 
ROOT
ATOM      1  N   UNL d   1      23.342 -17.892  -0.449  0.00  0.00    -0.267 N 
ATOM      2  C   UNL d   1      24.562 -17.684   0.197  0.00  0.00     0.240 C 
ATOM      3  O   UNL d   1      24.866 -18.204   1.270  0.00  0.00    -0.271 OA
ATOM      4  H   UNL d   1      23.109 -17.459  -1.343  0.00  0.00     0.190 HD
ENDROOT
BRANCH   1   5
ATOM      5  N   UNL d   1      22.302 -18.686   0.124  0.00  0.00    -0.263 N 
ATOM      6  C   UNL d   1      20.999 -18.574  -0.377  0.00  0.00     0.272 C 
ATOM      7  O   UNL d   1      20.705 -17.781  -1.270  0.00  0.00    -0.266 OA
ATOM      8  H   UNL d   1      22.575 -19.358   0.836  0.00  0.00     0.190 HD
BRANCH   6   9
ATOM      9  C   UNL d   1      19.945 -19.427   0.273  0.00  0.00     0.066 A 
ATOM     10  C   UNL d   1      18.999 -20.074  -0.536  0.00  0.00     0.020 A 
ATOM     11  C   UNL d   1      18.047 -20.939   0.024  0.00  0.00     0.001 A 
ATOM     12  C   UNL d   1      18.025 -21.166   1.399  0.00  0.00     0.003 A 
ATOM     13  C   UNL d   1      18.961 -20.536   2.220  0.00  0.00     0.037 A 
ATOM     14  C   UNL d   1      19.922 -19.676   1.658  0.00  0.00     0.081 A 
BRANCH  14  15
ATOM     15  O   UNL d   1      20.820 -19.057   2.484  0.00  0.00    -0.360 OA
ATOM     16  H   UNL d   1      21.454 -19.704   2.835  0.00  0.00     0.217 HD
ENDBRANCH  14  15
ENDBRANCH   6   9
ENDBRANCH   1   5
BRANCH   2  17
ATOM     17  C   UNL d   1      25.490 -16.731  -0.518  0.00  0.00     0.088 A 
ATOM     18  C   UNL d   1      26.925 -17.048  -0.896  0.00  0.00     0.025 A 
ATOM     19  C   UNL d   1      25.903 -16.868  -1.990  0.00  0.00     0.032 A 
BRANCH  19  20
ATOM     20  C   UNL d   1      25.829 -15.611  -2.856  0.00  0.00    -0.050 A 
ATOM     21  C   UNL d   1      24.827 -14.628  -2.708  0.00  0.00     0.007 A 
ATOM     22  C   UNL d   1      24.705 -13.549  -3.590  0.00  0.00     0.004 A 
ATOM     23  C   UNL d   1      25.600 -13.411  -4.643  0.00  0.00     0.042 A 
ATOM     24  C   UNL d   1      26.627 -14.334  -4.778  0.00  0.00     0.116 A 
ATOM     25  F   UNL d   1      27.504 -14.196  -5.783  0.00  0.00    -0.206 F 
ATOM     26  C   UNL d   1      26.751 -15.410  -3.900  0.00  0.00     0.049 A 
ENDBRANCH  19  20
ENDBRANCH   2  17
TORSDOF 5
ENDMDL
MODEL 3
REMARK VINA RESULT:    -8.766      1.108      1.540
REMARK INTER + INTRA:         -11.412
REMARK INTER:                 -10.257
REMARK INTRA:                  -1.155
REMARK CONF_INDEPENDENT:        1.492
REMARK UNBOUND:                -1.155
REMARK  5 active torsions:
REMARK  status: ('A' for Active; 'I' for Inactive)
REMARK       I    between atoms: C_2  and  N_3 
REMARK    1  A    between atoms: C_2  and  C_17 
REMARK    2  A    between atoms: N_3  and  N_4 
REMARK       I    between atoms: N_4  and  C_5 
REMARK    3  A    between atoms: C_7  and  C_5 
REMARK    4  A    between atoms: C_9  and  C_10 
REMARK    5  A    between atoms: C_22  and  O_23 
ROOT
ATOM      1  N   UNL d   1      24.243 -17.753  -0.336  0.00  0.00    -0.267 N 
ATOM      2  C   UNL d   1      25.506 -17.791   0.256  0.00  0.00     0.240 C 
ATOM      3  O   UNL d   1      25.820 -18.574   1.152  0.00  0.00    -0.271 OA
ATOM      4  H   UNL d   1      24.002 -17.102  -1.084  0.00  0.00     0.190 HD
ENDROOT
BRANCH   1   5
ATOM      5  N   UNL d   1      23.171 -18.590   0.101  0.00  0.00    -0.263 N 
ATOM      6  C   UNL d   1      21.857 -18.261  -0.253  0.00  0.00     0.272 C 
ATOM      7  O   UNL d   1      21.584 -17.249  -0.895  0.00  0.00    -0.266 OA
ATOM      8  H   UNL d   1      23.424 -19.438   0.600  0.00  0.00     0.190 HD
BRANCH   6   9
ATOM      9  C   UNL d   1      20.770 -19.173   0.246  0.00  0.00     0.066 A 
ATOM     10  C   UNL d   1      20.589 -19.325   1.629  0.00  0.00     0.020 A 
ATOM     11  C   UNL d   1      19.539 -20.104   2.135  0.00  0.00     0.001 A 
ATOM     12  C   UNL d   1      18.657 -20.746   1.267  0.00  0.00     0.003 A 
ATOM     13  C   UNL d   1      18.817 -20.604  -0.112  0.00  0.00     0.037 A 
ATOM     14  C   UNL d   1      19.863 -19.814  -0.620  0.00  0.00     0.081 A 
BRANCH  14  15
ATOM     15  O   UNL d   1      20.010 -19.700  -1.975  0.00  0.00    -0.360 OA
ATOM     16  H   UNL d   1      19.148 -19.539  -2.394  0.00  0.00     0.217 HD
ENDBRANCH  14  15
ENDBRANCH   6   9
ENDBRANCH   1   5
BRANCH   2  17
ATOM     17  C   UNL d   1      26.473 -16.758  -0.273  0.00  0.00     0.088 A 
ATOM     18  C   UNL d   1      27.984 -16.882  -0.213  0.00  0.00     0.025 A 
ATOM     19  C   UNL d   1      27.299 -16.925  -1.555  0.00  0.00     0.032 A 
BRANCH  19  20
ATOM     20  C   UNL d   1      27.317 -15.750  -2.533  0.00  0.00    -0.050 A 
ATOM     21  C   UNL d   1      28.462 -14.959  -2.769  0.00  0.00     0.007 A 
ATOM     22  C   UNL d   1      28.424 -13.814  -3.573  0.00  0.00     0.004 A 
ATOM     23  C   UNL d   1      27.236 -13.436  -4.183  0.00  0.00     0.042 A 
ATOM     24  C   UNL d   1      26.109 -14.228  -4.011  0.00  0.00     0.116 A 
ATOM     25  F   UNL d   1      24.963 -13.876  -4.611  0.00  0.00    -0.206 F 
ATOM     26  C   UNL d   1      26.144 -15.369  -3.210  0.00  0.00     0.049 A 
ENDBRANCH  19  20
ENDBRANCH   2  17
TORSDOF 5
ENDMDL
MODEL 4
REMARK VINA RESULT:    -8.277      2.342      3.432
REMARK INTER + INTRA:         -10.700
REMARK INTER:                  -9.768
REMARK INTRA:                  -0.932
REMARK CONF_INDEPENDENT:        1.492
REMARK UNBOUND:                -0.932
REMARK  5 active torsions:
REMARK  status: ('A' for Active; 'I' for Inactive)
REMARK       I    between atoms: C_2  and  N_3 
REMARK    1  A    between atoms: C_2  and  C_17 
REMARK    2  A    between atoms: N_3  and  N_4 
REMARK       I    between atoms: N_4  and  C_5 
REMARK    3  A    between atoms: C_7  and  C_5 
REMARK    4  A    between atoms: C_9  and  C_10 
REMARK    5  A    between atoms: C_22  and  O_23 
ROOT
ATOM      1  N   UNL d   1      23.009 -17.960  -0.026  0.00  0.00    -0.267 N 
ATOM      2  C   UNL d   1      23.616 -18.209  -1.258  0.00  0.00     0.240 C 
ATOM      3  O   UNL d   1      23.258 -19.096  -2.032  0.00  0.00    -0.271 OA
ATOM      4  H   UNL d   1      23.312 -17.215   0.600  0.00  0.00     0.190 HD
ENDROOT
BRANCH   1   5
ATOM      5  N   UNL d   1      21.945 -18.771   0.476  0.00  0.00    -0.263 N 
ATOM      6  C   UNL d   1      20.743 -18.845  -0.239  0.00  0.00     0.272 C 
ATOM      7  O   UNL d   1      20.551 -18.200  -1.269  0.00  0.00    -0.266 OA
ATOM      8  H   UNL d   1      22.139 -19.321   1.308  0.00  0.00     0.190 HD
BRANCH   6   9
ATOM      9  C   UNL d   1      19.656 -19.706   0.344  0.00  0.00     0.066 A 
ATOM     10  C   UNL d   1      18.733 -20.315  -0.520  0.00  0.00     0.020 A 
ATOM     11  C   UNL d   1      17.753 -21.186  -0.024  0.00  0.00     0.001 A 
ATOM     12  C   UNL d   1      17.678 -21.458   1.341  0.00  0.00     0.003 A 
ATOM     13  C   UNL d   1      18.590 -20.867   2.216  0.00  0.00     0.037 A 
ATOM     14  C   UNL d   1      19.580 -20.001   1.718  0.00  0.00     0.081 A 
BRANCH  14  15
ATOM     15  O   UNL d   1      20.455 -19.421   2.595  0.00  0.00    -0.360 OA
ATOM     16  H   UNL d   1      21.354 -19.754   2.443  0.00  0.00     0.217 HD
ENDBRANCH  14  15
ENDBRANCH   6   9
ENDBRANCH   1   5
BRANCH   2  17
ATOM     17  C   UNL d   1      24.790 -17.310  -1.565  0.00  0.00     0.088 A 
ATOM     18  C   UNL d   1      24.673 -15.855  -1.983  0.00  0.00     0.025 A 
ATOM     19  C   UNL d   1      25.281 -16.185  -0.644  0.00  0.00     0.032 A 
BRANCH  19  20
ATOM     20  C   UNL d   1      26.784 -16.109  -0.374  0.00  0.00    -0.050 A 
ATOM     21  C   UNL d   1      27.417 -14.965   0.156  0.00  0.00     0.007 A 
ATOM     22  C   UNL d   1      28.808 -14.872   0.279  0.00  0.00     0.004 A 
ATOM     23  C   UNL d   1      29.609 -15.938  -0.109  0.00  0.00     0.042 A 
ATOM     24  C   UNL d   1      29.007 -17.095  -0.582  0.00  0.00     0.116 A 
ATOM     25  F   UNL d   1      29.776 -18.133  -0.942  0.00  0.00    -0.206 F 
ATOM     26  C   UNL d   1      27.622 -17.190  -0.706  0.00  0.00     0.049 A 
ENDBRANCH  19  20
ENDBRANCH   2  17
TORSDOF 5
ENDMDL
MODEL 5
REMARK VINA RESULT:    -8.261      2.821      3.244
REMARK INTER + INTRA:         -10.936
REMARK INTER:                  -9.753
REMARK INTRA:                  -1.184
REMARK CONF_INDEPENDENT:        1.492
REMARK UNBOUND:                -1.184
REMARK  5 active torsions:
REMARK  status: ('A' for Active; 'I' for Inactive)
REMARK       I    between atoms: C_2  and  N_3 
REMARK    1  A    between atoms: C_2  and  C_17 
REMARK    2  A    between atoms: N_3  and  N_4 
REMARK       I    between atoms: N_4  and  C_5 
REMARK    3  A    between atoms: C_7  and  C_5 
REMARK    4  A    between atoms: C_9  and  C_10 
REMARK    5  A    between atoms: C_22  and  O_23 
ROOT
ATOM      1  N   UNL d   1      24.234 -17.682  -0.335  0.00  0.00    -0.267 N 
ATOM      2  C   UNL d   1      25.517 -17.752   0.210  0.00  0.00     0.240 C 
ATOM      3  O   UNL d   1      25.858 -18.577   1.058  0.00  0.00    -0.271 OA
ATOM      4  H   UNL d   1      23.970 -16.997  -1.043  0.00  0.00     0.190 HD
ENDROOT
BRANCH   1   5
ATOM      5  N   UNL d   1      23.173 -18.533   0.103  0.00  0.00    -0.263 N 
ATOM      6  C   UNL d   1      21.860 -18.248  -0.289  0.00  0.00     0.272 C 
ATOM      7  O   UNL d   1      21.576 -17.261  -0.967  0.00  0.00    -0.266 OA
ATOM      8  H   UNL d   1      23.435 -19.360   0.632  0.00  0.00     0.190 HD
BRANCH   6   9
ATOM      9  C   UNL d   1      20.784 -19.173   0.211  0.00  0.00     0.066 A 
ATOM     10  C   UNL d   1      20.611 -19.330   1.594  0.00  0.00     0.020 A 
ATOM     11  C   UNL d   1      19.571 -20.123   2.102  0.00  0.00     0.001 A 
ATOM     12  C   UNL d   1      18.693 -20.771   1.236  0.00  0.00     0.003 A 
ATOM     13  C   UNL d   1      18.845 -20.623  -0.143  0.00  0.00     0.037 A 
ATOM     14  C   UNL d   1      19.881 -19.820  -0.653  0.00  0.00     0.081 A 
BRANCH  14  15
ATOM     15  O   UNL d   1      20.021 -19.701  -2.009  0.00  0.00    -0.360 OA
ATOM     16  H   UNL d   1      19.148 -19.666  -2.435  0.00  0.00     0.217 HD
ENDBRANCH  14  15
ENDBRANCH   6   9
ENDBRANCH   1   5
BRANCH   2  17
ATOM     17  C   UNL d   1      26.470 -16.701  -0.307  0.00  0.00     0.088 A 
ATOM     18  C   UNL d   1      26.589 -16.286  -1.762  0.00  0.00     0.025 A 
ATOM     19  C   UNL d   1      26.045 -15.298  -0.762  0.00  0.00     0.032 A 
BRANCH  19  20
ATOM     20  C   UNL d   1      26.860 -14.116  -0.237  0.00  0.00    -0.050 A 
ATOM     21  C   UNL d   1      27.901 -13.509  -0.972  0.00  0.00     0.007 A 
ATOM     22  C   UNL d   1      28.715 -12.511  -0.425  0.00  0.00     0.004 A 
ATOM     23  C   UNL d   1      28.496 -12.075   0.875  0.00  0.00     0.042 A 
ATOM     24  C   UNL d   1      27.445 -12.617   1.599  0.00  0.00     0.116 A 
ATOM     25  F   UNL d   1      27.219 -12.188   2.849  0.00  0.00    -0.206 F 
ATOM     26  C   UNL d   1      26.632 -13.612   1.057  0.00  0.00     0.049 A 
ENDBRANCH  19  20
ENDBRANCH   2  17
TORSDOF 5
ENDMDL
MODEL 6
REMARK VINA RESULT:    -7.828      2.096      2.677
REMARK INTER + INTRA:         -10.859
REMARK INTER:                  -9.320
REMARK INTRA:                  -1.539
REMARK CONF_INDEPENDENT:        1.492
REMARK UNBOUND:                -1.539
REMARK  5 active torsions:
REMARK  status: ('A' for Active; 'I' for Inactive)
REMARK       I    between atoms: C_2  and  N_3 
REMARK    1  A    between atoms: C_2  and  C_17 
REMARK    2  A    between atoms: N_3  and  N_4 
REMARK       I    between atoms: N_4  and  C_5 
REMARK    3  A    between atoms: C_7  and  C_5 
REMARK    4  A    between atoms: C_9  and  C_10 
REMARK    5  A    between atoms: C_22  and  O_23 
ROOT
ATOM      1  N   UNL d   1      23.387 -17.977  -0.543  0.00  0.00    -0.267 N 
ATOM      2  C   UNL d   1      24.682 -17.932  -0.024  0.00  0.00     0.240 C 
ATOM      3  O   UNL d   1      25.049 -18.575   0.959  0.00  0.00    -0.271 OA
ATOM      4  H   UNL d   1      23.102 -17.444  -1.365  0.00  0.00     0.190 HD
ENDROOT
BRANCH   1   5
ATOM      5  N   UNL d   1      22.345 -18.734   0.074  0.00  0.00    -0.263 N 
ATOM      6  C   UNL d   1      21.034 -18.611  -0.403  0.00  0.00     0.272 C 
ATOM      7  O   UNL d   1      20.736 -17.839  -1.312  0.00  0.00    -0.266 OA
ATOM      8  H   UNL d   1      22.620 -19.390   0.799  0.00  0.00     0.190 HD
BRANCH   6   9
ATOM      9  C   UNL d   1      19.978 -19.424   0.294  0.00  0.00     0.066 A 
ATOM     10  C   UNL d   1      18.989 -20.057  -0.475  0.00  0.00     0.020 A 
ATOM     11  C   UNL d   1      18.032 -20.887   0.128  0.00  0.00     0.001 A 
ATOM     12  C   UNL d   1      18.048 -21.093   1.507  0.00  0.00     0.003 A 
ATOM     13  C   UNL d   1      19.026 -20.477   2.288  0.00  0.00     0.037 A 
ATOM     14  C   UNL d   1      19.992 -19.653   1.683  0.00  0.00     0.081 A 
BRANCH  14  15
ATOM     15  O   UNL d   1      20.932 -19.047   2.469  0.00  0.00    -0.360 OA
ATOM     16  H   UNL d   1      20.859 -18.081   2.398  0.00  0.00     0.217 HD
ENDBRANCH  14  15
ENDBRANCH   6   9
ENDBRANCH   1   5
BRANCH   2  17
ATOM     17  C   UNL d   1      25.613 -16.995  -0.756  0.00  0.00     0.088 A 
ATOM     18  C   UNL d   1      25.500 -16.644  -2.228  0.00  0.00     0.025 A 
ATOM     19  C   UNL d   1      25.236 -15.575  -1.199  0.00  0.00     0.032 A 
BRANCH  19  20
ATOM     20  C   UNL d   1      26.234 -14.458  -0.889  0.00  0.00    -0.050 A 
ATOM     21  C   UNL d   1      27.036 -14.439   0.271  0.00  0.00     0.007 A 
ATOM     22  C   UNL d   1      27.851 -13.349   0.596  0.00  0.00     0.004 A 
ATOM     23  C   UNL d   1      27.901 -12.247  -0.248  0.00  0.00     0.042 A 
ATOM     24  C   UNL d   1      27.164 -12.265  -1.423  0.00  0.00     0.116 A 
ATOM     25  F   UNL d   1      27.222 -11.211  -2.250  0.00  0.00    -0.206 F 
ATOM     26  C   UNL d   1      26.351 -13.350  -1.749  0.00  0.00     0.049 A 
ENDBRANCH  19  20
ENDBRANCH   2  17
TORSDOF 5
ENDMDL
MODEL 7
REMARK VINA RESULT:    -7.511      3.923      9.133
REMARK INTER + INTRA:         -10.317
REMARK INTER:                  -9.002
REMARK INTRA:                  -1.314
REMARK CONF_INDEPENDENT:        1.492
REMARK UNBOUND:                -1.314
REMARK  5 active torsions:
REMARK  status: ('A' for Active; 'I' for Inactive)
REMARK       I    between atoms: C_2  and  N_3 
REMARK    1  A    between atoms: C_2  and  C_17 
REMARK    2  A    between atoms: N_3  and  N_4 
REMARK       I    between atoms: N_4  and  C_5 
REMARK    3  A    between atoms: C_7  and  C_5 
REMARK    4  A    between atoms: C_9  and  C_10 
REMARK    5  A    between atoms: C_22  and  O_23 
ROOT
ATOM      1  N   UNL d   1      24.955 -16.435  -2.723  0.00  0.00    -0.267 N 
ATOM      2  C   UNL d   1      24.588 -16.484  -1.377  0.00  0.00     0.240 C 
ATOM      3  O   UNL d   1      24.801 -15.575  -0.575  0.00  0.00    -0.271 OA
ATOM      4  H   UNL d   1      24.763 -17.194  -3.377  0.00  0.00     0.190 HD
ENDROOT
BRANCH   1   5
ATOM      5  N   UNL d   1      25.678 -15.334  -3.276  0.00  0.00    -0.263 N 
ATOM      6  C   UNL d   1      25.905 -15.288  -4.657  0.00  0.00     0.272 C 
ATOM      7  O   UNL d   1      25.539 -16.186  -5.413  0.00  0.00    -0.266 OA
ATOM      8  H   UNL d   1      25.939 -14.588  -2.638  0.00  0.00     0.190 HD
BRANCH   6   9
ATOM      9  C   UNL d   1      26.682 -14.110  -5.180  0.00  0.00     0.066 A 
ATOM     10  C   UNL d   1      27.756 -14.337  -6.053  0.00  0.00     0.020 A 
ATOM     11  C   UNL d   1      28.457 -13.264  -6.623  0.00  0.00     0.001 A 
ATOM     12  C   UNL d   1      28.097 -11.951  -6.326  0.00  0.00     0.003 A 
ATOM     13  C   UNL d   1      27.027 -11.704  -5.464  0.00  0.00     0.037 A 
ATOM     14  C   UNL d   1      26.318 -12.780  -4.900  0.00  0.00     0.081 A 
BRANCH  14  15
ATOM     15  O   UNL d   1      25.283 -12.515  -4.046  0.00  0.00    -0.360 OA
ATOM     16  H   UNL d   1      24.509 -12.200  -4.543  0.00  0.00     0.217 HD
ENDBRANCH  14  15
ENDBRANCH   6   9
ENDBRANCH   1   5
BRANCH   2  17
ATOM     17  C   UNL d   1      23.924 -17.775  -0.961  0.00  0.00     0.088 A 
ATOM     18  C   UNL d   1      24.365 -18.630   0.213  0.00  0.00     0.025 A 
ATOM     19  C   UNL d   1      23.034 -17.926   0.280  0.00  0.00     0.032 A 
BRANCH  19  20
ATOM     20  C   UNL d   1      21.702 -18.654   0.099  0.00  0.00    -0.050 A 
ATOM     21  C   UNL d   1      21.051 -18.777  -1.147  0.00  0.00     0.007 A 
ATOM     22  C   UNL d   1      19.775 -19.338  -1.270  0.00  0.00     0.004 A 
ATOM     23  C   UNL d   1      19.118 -19.814  -0.143  0.00  0.00     0.042 A 
ATOM     24  C   UNL d   1      19.759 -19.755   1.085  0.00  0.00     0.116 A 
ATOM     25  F   UNL d   1      19.135 -20.229   2.174  0.00  0.00    -0.206 F 
ATOM     26  C   UNL d   1      21.030 -19.196   1.211  0.00  0.00     0.049 A 
ENDBRANCH  19  20
ENDBRANCH   2  17
TORSDOF 5
ENDMDL
MODEL 8
REMARK VINA RESULT:    -7.470      3.861      9.029
REMARK INTER + INTRA:         -10.649
REMARK INTER:                  -8.961
REMARK INTRA:                  -1.688
REMARK CONF_INDEPENDENT:        1.492
REMARK UNBOUND:                -1.688
REMARK  5 active torsions:
REMARK  status: ('A' for Active; 'I' for Inactive)
REMARK       I    between atoms: C_2  and  N_3 
REMARK    1  A    between atoms: C_2  and  C_17 
REMARK    2  A    between atoms: N_3  and  N_4 
REMARK       I    between atoms: N_4  and  C_5 
REMARK    3  A    between atoms: C_7  and  C_5 
REMARK    4  A    between atoms: C_9  and  C_10 
REMARK    5  A    between atoms: C_22  and  O_23 
ROOT
ATOM      1  N   UNL d   1      24.701 -16.577  -1.439  0.00  0.00    -0.267 N 
ATOM      2  C   UNL d   1      24.292 -17.638  -0.628  0.00  0.00     0.240 C 
ATOM      3  O   UNL d   1      25.025 -18.570  -0.297  0.00  0.00    -0.271 OA
ATOM      4  H   UNL d   1      24.083 -15.808  -1.697  0.00  0.00     0.190 HD
ENDROOT
BRANCH   1   5
ATOM      5  N   UNL d   1      26.007 -16.519  -2.015  0.00  0.00    -0.263 N 
ATOM      6  C   UNL d   1      26.270 -15.582  -3.023  0.00  0.00     0.272 C 
ATOM      7  O   UNL d   1      25.402 -14.830  -3.462  0.00  0.00    -0.266 OA
ATOM      8  H   UNL d   1      26.715 -17.125  -1.612  0.00  0.00     0.190 HD
BRANCH   6   9
ATOM      9  C   UNL d   1      27.659 -15.574  -3.599  0.00  0.00     0.066 A 
ATOM     10  C   UNL d   1      28.750 -15.805  -2.747  0.00  0.00     0.020 A 
ATOM     11  C   UNL d   1      30.055 -15.883  -3.257  0.00  0.00     0.001 A 
ATOM     12  C   UNL d   1      30.287 -15.728  -4.622  0.00  0.00     0.003 A 
ATOM     13  C   UNL d   1      29.215 -15.504  -5.486  0.00  0.00     0.037 A 
ATOM     14  C   UNL d   1      27.906 -15.436  -4.977  0.00  0.00     0.081 A 
BRANCH  14  15
ATOM     15  O   UNL d   1      26.871 -15.200  -5.841  0.00  0.00    -0.360 OA
ATOM     16  H   UNL d   1      26.044 -15.071  -5.347  0.00  0.00     0.217 HD
ENDBRANCH  14  15
ENDBRANCH   6   9
ENDBRANCH   1   5
BRANCH   2  17
ATOM     17  C   UNL d   1      22.845 -17.572  -0.202  0.00  0.00     0.088 A 
ATOM     18  C   UNL d   1      21.780 -16.742  -0.895  0.00  0.00     0.025 A 
ATOM     19  C   UNL d   1      21.691 -18.245  -0.957  0.00  0.00     0.032 A 
BRANCH  19  20
ATOM     20  C   UNL d   1      20.690 -19.051  -0.129  0.00  0.00    -0.050 A 
ATOM     21  C   UNL d   1      20.866 -19.325   1.244  0.00  0.00     0.007 A 
ATOM     22  C   UNL d   1      20.003 -20.167   1.953  0.00  0.00     0.004 A 
ATOM     23  C   UNL d   1      18.918 -20.747   1.308  0.00  0.00     0.042 A 
ATOM     24  C   UNL d   1      18.691 -20.449  -0.028  0.00  0.00     0.116 A 
ATOM     25  F   UNL d   1      17.636 -20.994  -0.650  0.00  0.00    -0.206 F 
ATOM     26  C   UNL d   1      19.551 -19.611  -0.736  0.00  0.00     0.049 A 
ENDBRANCH  19  20
ENDBRANCH   2  17
TORSDOF 5
ENDMDL
MODEL 9
REMARK VINA RESULT:    -7.028      5.076      9.731
REMARK INTER + INTRA:         -10.238
REMARK INTER:                  -8.520
REMARK INTRA:                  -1.718
REMARK CONF_INDEPENDENT:        1.492
REMARK UNBOUND:                -1.718
REMARK  5 active torsions:
REMARK  status: ('A' for Active; 'I' for Inactive)
REMARK       I    between atoms: C_2  and  N_3 
REMARK    1  A    between atoms: C_2  and  C_17 
REMARK    2  A    between atoms: N_3  and  N_4 
REMARK       I    between atoms: N_4  and  C_5 
REMARK    3  A    between atoms: C_7  and  C_5 
REMARK    4  A    between atoms: C_9  and  C_10 
REMARK    5  A    between atoms: C_22  and  O_23 
ROOT
ATOM      1  N   UNL d   1      25.688 -12.986  -3.316  0.00  0.00    -0.267 N 
ATOM      2  C   UNL d   1      25.483 -14.258  -3.854  0.00  0.00     0.240 C 
ATOM      3  O   UNL d   1      25.142 -14.463  -5.018  0.00  0.00    -0.271 OA
ATOM      4  H   UNL d   1      25.979 -12.834  -2.350  0.00  0.00     0.190 HD
ENDROOT
BRANCH   1   5
ATOM      5  N   UNL d   1      25.451 -11.794  -4.068  0.00  0.00    -0.263 N 
ATOM      6  C   UNL d   1      25.888 -10.565  -3.558  0.00  0.00     0.272 C 
ATOM      7  O   UNL d   1      26.434 -10.465  -2.461  0.00  0.00    -0.266 OA
ATOM      8  H   UNL d   1      25.031 -11.905  -4.986  0.00  0.00     0.190 HD
BRANCH   6   9
ATOM      9  C   UNL d   1      25.601  -9.344  -4.388  0.00  0.00     0.066 A 
ATOM     10  C   UNL d   1      25.662  -8.079  -3.784  0.00  0.00     0.020 A 
ATOM     11  C   UNL d   1      25.478  -6.912  -4.539  0.00  0.00     0.001 A 
ATOM     12  C   UNL d   1      25.226  -6.992  -5.907  0.00  0.00     0.003 A 
ATOM     13  C   UNL d   1      25.166  -8.240  -6.529  0.00  0.00     0.037 A 
ATOM     14  C   UNL d   1      25.361  -9.410  -5.774  0.00  0.00     0.081 A 
BRANCH  14  15
ATOM     15  O   UNL d   1      25.283 -10.624  -6.401  0.00  0.00    -0.360 OA
ATOM     16  H   UNL d   1      24.532 -11.133  -6.054  0.00  0.00     0.217 HD
ENDBRANCH  14  15
ENDBRANCH   6   9
ENDBRANCH   1   5
BRANCH   2  17
ATOM     17  C   UNL d   1      25.685 -15.387  -2.872  0.00  0.00     0.088 A 
ATOM     18  C   UNL d   1      26.655 -15.351  -1.705  0.00  0.00     0.025 A 
ATOM     19  C   UNL d   1      25.174 -15.377  -1.426  0.00  0.00     0.032 A 
BRANCH  19  20
ATOM     20  C   UNL d   1      24.445 -16.627  -0.933  0.00  0.00    -0.050 A 
ATOM     21  C   UNL d   1      25.115 -17.781  -0.474  0.00  0.00     0.007 A 
ATOM     22  C   UNL d   1      24.433 -18.958  -0.145  0.00  0.00     0.004 A 
ATOM     23  C   UNL d   1      23.049 -19.007  -0.248  0.00  0.00     0.042 A 
ATOM     24  C   UNL d   1      22.363 -17.868  -0.644  0.00  0.00     0.116 A 
ATOM     25  F   UNL d   1      21.025 -17.906  -0.728  0.00  0.00    -0.206 F 
ATOM     26  C   UNL d   1      23.040 -16.695  -0.972  0.00  0.00     0.049 A 
ENDBRANCH  19  20
ENDBRANCH   2  17
TORSDOF 5
ENDMDL
