MODEL 1
REMARK VINA RESULT:   -31.137      0.000      0.000
REMARK INTER + INTRA:         -35.507
REMARK INTER:                 -34.418
REMARK INTRA:                  -1.089
REMARK CONF_INDEPENDENT:        3.281
REMARK UNBOUND:                -1.089
REMARK  11 active torsions:
REMARK  status: ('A' for Active; 'I' for Inactive)
REMARK    1  A    between atoms: C_2  and  C_3 
REMARK    2  A    between atoms: C_3  and  N_4 
REMARK    3  A    between atoms: C_5  and  S_6 
REMARK    4  A    between atoms: S_6  and  C_7 
REMARK    5  A    between atoms: C_7  and  C_8 
REMARK       I    between atoms: C_8  and  N_10 
REMARK    6  A    between atoms: N_10  and  C_11 
REMARK    7  A    between atoms: C_11  and  C_12 
REMARK    8  A    between atoms: C_12  and  C_13 
REMARK    9  A    between atoms: C_12  and  C_22 
REMARK   10  A    between atoms: C_25  and  O_26 
REMARK   11  A    between atoms: C_32  and  O_33 
ROOT
ATOM      1  C   UNL d   1      26.254 -14.931  -1.541  0.00  0.00     0.068 C 
ENDROOT
BRANCH   1   2
ATOM      2  C   UNL d   1      26.335 -16.348  -2.256  0.00  0.00     0.136 C 
BRANCH   2   3
ATOM      3  N   UNL d   1      25.059 -17.074  -2.346  0.00  0.00    -0.359 N 
ATOM      4  C   UNL d   1      24.396 -17.629  -1.245  0.00  0.00     0.227 C 
ATOM      5  O   UNL d   1      24.982 -17.692  -0.167  0.00  0.00    -0.273 OA
ATOM      6  H   UNL d   1      24.820 -17.363  -3.283  0.00  0.00     0.162 HD
BRANCH   4   7
ATOM      7  C   UNL d   1      22.872 -18.057  -1.418  0.00  0.00     0.185 C 
BRANCH   7   8
ATOM      8  S   UNL d   1      22.114 -18.481   0.214  0.00  0.00    -0.081 SA
BRANCH   8   9
ATOM      9  C   UNL d   1      20.583 -19.242  -0.066  0.00  0.00     0.187 C 
ATOM     10  N   UNL d   1      19.963 -20.063   0.957  0.00  0.00    -0.315 N 
ATOM     11  C   UNL d   1      18.986 -20.880   0.256  0.00  0.00     0.347 C 
ATOM     12  N   UNL d   1      18.776 -19.990  -0.851  0.00  0.00    -0.265 N 
ATOM     13  N   UNL d   1      19.872 -19.216  -1.156  0.00  0.00    -0.150 NA
ATOM     14  H   UNL d   1      18.064 -20.223  -1.535  0.00  0.00     0.187 HD
BRANCH  10  15
ATOM     15  C   UNL d   1      20.300 -20.100   2.378  0.00  0.00     0.129 C 
BRANCH  15  16
ATOM     16  C   UNL d   1      19.158 -20.644   3.240  0.00  0.00     0.015 C 
ATOM     17  C   UNL d   1      19.530 -20.826   4.698  0.00  0.00     0.006 C 
ENDBRANCH  15  16
ENDBRANCH  10  15
BRANCH  11  18
ATOM     18  O   UNL d   1      17.808 -21.103   0.965  0.00  0.00    -0.358 OA
ATOM     19  H   UNL d   1      17.394 -21.894   0.595  0.00  0.00     0.214 HD
ENDBRANCH  11  18
ENDBRANCH   8   9
ENDBRANCH   7   8
ENDBRANCH   4   7
ENDBRANCH   2   3
ENDBRANCH   1   2
BRANCH   1  20
ATOM     20  C   UNL d   1      27.243 -14.839  -0.346  0.00  0.00    -0.040 A 
ATOM     21  C   UNL d   1      27.275 -14.049   0.743  0.00  0.00    -0.005 A 
ATOM     22  C   UNL d   1      26.525 -12.962   1.268  0.00  0.00     0.014 C 
ATOM     23  C   UNL d   1      28.425 -14.511   1.557  0.00  0.00     0.038 A 
ATOM     24  C   UNL d   1      26.742 -12.485   2.491  0.00  0.00     0.001 C 
ATOM     25  C   UNL d   1      27.832 -12.962   3.291  0.00  0.00     0.002 C 
ATOM     26  C   UNL d   1      28.680 -13.916   2.868  0.00  0.00     0.030 C 
ATOM     27  N   UNL d   1      29.083 -15.447   0.983  0.00  0.00    -0.385 N 
ATOM     28  C   UNL d   1      28.425 -15.762  -0.259  0.00  0.00     0.155 A 
ATOM     29  H   UNL d   1      29.903 -15.905   1.356  0.00  0.00     0.160 HD
ENDBRANCH   1  20
BRANCH   1  30
ATOM     30  C   UNL d   1      26.300 -13.768  -2.591  0.00  0.00    -0.048 A 
ATOM     31  C   UNL d   1      26.672 -12.433  -2.332  0.00  0.00     0.011 A 
ATOM     32  C   UNL d   1      26.582 -11.390  -3.236  0.00  0.00     0.037 A 
ATOM     33  C   UNL d   1      26.165 -11.647  -4.509  0.00  0.00     0.068 A 
ATOM     34  C   UNL d   1      25.870 -12.958  -4.866  0.00  0.00     0.037 A 
ATOM     35  C   UNL d   1      25.864 -13.986  -3.905  0.00  0.00     0.011 A 
BRANCH  33  36
ATOM     36  O   UNL d   1      26.086 -10.529  -5.275  0.00  0.00    -0.356 OA
ATOM     37  C   UNL d   1      26.498 -10.709  -6.613  0.00  0.00     0.210 C 
ENDBRANCH  33  36
ENDBRANCH   1  30
TORSDOF 11
ENDMDL
MODEL 2
REMARK VINA RESULT:   -30.847      1.674      1.995
REMARK INTER + INTRA:         -35.282
REMARK INTER:                 -34.128
REMARK INTRA:                  -1.154
REMARK CONF_INDEPENDENT:        3.281
REMARK UNBOUND:                -1.154
REMARK  11 active torsions:
REMARK  status: ('A' for Active; 'I' for Inactive)
REMARK    1  A    between atoms: C_2  and  C_3 
REMARK    2  A    between atoms: C_3  and  N_4 
REMARK    3  A    between atoms: C_5  and  S_6 
REMARK    4  A    between atoms: S_6  and  C_7 
REMARK    5  A    between atoms: C_7  and  C_8 
REMARK       I    between atoms: C_8  and  N_10 
REMARK    6  A    between atoms: N_10  and  C_11 
REMARK    7  A    between atoms: C_11  and  C_12 
REMARK    8  A    between atoms: C_12  and  C_13 
REMARK    9  A    between atoms: C_12  and  C_22 
REMARK   10  A    between atoms: C_25  and  O_26 
REMARK   11  A    between atoms: C_32  and  O_33 
ROOT
ATOM      1  C   UNL d   1      26.684 -15.486  -0.432  0.00  0.00     0.068 C 
ENDROOT
BRANCH   1   2
ATOM      2  C   UNL d   1      26.736 -17.036  -0.085  0.00  0.00     0.136 C 
BRANCH   2   3
ATOM      3  N   UNL d   1      25.425 -17.697   0.009  0.00  0.00    -0.359 N 
ATOM      4  C   UNL d   1      24.522 -17.799  -1.056  0.00  0.00     0.227 C 
ATOM      5  O   UNL d   1      24.728 -17.145  -2.075  0.00  0.00    -0.273 OA
ATOM      6  H   UNL d   1      25.114 -17.854   0.957  0.00  0.00     0.162 HD
BRANCH   4   7
ATOM      7  C   UNL d   1      23.324 -18.840  -0.934  0.00  0.00     0.185 C 
BRANCH   7   8
ATOM      8  S   UNL d   1      22.024 -18.221   0.225  0.00  0.00    -0.081 SA
BRANCH   8   9
ATOM      9  C   UNL d   1      20.545 -19.066  -0.096  0.00  0.00     0.187 C 
ATOM     10  N   UNL d   1      19.920 -19.885   0.925  0.00  0.00    -0.315 N 
ATOM     11  C   UNL d   1      19.016 -20.770   0.209  0.00  0.00     0.347 C 
ATOM     12  N   UNL d   1      18.814 -19.925  -0.935  0.00  0.00    -0.265 N 
ATOM     13  N   UNL d   1      19.883 -19.107  -1.216  0.00  0.00    -0.150 NA
ATOM     14  H   UNL d   1      18.145 -20.215  -1.641  0.00  0.00     0.187 HD
BRANCH  10  15
ATOM     15  C   UNL d   1      20.194 -19.862   2.359  0.00  0.00     0.129 C 
BRANCH  15  16
ATOM     16  C   UNL d   1      19.300 -20.825   3.144  0.00  0.00     0.015 C 
ATOM     17  C   UNL d   1      19.530 -20.783   4.642  0.00  0.00     0.006 C 
ENDBRANCH  15  16
ENDBRANCH  10  15
BRANCH  11  18
ATOM     18  O   UNL d   1      17.820 -21.030   0.872  0.00  0.00    -0.358 OA
ATOM     19  H   UNL d   1      17.115 -21.019   0.212  0.00  0.00     0.214 HD
ENDBRANCH  11  18
ENDBRANCH   8   9
ENDBRANCH   7   8
ENDBRANCH   4   7
ENDBRANCH   2   3
ENDBRANCH   1   2
BRANCH   1  20
ATOM     20  C   UNL d   1      27.547 -14.654   0.556  0.00  0.00    -0.040 A 
ATOM     21  C   UNL d   1      27.433 -13.394   1.017  0.00  0.00    -0.005 A 
ATOM     22  C   UNL d   1      26.582 -12.277   0.803  0.00  0.00     0.014 C 
ATOM     23  C   UNL d   1      28.520 -13.215   2.009  0.00  0.00     0.038 A 
ATOM     24  C   UNL d   1      26.654 -11.184   1.559  0.00  0.00     0.001 C 
ATOM     25  C   UNL d   1      27.684 -11.031   2.545  0.00  0.00     0.002 C 
ATOM     26  C   UNL d   1      28.616 -11.972   2.773  0.00  0.00     0.030 C 
ATOM     27  N   UNL d   1      29.278 -14.243   2.092  0.00  0.00    -0.385 N 
ATOM     28  C   UNL d   1      28.760 -15.255   1.206  0.00  0.00     0.155 A 
ATOM     29  H   UNL d   1      30.080 -14.337   2.700  0.00  0.00     0.160 HD
ENDBRANCH   1  20
BRANCH   1  30
ATOM     30  C   UNL d   1      26.926 -15.244  -1.962  0.00  0.00    -0.048 A 
ATOM     31  C   UNL d   1      26.098 -14.497  -2.823  0.00  0.00     0.011 A 
ATOM     32  C   UNL d   1      26.252 -14.401  -4.195  0.00  0.00     0.037 A 
ATOM     33  C   UNL d   1      27.317 -15.013  -4.789  0.00  0.00     0.068 A 
ATOM     34  C   UNL d   1      28.231 -15.691  -3.990  0.00  0.00     0.037 A 
ATOM     35  C   UNL d   1      27.999 -15.868  -2.614  0.00  0.00     0.011 A 
BRANCH  33  36
ATOM     36  O   UNL d   1      27.322 -14.871  -6.138  0.00  0.00    -0.356 OA
ATOM     37  C   UNL d   1      28.530 -14.367  -6.667  0.00  0.00     0.210 C 
ENDBRANCH  33  36
ENDBRANCH   1  30
TORSDOF 11
ENDMDL
MODEL 3
REMARK VINA RESULT:   -30.750      2.251      4.809
REMARK INTER + INTRA:         -35.072
REMARK INTER:                 -34.032
REMARK INTRA:                  -1.040
REMARK CONF_INDEPENDENT:        3.281
REMARK UNBOUND:                -1.040
REMARK  11 active torsions:
REMARK  status: ('A' for Active; 'I' for Inactive)
REMARK    1  A    between atoms: C_2  and  C_3 
REMARK    2  A    between atoms: C_3  and  N_4 
REMARK    3  A    between atoms: C_5  and  S_6 
REMARK    4  A    between atoms: S_6  and  C_7 
REMARK    5  A    between atoms: C_7  and  C_8 
REMARK       I    between atoms: C_8  and  N_10 
REMARK    6  A    between atoms: N_10  and  C_11 
REMARK    7  A    between atoms: C_11  and  C_12 
REMARK    8  A    between atoms: C_12  and  C_13 
REMARK    9  A    between atoms: C_12  and  C_22 
REMARK   10  A    between atoms: C_25  and  O_26 
REMARK   11  A    between atoms: C_32  and  O_33 
ROOT
ATOM      1  C   UNL d   1      26.898 -16.064  -1.579  0.00  0.00     0.068 C 
ENDROOT
BRANCH   1   2
ATOM      2  C   UNL d   1      25.397 -15.915  -2.076  0.00  0.00     0.136 C 
BRANCH   2   3
ATOM      3  N   UNL d   1      24.565 -17.117  -1.915  0.00  0.00    -0.359 N 
ATOM      4  C   UNL d   1      24.574 -17.927  -0.774  0.00  0.00     0.227 C 
ATOM      5  O   UNL d   1      25.450 -17.757   0.070  0.00  0.00    -0.273 OA
ATOM      6  H   UNL d   1      24.172 -17.460  -2.780  0.00  0.00     0.162 HD
BRANCH   4   7
ATOM      7  C   UNL d   1      23.383 -18.965  -0.574  0.00  0.00     0.185 C 
BRANCH   7   8
ATOM      8  S   UNL d   1      21.930 -18.157   0.235  0.00  0.00    -0.081 SA
BRANCH   8   9
ATOM      9  C   UNL d   1      20.514 -19.100  -0.098  0.00  0.00     0.187 C 
ATOM     10  N   UNL d   1      19.933 -19.954   0.921  0.00  0.00    -0.315 N 
ATOM     11  C   UNL d   1      19.098 -20.900   0.200  0.00  0.00     0.347 C 
ATOM     12  N   UNL d   1      18.852 -20.075  -0.950  0.00  0.00    -0.265 N 
ATOM     13  N   UNL d   1      19.868 -19.189  -1.225  0.00  0.00    -0.150 NA
ATOM     14  H   UNL d   1      18.212 -20.411  -1.662  0.00  0.00     0.187 HD
BRANCH  10  15
ATOM     15  C   UNL d   1      20.190 -19.907   2.358  0.00  0.00     0.129 C 
BRANCH  15  16
ATOM     16  C   UNL d   1      19.257 -20.824   3.152  0.00  0.00     0.015 C 
ATOM     17  C   UNL d   1      19.531 -20.825   4.643  0.00  0.00     0.006 C 
ENDBRANCH  15  16
ENDBRANCH  10  15
BRANCH  11  18
ATOM     18  O   UNL d   1      17.915 -21.236   0.852  0.00  0.00    -0.358 OA
ATOM     19  H   UNL d   1      17.266 -21.466   0.174  0.00  0.00     0.214 HD
ENDBRANCH  11  18
ENDBRANCH   8   9
ENDBRANCH   7   8
ENDBRANCH   4   7
ENDBRANCH   2   3
ENDBRANCH   1   2
BRANCH   1  20
ATOM     20  C   UNL d   1      27.902 -15.951  -2.760  0.00  0.00    -0.040 A 
ATOM     21  C   UNL d   1      27.848 -15.293  -3.933  0.00  0.00    -0.005 A 
ATOM     22  C   UNL d   1      26.909 -14.498  -4.643  0.00  0.00     0.014 C 
ATOM     23  C   UNL d   1      29.161 -15.506  -4.589  0.00  0.00     0.038 A 
ATOM     24  C   UNL d   1      27.237 -13.849  -5.758  0.00  0.00     0.001 C 
ATOM     25  C   UNL d   1      28.523 -14.027  -6.367  0.00  0.00     0.002 C 
ATOM     26  C   UNL d   1      29.466 -14.835  -5.852  0.00  0.00     0.030 C 
ATOM     27  N   UNL d   1      29.921 -16.285  -3.915  0.00  0.00    -0.385 N 
ATOM     28  C   UNL d   1      29.232 -16.647  -2.703  0.00  0.00     0.155 A 
ATOM     29  H   UNL d   1      30.856 -16.568  -4.177  0.00  0.00     0.160 HD
ENDBRANCH   1  20
BRANCH   1  30
ATOM     30  C   UNL d   1      27.170 -15.157  -0.329  0.00  0.00    -0.048 A 
ATOM     31  C   UNL d   1      27.841 -15.547   0.847  0.00  0.00     0.011 A 
ATOM     32  C   UNL d   1      27.958 -14.780   1.992  0.00  0.00     0.037 A 
ATOM     33  C   UNL d   1      27.450 -13.514   1.998  0.00  0.00     0.068 A 
ATOM     34  C   UNL d   1      26.855 -13.025   0.841  0.00  0.00     0.037 A 
ATOM     35  C   UNL d   1      26.650 -13.856  -0.275  0.00  0.00     0.011 A 
BRANCH  33  36
ATOM     36  O   UNL d   1      27.599 -12.891   3.195  0.00  0.00    -0.356 OA
ATOM     37  C   UNL d   1      27.686 -13.765   4.301  0.00  0.00     0.210 C 
ENDBRANCH  33  36
ENDBRANCH   1  30
TORSDOF 11
ENDMDL
MODEL 4
REMARK VINA RESULT:   -30.639      2.813      5.206
REMARK INTER + INTRA:         -35.047
REMARK INTER:                 -33.921
REMARK INTRA:                  -1.126
REMARK CONF_INDEPENDENT:        3.281
REMARK UNBOUND:                -1.126
REMARK  11 active torsions:
REMARK  status: ('A' for Active; 'I' for Inactive)
REMARK    1  A    between atoms: C_2  and  C_3 
REMARK    2  A    between atoms: C_3  and  N_4 
REMARK    3  A    between atoms: C_5  and  S_6 
REMARK    4  A    between atoms: S_6  and  C_7 
REMARK    5  A    between atoms: C_7  and  C_8 
REMARK       I    between atoms: C_8  and  N_10 
REMARK    6  A    between atoms: N_10  and  C_11 
REMARK    7  A    between atoms: C_11  and  C_12 
REMARK    8  A    between atoms: C_12  and  C_13 
REMARK    9  A    between atoms: C_12  and  C_22 
REMARK   10  A    between atoms: C_25  and  O_26 
REMARK   11  A    between atoms: C_32  and  O_33 
ROOT
ATOM      1  C   UNL d   1      26.710 -15.716  -2.557  0.00  0.00     0.068 C 
ENDROOT
BRANCH   1   2
ATOM      2  C   UNL d   1      25.500 -15.726  -1.527  0.00  0.00     0.136 C 
BRANCH   2   3
ATOM      3  N   UNL d   1      24.556 -16.844  -1.685  0.00  0.00    -0.359 N 
ATOM      4  C   UNL d   1      24.573 -17.999  -0.895  0.00  0.00     0.227 C 
ATOM      5  O   UNL d   1      25.532 -18.199  -0.154  0.00  0.00    -0.273 OA
ATOM      6  H   UNL d   1      24.055 -16.834  -2.562  0.00  0.00     0.162 HD
BRANCH   4   7
ATOM      7  C   UNL d   1      23.297 -18.949  -0.918  0.00  0.00     0.185 C 
BRANCH   7   8
ATOM      8  S   UNL d   1      21.973 -18.307   0.202  0.00  0.00    -0.081 SA
BRANCH   8   9
ATOM      9  C   UNL d   1      20.504 -19.168  -0.123  0.00  0.00     0.187 C 
ATOM     10  N   UNL d   1      19.837 -19.920   0.923  0.00  0.00    -0.315 N 
ATOM     11  C   UNL d   1      18.958 -20.847   0.230  0.00  0.00     0.347 C 
ATOM     12  N   UNL d   1      18.803 -20.076  -0.972  0.00  0.00    -0.265 N 
ATOM     13  N   UNL d   1      19.886 -19.280  -1.263  0.00  0.00    -0.150 NA
ATOM     14  H   UNL d   1      18.161 -20.409  -1.684  0.00  0.00     0.187 HD
BRANCH  10  15
ATOM     15  C   UNL d   1      20.056 -19.806   2.363  0.00  0.00     0.129 C 
BRANCH  15  16
ATOM     16  C   UNL d   1      19.159 -20.749   3.170  0.00  0.00     0.015 C 
ATOM     17  C   UNL d   1      19.530 -20.832   4.637  0.00  0.00     0.006 C 
ENDBRANCH  15  16
ENDBRANCH  10  15
BRANCH  11  18
ATOM     18  O   UNL d   1      17.736 -21.063   0.861  0.00  0.00    -0.358 OA
ATOM     19  H   UNL d   1      17.210 -21.633   0.286  0.00  0.00     0.214 HD
ENDBRANCH  11  18
ENDBRANCH   8   9
ENDBRANCH   7   8
ENDBRANCH   4   7
ENDBRANCH   2   3
ENDBRANCH   1   2
BRANCH   1  20
ATOM     20  C   UNL d   1      26.607 -14.521  -3.543  0.00  0.00    -0.040 A 
ATOM     21  C   UNL d   1      27.368 -14.141  -4.588  0.00  0.00    -0.005 A 
ATOM     22  C   UNL d   1      28.569 -14.569  -5.215  0.00  0.00     0.014 C 
ATOM     23  C   UNL d   1      26.695 -12.963  -5.185  0.00  0.00     0.038 A 
ATOM     24  C   UNL d   1      28.987 -14.043  -6.364  0.00  0.00     0.001 C 
ATOM     25  C   UNL d   1      28.310 -12.928  -6.958  0.00  0.00     0.002 C 
ATOM     26  C   UNL d   1      27.221 -12.363  -6.410  0.00  0.00     0.030 C 
ATOM     27  N   UNL d   1      25.660 -12.606  -4.522  0.00  0.00    -0.385 N 
ATOM     28  C   UNL d   1      25.483 -13.531  -3.432  0.00  0.00     0.155 A 
ATOM     29  H   UNL d   1      25.055 -11.827  -4.748  0.00  0.00     0.160 HD
ENDBRANCH   1  20
BRANCH   1  30
ATOM     30  C   UNL d   1      28.078 -15.910  -1.817  0.00  0.00    -0.048 A 
ATOM     31  C   UNL d   1      29.103 -14.949  -1.707  0.00  0.00     0.011 A 
ATOM     32  C   UNL d   1      30.356 -15.176  -1.167  0.00  0.00     0.037 A 
ATOM     33  C   UNL d   1      30.638 -16.398  -0.631  0.00  0.00     0.068 A 
ATOM     34  C   UNL d   1      29.644 -17.370  -0.619  0.00  0.00     0.037 A 
ATOM     35  C   UNL d   1      28.414 -17.155  -1.268  0.00  0.00     0.011 A 
BRANCH  33  36
ATOM     36  O   UNL d   1      31.912 -16.494  -0.174  0.00  0.00    -0.356 OA
ATOM     37  C   UNL d   1      32.262 -15.523   0.788  0.00  0.00     0.210 C 
ENDBRANCH  33  36
ENDBRANCH   1  30
TORSDOF 11
ENDMDL
MODEL 5
REMARK VINA RESULT:   -30.447      2.511      4.567
REMARK INTER + INTRA:         -34.687
REMARK INTER:                 -33.729
REMARK INTRA:                  -0.958
REMARK CONF_INDEPENDENT:        3.281
REMARK UNBOUND:                -0.958
REMARK  11 active torsions:
REMARK  status: ('A' for Active; 'I' for Inactive)
REMARK    1  A    between atoms: C_2  and  C_3 
REMARK    2  A    between atoms: C_3  and  N_4 
REMARK    3  A    between atoms: C_5  and  S_6 
REMARK    4  A    between atoms: S_6  and  C_7 
REMARK    5  A    between atoms: C_7  and  C_8 
REMARK       I    between atoms: C_8  and  N_10 
REMARK    6  A    between atoms: N_10  and  C_11 
REMARK    7  A    between atoms: C_11  and  C_12 
REMARK    8  A    between atoms: C_12  and  C_13 
REMARK    9  A    between atoms: C_12  and  C_22 
REMARK   10  A    between atoms: C_25  and  O_26 
REMARK   11  A    between atoms: C_32  and  O_33 
ROOT
ATOM      1  C   UNL d   1      26.507 -15.936  -1.974  0.00  0.00     0.068 C 
ENDROOT
BRANCH   1   2
ATOM      2  C   UNL d   1      25.813 -16.018  -0.548  0.00  0.00     0.136 C 
BRANCH   2   3
ATOM      3  N   UNL d   1      24.667 -16.937  -0.465  0.00  0.00    -0.359 N 
ATOM      4  C   UNL d   1      24.194 -17.697  -1.542  0.00  0.00     0.227 C 
ATOM      5  O   UNL d   1      24.620 -17.460  -2.669  0.00  0.00    -0.273 OA
ATOM      6  H   UNL d   1      24.089 -16.796   0.351  0.00  0.00     0.162 HD
BRANCH   4   7
ATOM      7  C   UNL d   1      23.204 -18.906  -1.237  0.00  0.00     0.185 C 
BRANCH   7   8
ATOM      8  S   UNL d   1      22.062 -18.491   0.156  0.00  0.00    -0.081 SA
BRANCH   8   9
ATOM      9  C   UNL d   1      20.544 -19.284  -0.115  0.00  0.00     0.187 C 
ATOM     10  N   UNL d   1      19.937 -20.098   0.920  0.00  0.00    -0.315 N 
ATOM     11  C   UNL d   1      18.976 -20.943   0.230  0.00  0.00     0.347 C 
ATOM     12  N   UNL d   1      18.753 -20.075  -0.892  0.00  0.00    -0.265 N 
ATOM     13  N   UNL d   1      19.835 -19.287  -1.206  0.00  0.00    -0.150 NA
ATOM     14  H   UNL d   1      18.046 -20.332  -1.573  0.00  0.00     0.187 HD
BRANCH  10  15
ATOM     15  C   UNL d   1      20.272 -20.107   2.342  0.00  0.00     0.129 C 
BRANCH  15  16
ATOM     16  C   UNL d   1      19.199 -20.791   3.194  0.00  0.00     0.015 C 
ATOM     17  C   UNL d   1      19.530 -20.825   4.673  0.00  0.00     0.006 C 
ENDBRANCH  15  16
ENDBRANCH  10  15
BRANCH  11  18
ATOM     18  O   UNL d   1      17.801 -21.177   0.940  0.00  0.00    -0.358 OA
ATOM     19  H   UNL d   1      17.693 -22.134   1.015  0.00  0.00     0.214 HD
ENDBRANCH  11  18
ENDBRANCH   8   9
ENDBRANCH   7   8
ENDBRANCH   4   7
ENDBRANCH   2   3
ENDBRANCH   1   2
BRANCH   1  20
ATOM     20  C   UNL d   1      26.085 -14.651  -2.739  0.00  0.00    -0.040 A 
ATOM     21  C   UNL d   1      26.374 -13.350  -2.552  0.00  0.00    -0.005 A 
ATOM     22  C   UNL d   1      27.093 -12.565  -1.611  0.00  0.00     0.014 C 
ATOM     23  C   UNL d   1      25.739 -12.618  -3.673  0.00  0.00     0.038 A 
ATOM     24  C   UNL d   1      27.319 -11.268  -1.805  0.00  0.00     0.001 C 
ATOM     25  C   UNL d   1      26.734 -10.572  -2.914  0.00  0.00     0.002 C 
ATOM     26  C   UNL d   1      25.947 -11.178  -3.819  0.00  0.00     0.030 C 
ATOM     27  N   UNL d   1      25.059 -13.389  -4.435  0.00  0.00    -0.385 N 
ATOM     28  C   UNL d   1      25.198 -14.738  -3.948  0.00  0.00     0.155 A 
ATOM     29  H   UNL d   1      24.542 -13.102  -5.255  0.00  0.00     0.160 HD
ENDBRANCH   1  20
BRANCH   1  30
ATOM     30  C   UNL d   1      28.045 -16.224  -1.868  0.00  0.00    -0.048 A 
ATOM     31  C   UNL d   1      28.663 -17.091  -0.945  0.00  0.00     0.011 A 
ATOM     32  C   UNL d   1      30.029 -17.235  -0.776  0.00  0.00     0.037 A 
ATOM     33  C   UNL d   1      30.876 -16.547  -1.594  0.00  0.00     0.068 A 
ATOM     34  C   UNL d   1      30.339 -15.742  -2.592  0.00  0.00     0.037 A 
ATOM     35  C   UNL d   1      28.951 -15.525  -2.678  0.00  0.00     0.011 A 
BRANCH  33  36
ATOM     36  O   UNL d   1      32.184 -16.750  -1.292  0.00  0.00    -0.356 OA
ATOM     37  C   UNL d   1      32.415 -17.804  -0.381  0.00  0.00     0.210 C 
ENDBRANCH  33  36
ENDBRANCH   1  30
TORSDOF 11
ENDMDL
MODEL 6
REMARK VINA RESULT:   -29.976      1.903      2.995
REMARK INTER + INTRA:         -34.392
REMARK INTER:                 -33.258
REMARK INTRA:                  -1.135
REMARK CONF_INDEPENDENT:        3.281
REMARK UNBOUND:                -1.135
REMARK  11 active torsions:
REMARK  status: ('A' for Active; 'I' for Inactive)
REMARK    1  A    between atoms: C_2  and  C_3 
REMARK    2  A    between atoms: C_3  and  N_4 
REMARK    3  A    between atoms: C_5  and  S_6 
REMARK    4  A    between atoms: S_6  and  C_7 
REMARK    5  A    between atoms: C_7  and  C_8 
REMARK       I    between atoms: C_8  and  N_10 
REMARK    6  A    between atoms: N_10  and  C_11 
REMARK    7  A    between atoms: C_11  and  C_12 
REMARK    8  A    between atoms: C_12  and  C_13 
REMARK    9  A    between atoms: C_12  and  C_22 
REMARK   10  A    between atoms: C_25  and  O_26 
REMARK   11  A    between atoms: C_32  and  O_33 
ROOT
ATOM      1  C   UNL d   1      26.443 -15.128  -1.892  0.00  0.00     0.068 C 
ENDROOT
BRANCH   1   2
ATOM      2  C   UNL d   1      25.539 -15.824  -2.998  0.00  0.00     0.136 C 
BRANCH   2   3
ATOM      3  N   UNL d   1      24.869 -17.060  -2.567  0.00  0.00    -0.359 N 
ATOM      4  C   UNL d   1      24.102 -17.169  -1.401  0.00  0.00     0.227 C 
ATOM      5  O   UNL d   1      24.134 -16.255  -0.581  0.00  0.00    -0.273 OA
ATOM      6  H   UNL d   1      25.203 -17.890  -3.036  0.00  0.00     0.162 HD
BRANCH   4   7
ATOM      7  C   UNL d   1      23.143 -18.429  -1.241  0.00  0.00     0.185 C 
BRANCH   7   8
ATOM      8  S   UNL d   1      22.007 -18.218   0.202  0.00  0.00    -0.081 SA
BRANCH   8   9
ATOM      9  C   UNL d   1      20.546 -19.098  -0.108  0.00  0.00     0.187 C 
ATOM     10  N   UNL d   1      19.936 -19.912   0.925  0.00  0.00    -0.315 N 
ATOM     11  C   UNL d   1      19.052 -20.827   0.223  0.00  0.00     0.347 C 
ATOM     12  N   UNL d   1      18.834 -20.005  -0.935  0.00  0.00    -0.265 N 
ATOM     13  N   UNL d   1      19.887 -19.170  -1.228  0.00  0.00    -0.150 NA
ATOM     14  H   UNL d   1      18.172 -20.319  -1.637  0.00  0.00     0.187 HD
BRANCH  10  15
ATOM     15  C   UNL d   1      20.208 -19.861   2.360  0.00  0.00     0.129 C 
BRANCH  15  16
ATOM     16  C   UNL d   1      19.155 -20.605   3.185  0.00  0.00     0.015 C 
ATOM     17  C   UNL d   1      19.561 -20.829   4.628  0.00  0.00     0.006 C 
ENDBRANCH  15  16
ENDBRANCH  10  15
BRANCH  11  18
ATOM     18  O   UNL d   1      17.860 -21.101   0.889  0.00  0.00    -0.358 OA
ATOM     19  H   UNL d   1      17.919 -22.004   1.228  0.00  0.00     0.214 HD
ENDBRANCH  11  18
ENDBRANCH   8   9
ENDBRANCH   7   8
ENDBRANCH   4   7
ENDBRANCH   2   3
ENDBRANCH   1   2
BRANCH   1  20
ATOM     20  C   UNL d   1      27.731 -15.949  -1.610  0.00  0.00    -0.040 A 
ATOM     21  C   UNL d   1      28.870 -16.114  -2.309  0.00  0.00    -0.005 A 
ATOM     22  C   UNL d   1      29.392 -15.708  -3.566  0.00  0.00     0.014 C 
ATOM     23  C   UNL d   1      29.758 -16.948  -1.464  0.00  0.00     0.038 A 
ATOM     24  C   UNL d   1      30.660 -15.928  -3.904  0.00  0.00     0.001 C 
ATOM     25  C   UNL d   1      31.528 -16.702  -3.065  0.00  0.00     0.002 C 
ATOM     26  C   UNL d   1      31.125 -17.232  -1.897  0.00  0.00     0.030 C 
ATOM     27  N   UNL d   1      29.188 -17.323  -0.381  0.00  0.00    -0.385 N 
ATOM     28  C   UNL d   1      27.869 -16.745  -0.344  0.00  0.00     0.155 A 
ATOM     29  H   UNL d   1      29.607 -17.900   0.337  0.00  0.00     0.160 HD
ENDBRANCH   1  20
BRANCH   1  30
ATOM     30  C   UNL d   1      26.629 -13.601  -2.197  0.00  0.00    -0.048 A 
ATOM     31  C   UNL d   1      27.305 -12.670  -1.383  0.00  0.00     0.011 A 
ATOM     32  C   UNL d   1      27.348 -11.304  -1.597  0.00  0.00     0.037 A 
ATOM     33  C   UNL d   1      26.753 -10.787  -2.711  0.00  0.00     0.068 A 
ATOM     34  C   UNL d   1      26.146 -11.655  -3.610  0.00  0.00     0.037 A 
ATOM     35  C   UNL d   1      26.019 -13.026  -3.321  0.00  0.00     0.011 A 
BRANCH  33  36
ATOM     36  O   UNL d   1      26.837  -9.434  -2.775  0.00  0.00    -0.356 OA
ATOM     37  C   UNL d   1      26.173  -8.860  -3.880  0.00  0.00     0.210 C 
ENDBRANCH  33  36
ENDBRANCH   1  30
TORSDOF 11
ENDMDL
MODEL 7
REMARK VINA RESULT:   -29.285      1.126      2.075
REMARK INTER + INTRA:         -33.500
REMARK INTER:                 -32.566
REMARK INTRA:                  -0.934
REMARK CONF_INDEPENDENT:        3.281
REMARK UNBOUND:                -0.934
REMARK  11 active torsions:
REMARK  status: ('A' for Active; 'I' for Inactive)
REMARK    1  A    between atoms: C_2  and  C_3 
REMARK    2  A    between atoms: C_3  and  N_4 
REMARK    3  A    between atoms: C_5  and  S_6 
REMARK    4  A    between atoms: S_6  and  C_7 
REMARK    5  A    between atoms: C_7  and  C_8 
REMARK       I    between atoms: C_8  and  N_10 
REMARK    6  A    between atoms: N_10  and  C_11 
REMARK    7  A    between atoms: C_11  and  C_12 
REMARK    8  A    between atoms: C_12  and  C_13 
REMARK    9  A    between atoms: C_12  and  C_22 
REMARK   10  A    between atoms: C_25  and  O_26 
REMARK   11  A    between atoms: C_32  and  O_33 
ROOT
ATOM      1  C   UNL d   1      26.355 -14.323  -1.608  0.00  0.00     0.068 C 
ENDROOT
BRANCH   1   2
ATOM      2  C   UNL d   1      25.915 -15.750  -2.151  0.00  0.00     0.136 C 
BRANCH   2   3
ATOM      3  N   UNL d   1      24.483 -16.056  -2.011  0.00  0.00    -0.359 N 
ATOM      4  C   UNL d   1      23.986 -17.241  -1.457  0.00  0.00     0.227 C 
ATOM      5  O   UNL d   1      24.762 -18.170  -1.247  0.00  0.00    -0.273 OA
ATOM      6  H   UNL d   1      23.883 -15.463  -2.567  0.00  0.00     0.162 HD
BRANCH   4   7
ATOM      7  C   UNL d   1      22.454 -17.292  -1.030  0.00  0.00     0.185 C 
BRANCH   7   8
ATOM      8  S   UNL d   1      22.170 -18.583   0.264  0.00  0.00    -0.081 SA
BRANCH   8   9
ATOM      9  C   UNL d   1      20.607 -19.289   0.010  0.00  0.00     0.187 C 
ATOM     10  N   UNL d   1      19.944 -20.025   1.069  0.00  0.00    -0.315 N 
ATOM     11  C   UNL d   1      18.936 -20.833   0.403  0.00  0.00     0.347 C 
ATOM     12  N   UNL d   1      18.774 -19.994  -0.751  0.00  0.00    -0.265 N 
ATOM     13  N   UNL d   1      19.905 -19.288  -1.086  0.00  0.00    -0.150 NA
ATOM     14  H   UNL d   1      18.056 -20.232  -1.428  0.00  0.00     0.187 HD
BRANCH  10  15
ATOM     15  C   UNL d   1      20.270 -20.002   2.493  0.00  0.00     0.129 C 
BRANCH  15  16
ATOM     16  C   UNL d   1      19.111 -20.485   3.369  0.00  0.00     0.015 C 
ATOM     17  C   UNL d   1      19.526 -20.838   4.784  0.00  0.00     0.006 C 
ENDBRANCH  15  16
ENDBRANCH  10  15
BRANCH  11  18
ATOM     18  O   UNL d   1      17.745 -20.966   1.112  0.00  0.00    -0.358 OA
ATOM     19  H   UNL d   1      17.402 -21.852   0.938  0.00  0.00     0.214 HD
ENDBRANCH  11  18
ENDBRANCH   8   9
ENDBRANCH   7   8
ENDBRANCH   4   7
ENDBRANCH   2   3
ENDBRANCH   1   2
BRANCH   1  20
ATOM     20  C   UNL d   1      27.565 -14.431  -0.640  0.00  0.00    -0.040 A 
ATOM     21  C   UNL d   1      28.551 -15.340  -0.521  0.00  0.00    -0.005 A 
ATOM     22  C   UNL d   1      28.911 -16.575  -1.124  0.00  0.00     0.014 C 
ATOM     23  C   UNL d   1      29.457 -14.833   0.537  0.00  0.00     0.038 A 
ATOM     24  C   UNL d   1      30.074 -17.169  -0.868  0.00  0.00     0.001 C 
ATOM     25  C   UNL d   1      30.966 -16.653   0.129  0.00  0.00     0.002 C 
ATOM     26  C   UNL d   1      30.694 -15.549   0.845  0.00  0.00     0.030 C 
ATOM     27  N   UNL d   1      29.026 -13.753   1.071  0.00  0.00    -0.385 N 
ATOM     28  C   UNL d   1      27.807 -13.376   0.401  0.00  0.00     0.155 A 
ATOM     29  H   UNL d   1      29.482 -13.239   1.813  0.00  0.00     0.160 HD
ENDBRANCH   1  20
BRANCH   1  30
ATOM     30  C   UNL d   1      26.475 -13.289  -2.780  0.00  0.00    -0.048 A 
ATOM     31  C   UNL d   1      26.973 -11.974  -2.677  0.00  0.00     0.011 A 
ATOM     32  C   UNL d   1      26.951 -11.030  -3.688  0.00  0.00     0.037 A 
ATOM     33  C   UNL d   1      26.475 -11.383  -4.917  0.00  0.00     0.068 A 
ATOM     34  C   UNL d   1      26.052 -12.691  -5.121  0.00  0.00     0.037 A 
ATOM     35  C   UNL d   1      25.981 -13.605  -4.054  0.00  0.00     0.011 A 
BRANCH  33  36
ATOM     36  O   UNL d   1      26.474 -10.352  -5.799  0.00  0.00    -0.356 OA
ATOM     37  C   UNL d   1      25.966  -9.141  -5.281  0.00  0.00     0.210 C 
ENDBRANCH  33  36
ENDBRANCH   1  30
TORSDOF 11
ENDMDL
