MODEL 1
REMARK VINA RESULT:   -10.971      0.000      0.000
REMARK INTER + INTRA:         -12.942
REMARK INTER:                 -12.164
REMARK INTRA:                  -0.778
REMARK CONF_INDEPENDENT:        1.193
REMARK UNBOUND:                -0.778
REMARK  4 active torsions:
REMARK  status: ('A' for Active; 'I' for Inactive)
REMARK    1  A    between atoms: C_11  and  C_12 
REMARK       I    between atoms: C_12  and  N_14 
REMARK    2  A    between atoms: N_14  and  C_15 
REMARK    3  A    between atoms: C_15  and  C_16 
REMARK    4  A    between atoms: C_16  and  C_17 
ROOT
ATOM      1  C   UNL d   1      25.266 -16.783  -1.903  0.00  0.00     0.273 C 
ATOM      2  O   UNL d   1      26.266 -17.396  -1.545  0.00  0.00    -0.266 OA
ATOM      3  N   UNL d   1      24.037 -17.211  -1.485  0.00  0.00    -0.355 N 
ATOM      4  H   UNL d   1      23.195 -16.786  -1.812  0.00  0.00     0.162 HD
ENDROOT
BRANCH   1   5
ATOM      5  C   UNL d   1      25.245 -15.590  -2.764  0.00  0.00     0.163 A 
ATOM      6  N   UNL d   1      24.200 -14.735  -2.784  0.00  0.00    -0.122 NA
ATOM      7  O   UNL d   1      24.521 -13.728  -3.711  0.00  0.00    -0.211 OA
ATOM      8  C   UNL d   1      25.738 -14.002  -4.222  0.00  0.00     0.125 A 
ATOM      9  C   UNL d   1      26.452 -13.243  -5.220  0.00  0.00     0.034 A 
ATOM     10  C   UNL d   1      26.234 -15.141  -3.669  0.00  0.00     0.039 A 
ATOM     11  C   UNL d   1      27.579 -13.907  -5.766  0.00  0.00     0.082 A 
ATOM     12  C   UNL d   1      26.180 -11.940  -5.617  0.00  0.00     0.024 A 
ATOM     13  C   UNL d   1      28.391 -13.300  -6.715  0.00  0.00     0.038 A 
ATOM     14  O   UNL d   1      27.943 -15.189  -5.414  0.00  0.00    -0.346 OA
ATOM     15  C   UNL d   1      28.117 -11.992  -7.098  0.00  0.00     0.009 A 
ATOM     16  C   UNL d   1      27.018 -11.305  -6.556  0.00  0.00    -0.061 A 
ATOM     17  C   UNL d   1      26.736  -9.893  -6.980  0.00  0.00     0.048 C 
ATOM     18  C   UNL d   1      27.575 -15.573  -4.078  0.00  0.00     0.220 C 
ENDBRANCH   1   5
BRANCH   3  19
ATOM     19  C   UNL d   1      23.861 -18.331  -0.631  0.00  0.00     0.127 C 
BRANCH  19  20
ATOM     20  C   UNL d   1      22.711 -17.916   0.202  0.00  0.00     0.056 C 
BRANCH  20  21
ATOM     21  C   UNL d   1      21.485 -18.646  -0.124  0.00  0.00    -0.048 C 
ATOM     22  C   UNL d   1      20.136 -19.648   0.101  0.00  0.00    -0.006 C 
ATOM     23  C   UNL d   1      18.993 -20.383  -0.520  0.00  0.00     0.014 C 
ATOM     24  C   UNL d   1      20.165 -19.890   1.418  0.00  0.00     0.038 C 
ATOM     25  C   UNL d   1      18.037 -20.810   0.328  0.00  0.00     0.001 C 
ATOM     26  C   UNL d   1      18.203 -20.819   1.795  0.00  0.00     0.002 C 
ATOM     27  C   UNL d   1      19.339 -20.451   2.407  0.00  0.00     0.030 C 
ATOM     28  N   UNL d   1      21.079 -19.325   0.921  0.00  0.00    -0.385 N 
ATOM     29  C   UNL d   1      20.800 -19.139  -1.097  0.00  0.00     0.155 C 
ATOM     30  H   UNL d   1      21.651 -18.849   1.681  0.00  0.00     0.160 HD
ENDBRANCH  20  21
ENDBRANCH  19  20
ENDBRANCH   3  19
TORSDOF 4
ENDMDL
MODEL 2
REMARK VINA RESULT:   -10.683      0.995      1.214
REMARK INTER + INTRA:         -12.719
REMARK INTER:                 -11.877
REMARK INTRA:                  -0.842
REMARK CONF_INDEPENDENT:        1.193
REMARK UNBOUND:                -0.842
REMARK  4 active torsions:
REMARK  status: ('A' for Active; 'I' for Inactive)
REMARK    1  A    between atoms: C_11  and  C_12 
REMARK       I    between atoms: C_12  and  N_14 
REMARK    2  A    between atoms: N_14  and  C_15 
REMARK    3  A    between atoms: C_15  and  C_16 
REMARK    4  A    between atoms: C_16  and  C_17 
ROOT
ATOM      1  C   UNL d   1      24.770 -16.171  -1.613  0.00  0.00     0.273 C 
ATOM      2  O   UNL d   1      25.506 -16.905  -0.962  0.00  0.00    -0.266 OA
ATOM      3  N   UNL d   1      23.448 -16.084  -1.276  0.00  0.00    -0.355 N 
ATOM      4  H   UNL d   1      22.801 -15.558  -1.824  0.00  0.00     0.162 HD
ENDROOT
BRANCH   1   5
ATOM      5  C   UNL d   1      25.171 -15.343  -2.761  0.00  0.00     0.163 A 
ATOM      6  N   UNL d   1      24.318 -14.485  -3.362  0.00  0.00    -0.122 NA
ATOM      7  O   UNL d   1      25.033 -13.873  -4.407  0.00  0.00    -0.211 OA
ATOM      8  C   UNL d   1      26.283 -14.375  -4.410  0.00  0.00     0.125 A 
ATOM      9  C   UNL d   1      27.351 -14.043  -5.322  0.00  0.00     0.034 A 
ATOM     10  C   UNL d   1      26.426 -15.286  -3.410  0.00  0.00     0.039 A 
ATOM     11  C   UNL d   1      28.465 -14.918  -5.264  0.00  0.00     0.082 A 
ATOM     12  C   UNL d   1      27.405 -12.938  -6.162  0.00  0.00     0.024 A 
ATOM     13  C   UNL d   1      29.588 -14.718  -6.056  0.00  0.00     0.038 A 
ATOM     14  O   UNL d   1      28.513 -16.024  -4.442  0.00  0.00    -0.346 OA
ATOM     15  C   UNL d   1      29.637 -13.604  -6.885  0.00  0.00     0.009 A 
ATOM     16  C   UNL d   1      28.555 -12.711  -6.945  0.00  0.00    -0.061 A 
ATOM     17  C   UNL d   1      28.624 -11.512  -7.846  0.00  0.00     0.048 C 
ATOM     18  C   UNL d   1      27.742 -15.909  -3.235  0.00  0.00     0.220 C 
ENDBRANCH   1   5
BRANCH   3  19
ATOM     19  C   UNL d   1      22.884 -16.793  -0.183  0.00  0.00     0.127 C 
BRANCH  19  20
ATOM     20  C   UNL d   1      22.901 -18.189  -0.672  0.00  0.00     0.056 C 
BRANCH  20  21
ATOM     21  C   UNL d   1      21.577 -18.814  -0.643  0.00  0.00    -0.048 C 
ATOM     22  C   UNL d   1      20.234 -19.641  -0.021  0.00  0.00    -0.006 C 
ATOM     23  C   UNL d   1      18.925 -20.308  -0.294  0.00  0.00     0.014 C 
ATOM     24  C   UNL d   1      20.534 -19.756   1.279  0.00  0.00     0.038 C 
ATOM     25  C   UNL d   1      18.149 -20.547   0.781  0.00  0.00     0.001 C 
ATOM     26  C   UNL d   1      18.636 -20.430   2.170  0.00  0.00     0.002 C 
ATOM     27  C   UNL d   1      19.905 -20.126   2.480  0.00  0.00     0.030 C 
ATOM     28  N   UNL d   1      21.358 -19.342   0.538  0.00  0.00    -0.385 N 
ATOM     29  C   UNL d   1      20.656 -19.325  -1.383  0.00  0.00     0.155 C 
ATOM     30  H   UNL d   1      22.122 -18.857   1.098  0.00  0.00     0.160 HD
ENDBRANCH  20  21
ENDBRANCH  19  20
ENDBRANCH   3  19
TORSDOF 4
ENDMDL
MODEL 3
REMARK VINA RESULT:   -10.262      1.512      2.012
REMARK INTER + INTRA:         -12.259
REMARK INTER:                 -11.455
REMARK INTRA:                  -0.805
REMARK CONF_INDEPENDENT:        1.193
REMARK UNBOUND:                -0.805
REMARK  4 active torsions:
REMARK  status: ('A' for Active; 'I' for Inactive)
REMARK    1  A    between atoms: C_11  and  C_12 
REMARK       I    between atoms: C_12  and  N_14 
REMARK    2  A    between atoms: N_14  and  C_15 
REMARK    3  A    between atoms: C_15  and  C_16 
REMARK    4  A    between atoms: C_16  and  C_17 
ROOT
ATOM      1  C   UNL d   1      25.334 -16.063  -1.630  0.00  0.00     0.273 C 
ATOM      2  O   UNL d   1      25.951 -16.025  -0.570  0.00  0.00    -0.266 OA
ATOM      3  N   UNL d   1      24.444 -17.077  -1.847  0.00  0.00    -0.355 N 
ATOM      4  H   UNL d   1      23.978 -17.187  -2.723  0.00  0.00     0.162 HD
ENDROOT
BRANCH   1   5
ATOM      5  C   UNL d   1      25.453 -15.098  -2.734  0.00  0.00     0.163 A 
ATOM      6  N   UNL d   1      25.156 -15.425  -4.010  0.00  0.00    -0.122 NA
ATOM      7  O   UNL d   1      25.385 -14.274  -4.784  0.00  0.00    -0.211 OA
ATOM      8  C   UNL d   1      25.813 -13.295  -3.963  0.00  0.00     0.125 A 
ATOM      9  C   UNL d   1      26.182 -11.950  -4.333  0.00  0.00     0.034 A 
ATOM     10  C   UNL d   1      25.870 -13.748  -2.682  0.00  0.00     0.039 A 
ATOM     11  C   UNL d   1      26.852 -11.225  -3.315  0.00  0.00     0.082 A 
ATOM     12  C   UNL d   1      25.881 -11.310  -5.529  0.00  0.00     0.024 A 
ATOM     13  C   UNL d   1      27.247  -9.907  -3.502  0.00  0.00     0.038 A 
ATOM     14  O   UNL d   1      27.169 -11.767  -2.088  0.00  0.00    -0.346 OA
ATOM     15  C   UNL d   1      26.931  -9.272  -4.697  0.00  0.00     0.009 A 
ATOM     16  C   UNL d   1      26.249  -9.963  -5.713  0.00  0.00    -0.061 A 
ATOM     17  C   UNL d   1      25.915  -9.263  -6.998  0.00  0.00     0.048 C 
ATOM     18  C   UNL d   1      26.278 -12.801  -1.639  0.00  0.00     0.220 C 
ENDBRANCH   1   5
BRANCH   3  19
ATOM     19  C   UNL d   1      24.180 -18.088  -0.886  0.00  0.00     0.127 C 
BRANCH  19  20
ATOM     20  C   UNL d   1      23.018 -17.534  -0.157  0.00  0.00     0.056 C 
BRANCH  20  21
ATOM     21  C   UNL d   1      21.795 -18.310  -0.368  0.00  0.00    -0.048 C 
ATOM     22  C   UNL d   1      20.497 -19.340  -0.011  0.00  0.00    -0.006 C 
ATOM     23  C   UNL d   1      19.336 -20.131  -0.522  0.00  0.00     0.014 C 
ATOM     24  C   UNL d   1      20.623 -19.528   1.309  0.00  0.00     0.038 C 
ATOM     25  C   UNL d   1      18.454 -20.550   0.406  0.00  0.00     0.001 C 
ATOM     26  C   UNL d   1      18.722 -20.495   1.858  0.00  0.00     0.002 C 
ATOM     27  C   UNL d   1      19.885 -20.071   2.374  0.00  0.00     0.030 C 
ATOM     28  N   UNL d   1      21.483 -18.958   0.728  0.00  0.00    -0.385 N 
ATOM     29  C   UNL d   1      21.061 -18.862  -1.271  0.00  0.00     0.155 C 
ATOM     30  H   UNL d   1      22.091 -18.436   1.428  0.00  0.00     0.160 HD
ENDBRANCH  20  21
ENDBRANCH  19  20
ENDBRANCH   3  19
TORSDOF 4
ENDMDL
MODEL 4
REMARK VINA RESULT:   -10.083      1.323      2.199
REMARK INTER + INTRA:         -11.758
REMARK INTER:                 -11.277
REMARK INTRA:                  -0.481
REMARK CONF_INDEPENDENT:        1.193
REMARK UNBOUND:                -0.481
REMARK  4 active torsions:
REMARK  status: ('A' for Active; 'I' for Inactive)
REMARK    1  A    between atoms: C_11  and  C_12 
REMARK       I    between atoms: C_12  and  N_14 
REMARK    2  A    between atoms: N_14  and  C_15 
REMARK    3  A    between atoms: C_15  and  C_16 
REMARK    4  A    between atoms: C_16  and  C_17 
ROOT
ATOM      1  C   UNL d   1      25.909 -17.500  -0.473  0.00  0.00     0.273 C 
ATOM      2  O   UNL d   1      26.276 -17.852   0.644  0.00  0.00    -0.266 OA
ATOM      3  N   UNL d   1      24.686 -17.902  -0.930  0.00  0.00    -0.355 N 
ATOM      4  H   UNL d   1      24.381 -17.701  -1.859  0.00  0.00     0.162 HD
ENDROOT
BRANCH   1   5
ATOM      5  C   UNL d   1      26.674 -16.661  -1.409  0.00  0.00     0.163 A 
ATOM      6  N   UNL d   1      28.020 -16.723  -1.496  0.00  0.00    -0.122 NA
ATOM      7  O   UNL d   1      28.402 -15.793  -2.479  0.00  0.00    -0.211 OA
ATOM      8  C   UNL d   1      27.289 -15.200  -2.951  0.00  0.00     0.125 A 
ATOM      9  C   UNL d   1      27.213 -14.170  -3.959  0.00  0.00     0.034 A 
ATOM     10  C   UNL d   1      26.189 -15.701  -2.328  0.00  0.00     0.039 A 
ATOM     11  C   UNL d   1      25.946 -13.541  -4.062  0.00  0.00     0.082 A 
ATOM     12  C   UNL d   1      28.216 -13.812  -4.851  0.00  0.00     0.024 A 
ATOM     13  C   UNL d   1      25.700 -12.551  -5.003  0.00  0.00     0.038 A 
ATOM     14  O   UNL d   1      24.884 -13.849  -3.239  0.00  0.00    -0.346 OA
ATOM     15  C   UNL d   1      26.707 -12.208  -5.898  0.00  0.00     0.009 A 
ATOM     16  C   UNL d   1      27.965 -12.832  -5.831  0.00  0.00    -0.061 A 
ATOM     17  C   UNL d   1      29.041 -12.449  -6.804  0.00  0.00     0.048 C 
ATOM     18  C   UNL d   1      24.876 -15.199  -2.746  0.00  0.00     0.220 C 
ENDBRANCH   1   5
BRANCH   3  19
ATOM     19  C   UNL d   1      23.799 -18.698  -0.158  0.00  0.00     0.127 C 
BRANCH  19  20
ATOM     20  C   UNL d   1      22.590 -17.848  -0.092  0.00  0.00     0.056 C 
BRANCH  20  21
ATOM     21  C   UNL d   1      21.356 -18.603  -0.320  0.00  0.00    -0.048 C 
ATOM     22  C   UNL d   1      20.050 -19.632   0.010  0.00  0.00    -0.006 C 
ATOM     23  C   UNL d   1      18.876 -20.390  -0.519  0.00  0.00     0.014 C 
ATOM     24  C   UNL d   1      20.188 -19.874   1.320  0.00  0.00     0.038 C 
ATOM     25  C   UNL d   1      17.999 -20.836   0.402  0.00  0.00     0.001 C 
ATOM     26  C   UNL d   1      18.282 -20.842   1.851  0.00  0.00     0.002 C 
ATOM     27  C   UNL d   1      19.455 -20.451   2.371  0.00  0.00     0.030 C 
ATOM     28  N   UNL d   1      21.048 -19.291   0.753  0.00  0.00    -0.385 N 
ATOM     29  C   UNL d   1      20.606 -19.111  -1.236  0.00  0.00     0.155 C 
ATOM     30  H   UNL d   1      21.669 -18.803   1.466  0.00  0.00     0.160 HD
ENDBRANCH  20  21
ENDBRANCH  19  20
ENDBRANCH   3  19
TORSDOF 4
ENDMDL
MODEL 5
REMARK VINA RESULT:   -10.039      2.308      3.203
REMARK INTER + INTRA:         -11.771
REMARK INTER:                 -11.233
REMARK INTRA:                  -0.538
REMARK CONF_INDEPENDENT:        1.193
REMARK UNBOUND:                -0.538
REMARK  4 active torsions:
REMARK  status: ('A' for Active; 'I' for Inactive)
REMARK    1  A    between atoms: C_11  and  C_12 
REMARK       I    between atoms: C_12  and  N_14 
REMARK    2  A    between atoms: N_14  and  C_15 
REMARK    3  A    between atoms: C_15  and  C_16 
REMARK    4  A    between atoms: C_16  and  C_17 
ROOT
ATOM      1  C   UNL d   1      24.832 -15.324  -2.507  0.00  0.00     0.273 C 
ATOM      2  O   UNL d   1      23.915 -14.513  -2.429  0.00  0.00    -0.266 OA
ATOM      3  N   UNL d   1      24.963 -16.278  -1.537  0.00  0.00    -0.355 N 
ATOM      4  H   UNL d   1      25.736 -16.908  -1.523  0.00  0.00     0.162 HD
ENDROOT
BRANCH   1   5
ATOM      5  C   UNL d   1      25.845 -15.384  -3.572  0.00  0.00     0.163 A 
ATOM      6  N   UNL d   1      25.529 -15.218  -4.875  0.00  0.00    -0.122 NA
ATOM      7  O   UNL d   1      26.729 -15.339  -5.598  0.00  0.00    -0.211 OA
ATOM      8  C   UNL d   1      27.725 -15.575  -4.722  0.00  0.00     0.125 A 
ATOM      9  C   UNL d   1      29.120 -15.782  -5.026  0.00  0.00     0.034 A 
ATOM     10  C   UNL d   1      27.236 -15.609  -3.453  0.00  0.00     0.039 A 
ATOM     11  C   UNL d   1      29.889 -16.279  -3.944  0.00  0.00     0.082 A 
ATOM     12  C   UNL d   1      29.758 -15.476  -6.222  0.00  0.00     0.024 A 
ATOM     13  C   UNL d   1      31.254 -16.502  -4.065  0.00  0.00     0.038 A 
ATOM     14  O   UNL d   1      29.349 -16.586  -2.713  0.00  0.00    -0.346 OA
ATOM     15  C   UNL d   1      31.886 -16.182  -5.261  0.00  0.00     0.009 A 
ATOM     16  C   UNL d   1      31.149 -15.669  -6.342  0.00  0.00    -0.061 A 
ATOM     17  C   UNL d   1      31.846 -15.329  -7.627  0.00  0.00     0.048 C 
ATOM     18  C   UNL d   1      28.189 -15.816  -2.358  0.00  0.00     0.220 C 
ENDBRANCH   1   5
BRANCH   3  19
ATOM     19  C   UNL d   1      24.066 -16.390  -0.442  0.00  0.00     0.127 C 
BRANCH  19  20
ATOM     20  C   UNL d   1      23.968 -17.855  -0.263  0.00  0.00     0.056 C 
BRANCH  20  21
ATOM     21  C   UNL d   1      22.659 -18.386  -0.646  0.00  0.00    -0.048 C 
ATOM     22  C   UNL d   1      21.148 -19.136  -0.479  0.00  0.00    -0.006 C 
ATOM     23  C   UNL d   1      19.938 -19.700  -1.150  0.00  0.00     0.014 C 
ATOM     24  C   UNL d   1      21.052 -19.314   0.845  0.00  0.00     0.038 C 
ATOM     25  C   UNL d   1      18.872 -19.919  -0.356  0.00  0.00     0.001 C 
ATOM     26  C   UNL d   1      18.941 -19.882   1.118  0.00  0.00     0.002 C 
ATOM     27  C   UNL d   1      20.082 -19.679   1.794  0.00  0.00     0.030 C 
ATOM     28  N   UNL d   1      22.078 -18.935   0.393  0.00  0.00    -0.385 N 
ATOM     29  C   UNL d   1      21.963 -18.806  -1.645  0.00  0.00     0.155 C 
ATOM     30  H   UNL d   1      22.674 -18.524   1.172  0.00  0.00     0.160 HD
ENDBRANCH  20  21
ENDBRANCH  19  20
ENDBRANCH   3  19
TORSDOF 4
ENDMDL
MODEL 6
REMARK VINA RESULT:    -9.861      2.024      3.090
REMARK INTER + INTRA:         -11.691
REMARK INTER:                 -11.054
REMARK INTRA:                  -0.637
REMARK CONF_INDEPENDENT:        1.193
REMARK UNBOUND:                -0.637
REMARK  4 active torsions:
REMARK  status: ('A' for Active; 'I' for Inactive)
REMARK    1  A    between atoms: C_11  and  C_12 
REMARK       I    between atoms: C_12  and  N_14 
REMARK    2  A    between atoms: N_14  and  C_15 
REMARK    3  A    between atoms: C_15  and  C_16 
REMARK    4  A    between atoms: C_16  and  C_17 
ROOT
ATOM      1  C   UNL d   1      24.830 -15.501  -2.167  0.00  0.00     0.273 C 
ATOM      2  O   UNL d   1      24.004 -14.749  -2.675  0.00  0.00    -0.266 OA
ATOM      3  N   UNL d   1      24.432 -16.363  -1.185  0.00  0.00    -0.355 N 
ATOM      4  H   UNL d   1      25.084 -16.937  -0.695  0.00  0.00     0.162 HD
ENDROOT
BRANCH   1   5
ATOM      5  C   UNL d   1      26.258 -15.578  -2.515  0.00  0.00     0.163 A 
ATOM      6  N   UNL d   1      27.220 -15.716  -1.578  0.00  0.00    -0.122 NA
ATOM      7  O   UNL d   1      28.447 -15.752  -2.264  0.00  0.00    -0.211 OA
ATOM      8  C   UNL d   1      28.194 -15.634  -3.581  0.00  0.00     0.125 A 
ATOM      9  C   UNL d   1      29.161 -15.606  -4.653  0.00  0.00     0.034 A 
ATOM     10  C   UNL d   1      26.856 -15.528  -3.796  0.00  0.00     0.039 A 
ATOM     11  C   UNL d   1      28.636 -15.199  -5.906  0.00  0.00     0.082 A 
ATOM     12  C   UNL d   1      30.490 -16.001  -4.576  0.00  0.00     0.024 A 
ATOM     13  C   UNL d   1      29.429 -15.149  -7.044  0.00  0.00     0.038 A 
ATOM     14  O   UNL d   1      27.324 -14.816  -6.085  0.00  0.00    -0.346 OA
ATOM     15  C   UNL d   1      30.755 -15.557  -6.959  0.00  0.00     0.009 A 
ATOM     16  C   UNL d   1      31.293 -15.984  -5.733  0.00  0.00    -0.061 A 
ATOM     17  C   UNL d   1      32.728 -16.421  -5.659  0.00  0.00     0.048 C 
ATOM     18  C   UNL d   1      26.389 -15.431  -5.183  0.00  0.00     0.220 C 
ENDBRANCH   1   5
BRANCH   3  19
ATOM     19  C   UNL d   1      23.088 -16.446  -0.732  0.00  0.00     0.127 C 
BRANCH  19  20
ATOM     20  C   UNL d   1      23.037 -17.803  -0.145  0.00  0.00     0.056 C 
BRANCH  20  21
ATOM     21  C   UNL d   1      21.748 -18.463  -0.359  0.00  0.00    -0.048 C 
ATOM     22  C   UNL d   1      20.376 -19.398  -0.015  0.00  0.00    -0.006 C 
ATOM     23  C   UNL d   1      19.140 -20.062  -0.530  0.00  0.00     0.014 C 
ATOM     24  C   UNL d   1      20.520 -19.666   1.289  0.00  0.00     0.038 C 
ATOM     25  C   UNL d   1      18.250 -20.455   0.402  0.00  0.00     0.001 C 
ATOM     26  C   UNL d   1      18.558 -20.499   1.845  0.00  0.00     0.002 C 
ATOM     27  C   UNL d   1      19.766 -20.201   2.347  0.00  0.00     0.030 C 
ATOM     28  N   UNL d   1      21.410 -19.140   0.712  0.00  0.00    -0.385 N 
ATOM     29  C   UNL d   1      20.946 -18.903  -1.266  0.00  0.00     0.155 C 
ATOM     30  H   UNL d   1      22.078 -18.708   1.419  0.00  0.00     0.160 HD
ENDBRANCH  20  21
ENDBRANCH  19  20
ENDBRANCH   3  19
TORSDOF 4
ENDMDL
MODEL 7
REMARK VINA RESULT:    -9.502      1.555      2.751
REMARK INTER + INTRA:         -11.342
REMARK INTER:                 -10.695
REMARK INTRA:                  -0.647
REMARK CONF_INDEPENDENT:        1.193
REMARK UNBOUND:                -0.647
REMARK  4 active torsions:
REMARK  status: ('A' for Active; 'I' for Inactive)
REMARK    1  A    between atoms: C_11  and  C_12 
REMARK       I    between atoms: C_12  and  N_14 
REMARK    2  A    between atoms: N_14  and  C_15 
REMARK    3  A    between atoms: C_15  and  C_16 
REMARK    4  A    between atoms: C_16  and  C_17 
ROOT
ATOM      1  C   UNL d   1      25.148 -15.222  -2.991  0.00  0.00     0.273 C 
ATOM      2  O   UNL d   1      24.119 -14.612  -2.718  0.00  0.00    -0.266 OA
ATOM      3  N   UNL d   1      25.548 -16.251  -2.185  0.00  0.00    -0.355 N 
ATOM      4  H   UNL d   1      26.415 -16.722  -2.328  0.00  0.00     0.162 HD
ENDROOT
BRANCH   1   5
ATOM      5  C   UNL d   1      26.032 -14.956  -4.137  0.00  0.00     0.163 A 
ATOM      6  N   UNL d   1      26.551 -15.949  -4.891  0.00  0.00    -0.122 NA
ATOM      7  O   UNL d   1      27.337 -15.333  -5.880  0.00  0.00    -0.211 OA
ATOM      8  C   UNL d   1      27.274 -14.000  -5.697  0.00  0.00     0.125 A 
ATOM      9  C   UNL d   1      27.942 -12.983  -6.473  0.00  0.00     0.034 A 
ATOM     10  C   UNL d   1      26.477 -13.709  -4.634  0.00  0.00     0.039 A 
ATOM     11  C   UNL d   1      27.917 -11.690  -5.891  0.00  0.00     0.082 A 
ATOM     12  C   UNL d   1      28.517 -13.146  -7.726  0.00  0.00     0.024 A 
ATOM     13  C   UNL d   1      28.489 -10.596  -6.527  0.00  0.00     0.038 A 
ATOM     14  O   UNL d   1      27.346 -11.427  -4.664  0.00  0.00    -0.346 OA
ATOM     15  C   UNL d   1      29.052 -10.768  -7.786  0.00  0.00     0.009 A 
ATOM     16  C   UNL d   1      29.071 -12.035  -8.393  0.00  0.00    -0.061 A 
ATOM     17  C   UNL d   1      29.683 -12.203  -9.753  0.00  0.00     0.048 C 
ATOM     18  C   UNL d   1      26.258 -12.296  -4.309  0.00  0.00     0.220 C 
ENDBRANCH   1   5
BRANCH   3  19
ATOM     19  C   UNL d   1      24.810 -16.666  -1.045  0.00  0.00     0.127 C 
BRANCH  19  20
ATOM     20  C   UNL d   1      23.833 -17.611  -1.629  0.00  0.00     0.056 C 
BRANCH  20  21
ATOM     21  C   UNL d   1      22.959 -18.214  -0.622  0.00  0.00    -0.048 C 
ATOM     22  C   UNL d   1      21.542 -18.835   0.072  0.00  0.00    -0.006 C 
ATOM     23  C   UNL d   1      20.852 -19.334   1.301  0.00  0.00     0.014 C 
ATOM     24  C   UNL d   1      20.681 -18.824  -0.953  0.00  0.00     0.038 C 
ATOM     25  C   UNL d   1      19.699 -20.000   1.100  0.00  0.00     0.001 C 
ATOM     26  C   UNL d   1      18.990 -20.015  -0.196  0.00  0.00     0.002 C 
ATOM     27  C   UNL d   1      19.407 -19.325  -1.268  0.00  0.00     0.030 C 
ATOM     28  N   UNL d   1      21.736 -18.305  -1.088  0.00  0.00    -0.385 N 
ATOM     29  C   UNL d   1      22.821 -18.419   0.642  0.00  0.00     0.155 C 
ATOM     30  H   UNL d   1      21.927 -18.162  -2.125  0.00  0.00     0.160 HD
ENDBRANCH  20  21
ENDBRANCH  19  20
ENDBRANCH   3  19
TORSDOF 4
ENDMDL
MODEL 8
REMARK VINA RESULT:    -9.300      3.393      9.354
REMARK INTER + INTRA:         -11.439
REMARK INTER:                 -10.493
REMARK INTRA:                  -0.945
REMARK CONF_INDEPENDENT:        1.193
REMARK UNBOUND:                -0.945
REMARK  4 active torsions:
REMARK  status: ('A' for Active; 'I' for Inactive)
REMARK    1  A    between atoms: C_11  and  C_12 
REMARK       I    between atoms: C_12  and  N_14 
REMARK    2  A    between atoms: N_14  and  C_15 
REMARK    3  A    between atoms: C_15  and  C_16 
REMARK    4  A    between atoms: C_16  and  C_17 
ROOT
ATOM      1  C   UNL d   1      27.354 -13.726  -5.286  0.00  0.00     0.273 C 
ATOM      2  O   UNL d   1      27.619 -12.531  -5.356  0.00  0.00    -0.266 OA
ATOM      3  N   UNL d   1      28.015 -14.605  -6.097  0.00  0.00    -0.355 N 
ATOM      4  H   UNL d   1      27.777 -15.574  -6.124  0.00  0.00     0.162 HD
ENDROOT
BRANCH   1   5
ATOM      5  C   UNL d   1      26.362 -14.340  -4.388  0.00  0.00     0.163 A 
ATOM      6  N   UNL d   1      25.042 -14.073  -4.485  0.00  0.00    -0.122 NA
ATOM      7  O   UNL d   1      24.406 -14.824  -3.480  0.00  0.00    -0.211 OA
ATOM      8  C   UNL d   1      25.350 -15.513  -2.810  0.00  0.00     0.125 A 
ATOM      9  C   UNL d   1      25.147 -16.399  -1.690  0.00  0.00     0.034 A 
ATOM     10  C   UNL d   1      26.579 -15.255  -3.332  0.00  0.00     0.039 A 
ATOM     11  C   UNL d   1      26.337 -16.770  -1.013  0.00  0.00     0.082 A 
ATOM     12  C   UNL d   1      23.941 -16.954  -1.283  0.00  0.00     0.024 A 
ATOM     13  C   UNL d   1      26.317 -17.641   0.068  0.00  0.00     0.038 A 
ATOM     14  O   UNL d   1      27.582 -16.292  -1.361  0.00  0.00    -0.346 OA
ATOM     15  C   UNL d   1      25.106 -18.200   0.460  0.00  0.00     0.009 A 
ATOM     16  C   UNL d   1      23.916 -17.864  -0.208  0.00  0.00    -0.061 A 
ATOM     17  C   UNL d   1      22.617 -18.476   0.229  0.00  0.00     0.048 C 
ATOM     18  C   UNL d   1      27.730 -15.954  -2.750  0.00  0.00     0.220 C 
ENDBRANCH   1   5
BRANCH   3  19
ATOM     19  C   UNL d   1      29.021 -14.199  -7.012  0.00  0.00     0.127 C 
BRANCH  19  20
ATOM     20  C   UNL d   1      30.264 -14.504  -6.270  0.00  0.00     0.056 C 
BRANCH  20  21
ATOM     21  C   UNL d   1      30.340 -15.903  -5.845  0.00  0.00    -0.048 C 
ATOM     22  C   UNL d   1      30.485 -17.587  -5.974  0.00  0.00    -0.006 C 
ATOM     23  C   UNL d   1      30.404 -18.916  -5.296  0.00  0.00     0.014 C 
ATOM     24  C   UNL d   1      30.758 -17.761  -7.274  0.00  0.00     0.038 C 
ATOM     25  C   UNL d   1      30.956 -19.951  -5.959  0.00  0.00     0.001 C 
ATOM     26  C   UNL d   1      31.371 -19.874  -7.374  0.00  0.00     0.002 C 
ATOM     27  C   UNL d   1      31.187 -18.785  -8.135  0.00  0.00     0.030 C 
ATOM     28  N   UNL d   1      30.455 -16.682  -6.894  0.00  0.00    -0.385 N 
ATOM     29  C   UNL d   1      30.040 -16.714  -4.891  0.00  0.00     0.155 C 
ATOM     30  H   UNL d   1      30.733 -15.962  -7.626  0.00  0.00     0.160 HD
ENDBRANCH  20  21
ENDBRANCH  19  20
ENDBRANCH   3  19
TORSDOF 4
ENDMDL
MODEL 9
REMARK VINA RESULT:    -9.261      7.756     10.204
REMARK INTER + INTRA:         -11.362
REMARK INTER:                 -10.454
REMARK INTRA:                  -0.908
REMARK CONF_INDEPENDENT:        1.193
REMARK UNBOUND:                -0.908
REMARK  4 active torsions:
REMARK  status: ('A' for Active; 'I' for Inactive)
REMARK    1  A    between atoms: C_11  and  C_12 
REMARK       I    between atoms: C_12  and  N_14 
REMARK    2  A    between atoms: N_14  and  C_15 
REMARK    3  A    between atoms: C_15  and  C_16 
REMARK    4  A    between atoms: C_16  and  C_17 
ROOT
ATOM      1  C   UNL d   1      27.630 -13.940   2.619  0.00  0.00     0.273 C 
ATOM      2  O   UNL d   1      26.957 -12.990   2.233  0.00  0.00    -0.266 OA
ATOM      3  N   UNL d   1      28.127 -14.822   1.701  0.00  0.00    -0.355 N 
ATOM      4  H   UNL d   1      28.614 -15.647   1.977  0.00  0.00     0.162 HD
ENDROOT
BRANCH   1   5
ATOM      5  C   UNL d   1      27.973 -14.245   4.017  0.00  0.00     0.163 A 
ATOM      6  N   UNL d   1      28.156 -15.510   4.453  0.00  0.00    -0.122 NA
ATOM      7  O   UNL d   1      28.465 -15.422   5.822  0.00  0.00    -0.211 OA
ATOM      8  C   UNL d   1      28.458 -14.121   6.171  0.00  0.00     0.125 A 
ATOM      9  C   UNL d   1      28.707 -13.571   7.482  0.00  0.00     0.034 A 
ATOM     10  C   UNL d   1      28.164 -13.347   5.092  0.00  0.00     0.039 A 
ATOM     11  C   UNL d   1      28.366 -12.201   7.618  0.00  0.00     0.082 A 
ATOM     12  C   UNL d   1      29.298 -14.227   8.554  0.00  0.00     0.024 A 
ATOM     13  C   UNL d   1      28.572 -11.515   8.807  0.00  0.00     0.038 A 
ATOM     14  O   UNL d   1      27.800 -11.461   6.601  0.00  0.00    -0.346 OA
ATOM     15  C   UNL d   1      29.174 -12.178   9.870  0.00  0.00     0.009 A 
ATOM     16  C   UNL d   1      29.540 -13.529   9.754  0.00  0.00    -0.061 A 
ATOM     17  C   UNL d   1      30.190 -14.230  10.912  0.00  0.00     0.048 C 
ATOM     18  C   UNL d   1      28.152 -11.892   5.276  0.00  0.00     0.220 C 
ENDBRANCH   1   5
BRANCH   3  19
ATOM     19  C   UNL d   1      27.917 -14.678   0.304  0.00  0.00     0.127 C 
BRANCH  19  20
ATOM     20  C   UNL d   1      28.186 -16.044  -0.198  0.00  0.00     0.056 C 
BRANCH  20  21
ATOM     21  C   UNL d   1      27.063 -16.957   0.021  0.00  0.00    -0.048 C 
ATOM     22  C   UNL d   1      25.463 -17.518   0.035  0.00  0.00    -0.006 C 
ATOM     23  C   UNL d   1      24.500 -18.574   0.473  0.00  0.00     0.014 C 
ATOM     24  C   UNL d   1      24.803 -16.546  -0.608  0.00  0.00     0.038 C 
ATOM     25  C   UNL d   1      23.299 -18.566  -0.137  0.00  0.00     0.001 C 
ATOM     26  C   UNL d   1      22.828 -17.447  -0.978  0.00  0.00     0.002 C 
ATOM     27  C   UNL d   1      23.533 -16.322  -1.165  0.00  0.00     0.030 C 
ATOM     28  N   UNL d   1      25.940 -16.375  -0.326  0.00  0.00    -0.385 N 
ATOM     29  C   UNL d   1      26.680 -17.986   0.694  0.00  0.00     0.155 C 
ATOM     30  H   UNL d   1      26.325 -15.565  -0.898  0.00  0.00     0.160 HD
ENDBRANCH  20  21
ENDBRANCH  19  20
ENDBRANCH   3  19
TORSDOF 4
ENDMDL
