MODEL 1
REMARK VINA RESULT:   -10.023      0.000      0.000
REMARK INTER + INTRA:         -14.332
REMARK INTER:                 -12.708
REMARK INTRA:                  -1.624
REMARK CONF_INDEPENDENT:        2.685
REMARK UNBOUND:                -1.624
REMARK  9 active torsions:
REMARK  status: ('A' for Active; 'I' for Inactive)
REMARK    1  A    between atoms: C_8  and  C_9 
REMARK    2  A    between atoms: C_9  and  C_11 
REMARK    3  A    between atoms: C_11  and  O_12 
REMARK    4  A    between atoms: O_12  and  C_13 
REMARK    5  A    between atoms: C_15  and  C_13 
REMARK    6  A    between atoms: C_15  and  N_26 
REMARK    7  A    between atoms: C_15  and  C_16 
REMARK    8  A    between atoms: C_16  and  C_17 
REMARK       I    between atoms: N_26  and  C_27 
REMARK    9  A    between atoms: C_27  and  C_29 
ROOT
ATOM      1  C   UNL d   1      26.196 -14.972  -4.178  0.00  0.00     0.189 C 
ENDROOT
BRANCH   1   2
ATOM      2  N   UNL d   1      25.888 -13.636  -4.740  0.00  0.00    -0.343 N 
ATOM      3  C   UNL d   1      25.940 -12.511  -3.932  0.00  0.00     0.252 C 
ATOM      4  O   UNL d   1      26.123 -12.561  -2.717  0.00  0.00    -0.268 OA
ATOM      5  H   UNL d   1      25.743 -13.533  -5.736  0.00  0.00     0.163 HD
BRANCH   3   6
ATOM      6  C   UNL d   1      25.799 -11.192  -4.597  0.00  0.00     0.032 A 
ATOM      7  C   UNL d   1      25.549 -10.042  -3.844  0.00  0.00     0.020 A 
ATOM      8  C   UNL d   1      25.498  -8.796  -4.477  0.00  0.00     0.043 A 
ATOM      9  C   UNL d   1      25.693  -8.708  -5.853  0.00  0.00     0.116 A 
ATOM     10  F   UNL d   1      25.649  -7.508  -6.449  0.00  0.00    -0.206 F 
ATOM     11  C   UNL d   1      25.940  -9.844  -6.614  0.00  0.00     0.043 A 
ATOM     12  C   UNL d   1      25.997 -11.092  -5.985  0.00  0.00     0.020 A 
ENDBRANCH   3   6
ENDBRANCH   1   2
BRANCH   1  13
ATOM     13  C   UNL d   1      27.700 -15.135  -3.861  0.00  0.00     0.076 C 
BRANCH  13  14
ATOM     14  C   UNL d   1      28.595 -15.201  -5.078  0.00  0.00    -0.028 A 
ATOM     15  C   UNL d   1      28.613 -14.335  -6.158  0.00  0.00     0.096 A 
ATOM     16  N   UNL d   1      29.424 -14.846  -7.127  0.00  0.00    -0.365 N 
ATOM     17  C   UNL d   1      30.049 -15.973  -6.661  0.00  0.00     0.042 A 
ATOM     18  H   UNL d   1      29.532 -14.457  -8.053  0.00  0.00     0.165 HD
ATOM     19  C   UNL d   1      30.995 -16.791  -7.284  0.00  0.00     0.030 A 
ATOM     20  C   UNL d   1      29.556 -16.218  -5.376  0.00  0.00    -0.002 A 
ATOM     21  C   UNL d   1      31.457 -17.895  -6.566  0.00  0.00     0.002 A 
ATOM     22  C   UNL d   1      30.989 -18.168  -5.283  0.00  0.00     0.001 A 
ATOM     23  C   UNL d   1      30.035 -17.342  -4.677  0.00  0.00     0.014 A 
ENDBRANCH  13  14
ENDBRANCH   1  13
BRANCH   1  24
ATOM     24  C   UNL d   1      25.368 -15.298  -2.892  0.00  0.00     0.282 C 
ATOM     25  O   UNL d   1      24.306 -14.775  -2.558  0.00  0.00    -0.263 OA
BRANCH  24  26
ATOM     26  O   UNL d   1      25.956 -16.213  -2.091  0.00  0.00    -0.312 OA
BRANCH  26  27
ATOM     27  C   UNL d   1      25.555 -16.074  -0.734  0.00  0.00     0.262 C 
BRANCH  27  28
ATOM     28  C   UNL d   1      25.304 -17.448  -0.159  0.00  0.00     0.183 C 
ATOM     29  O   UNL d   1      26.150 -18.076   0.475  0.00  0.00    -0.290 OA
BRANCH  28  30
ATOM     30  C   UNL d   1      23.976 -18.072  -0.399  0.00  0.00     0.014 A 
ATOM     31  C   UNL d   1      23.637 -18.381  -1.724  0.00  0.00     0.018 A 
ATOM     32  C   UNL d   1      22.401 -18.949  -2.019  0.00  0.00     0.040 A 
ATOM     33  C   UNL d   1      21.499 -19.211  -0.995  0.00  0.00     0.096 A 
ATOM     34  O   UNL d   1      20.327 -19.810  -1.360  0.00  0.00    -0.340 OA
ATOM     35  C   UNL d   1      21.836 -18.921   0.331  0.00  0.00     0.069 A 
ATOM     36  C   UNL d   1      19.300 -19.700  -0.385  0.00  0.00     0.278 C 
ATOM     37  C   UNL d   1      19.683 -19.690   1.093  0.00  0.00     0.246 C 
ATOM     38  O   UNL d   1      18.903 -19.984   1.994  0.00  0.00    -0.271 OA
ATOM     39  N   UNL d   1      20.947 -19.235   1.359  0.00  0.00    -0.323 N 
ATOM     40  H   UNL d   1      21.203 -19.150   2.334  0.00  0.00     0.169 HD
ATOM     41  C   UNL d   1      23.071 -18.347   0.635  0.00  0.00     0.047 A 
ENDBRANCH  28  30
ENDBRANCH  27  28
ENDBRANCH  26  27
ENDBRANCH  24  26
ENDBRANCH   1  24
TORSDOF 9
ENDMDL
MODEL 2
REMARK VINA RESULT:    -9.277      2.783      6.367
REMARK INTER + INTRA:         -14.536
REMARK INTER:                 -11.961
REMARK INTRA:                  -2.574
REMARK CONF_INDEPENDENT:        2.685
REMARK UNBOUND:                -2.574
REMARK  9 active torsions:
REMARK  status: ('A' for Active; 'I' for Inactive)
REMARK    1  A    between atoms: C_8  and  C_9 
REMARK    2  A    between atoms: C_9  and  C_11 
REMARK    3  A    between atoms: C_11  and  O_12 
REMARK    4  A    between atoms: O_12  and  C_13 
REMARK    5  A    between atoms: C_15  and  C_13 
REMARK    6  A    between atoms: C_15  and  N_26 
REMARK    7  A    between atoms: C_15  and  C_16 
REMARK    8  A    between atoms: C_16  and  C_17 
REMARK       I    between atoms: N_26  and  C_27 
REMARK    9  A    between atoms: C_27  and  C_29 
ROOT
ATOM      1  C   UNL d   1      27.105 -13.213  -4.177  0.00  0.00     0.189 C 
ENDROOT
BRANCH   1   2
ATOM      2  N   UNL d   1      28.191 -14.221  -4.152  0.00  0.00    -0.343 N 
ATOM      3  C   UNL d   1      28.155 -15.305  -5.016  0.00  0.00     0.252 C 
ATOM      4  O   UNL d   1      27.199 -15.553  -5.748  0.00  0.00    -0.268 OA
ATOM      5  H   UNL d   1      29.009 -14.062  -3.579  0.00  0.00     0.163 HD
BRANCH   3   6
ATOM      6  C   UNL d   1      29.358 -16.173  -5.063  0.00  0.00     0.032 A 
ATOM      7  C   UNL d   1      30.247 -16.093  -6.139  0.00  0.00     0.020 A 
ATOM      8  C   UNL d   1      31.417 -16.860  -6.129  0.00  0.00     0.043 A 
ATOM      9  C   UNL d   1      31.688 -17.699  -5.052  0.00  0.00     0.116 A 
ATOM     10  F   UNL d   1      32.815 -18.424  -5.050  0.00  0.00    -0.206 F 
ATOM     11  C   UNL d   1      30.811 -17.790  -3.978  0.00  0.00     0.043 A 
ATOM     12  C   UNL d   1      29.643 -17.021  -3.979  0.00  0.00     0.020 A 
ENDBRANCH   3   6
ENDBRANCH   1   2
BRANCH   1  13
ATOM     13  C   UNL d   1      27.053 -12.450  -5.521  0.00  0.00     0.076 C 
BRANCH  13  14
ATOM     14  C   UNL d   1      26.215 -11.193  -5.497  0.00  0.00    -0.028 A 
ATOM     15  C   UNL d   1      25.462 -10.663  -6.532  0.00  0.00     0.096 A 
ATOM     16  N   UNL d   1      25.014  -9.427  -6.171  0.00  0.00    -0.365 N 
ATOM     17  C   UNL d   1      25.345  -9.177  -4.865  0.00  0.00     0.042 A 
ATOM     18  H   UNL d   1      24.525  -8.789  -6.784  0.00  0.00     0.165 HD
ATOM     19  C   UNL d   1      25.051  -8.070  -4.066  0.00  0.00     0.030 A 
ATOM     20  C   UNL d   1      26.092 -10.268  -4.412  0.00  0.00    -0.002 A 
ATOM     21  C   UNL d   1      25.533  -8.080  -2.756  0.00  0.00     0.002 A 
ATOM     22  C   UNL d   1      26.279  -9.152  -2.272  0.00  0.00     0.001 A 
ATOM     23  C   UNL d   1      26.571 -10.249  -3.088  0.00  0.00     0.014 A 
ENDBRANCH  13  14
ENDBRANCH   1  13
BRANCH   1  24
ATOM     24  C   UNL d   1      25.697 -13.826  -3.887  0.00  0.00     0.282 C 
ATOM     25  O   UNL d   1      24.966 -14.389  -4.702  0.00  0.00    -0.263 OA
BRANCH  24  26
ATOM     26  O   UNL d   1      25.280 -13.642  -2.616  0.00  0.00    -0.312 OA
BRANCH  26  27
ATOM     27  C   UNL d   1      26.367 -13.489  -1.712  0.00  0.00     0.262 C 
BRANCH  27  28
ATOM     28  C   UNL d   1      26.989 -14.842  -1.464  0.00  0.00     0.183 C 
ATOM     29  O   UNL d   1      28.195 -15.057  -1.570  0.00  0.00    -0.290 OA
BRANCH  28  30
ATOM     30  C   UNL d   1      26.086 -15.968  -1.102  0.00  0.00     0.014 A 
ATOM     31  C   UNL d   1      26.678 -17.129  -0.586  0.00  0.00     0.018 A 
ATOM     32  C   UNL d   1      25.891 -18.226  -0.244  0.00  0.00     0.040 A 
ATOM     33  C   UNL d   1      24.513 -18.168  -0.416  0.00  0.00     0.096 A 
ATOM     34  O   UNL d   1      23.807 -19.267  -0.016  0.00  0.00    -0.340 OA
ATOM     35  C   UNL d   1      23.914 -17.006  -0.914  0.00  0.00     0.069 A 
ATOM     36  C   UNL d   1      22.496 -19.333  -0.556  0.00  0.00     0.278 C 
ATOM     37  C   UNL d   1      21.736 -18.033  -0.813  0.00  0.00     0.246 C 
ATOM     38  O   UNL d   1      20.513 -17.972  -0.900  0.00  0.00    -0.271 OA
ATOM     39  N   UNL d   1      22.526 -16.936  -1.034  0.00  0.00    -0.323 N 
ATOM     40  H   UNL d   1      22.052 -16.076  -1.276  0.00  0.00     0.169 HD
ATOM     41  C   UNL d   1      24.695 -15.904  -1.263  0.00  0.00     0.047 A 
ENDBRANCH  28  30
ENDBRANCH  27  28
ENDBRANCH  26  27
ENDBRANCH  24  26
ENDBRANCH   1  24
TORSDOF 9
ENDMDL
MODEL 3
REMARK VINA RESULT:    -9.208      3.333      8.633
REMARK INTER + INTRA:         -14.487
REMARK INTER:                 -11.893
REMARK INTRA:                  -2.594
REMARK CONF_INDEPENDENT:        2.685
REMARK UNBOUND:                -2.594
REMARK  9 active torsions:
REMARK  status: ('A' for Active; 'I' for Inactive)
REMARK    1  A    between atoms: C_8  and  C_9 
REMARK    2  A    between atoms: C_9  and  C_11 
REMARK    3  A    between atoms: C_11  and  O_12 
REMARK    4  A    between atoms: O_12  and  C_13 
REMARK    5  A    between atoms: C_15  and  C_13 
REMARK    6  A    between atoms: C_15  and  N_26 
REMARK    7  A    between atoms: C_15  and  C_16 
REMARK    8  A    between atoms: C_16  and  C_17 
REMARK       I    between atoms: N_26  and  C_27 
REMARK    9  A    between atoms: C_27  and  C_29 
ROOT
ATOM      1  C   UNL d   1      26.445 -15.180  -3.033  0.00  0.00     0.189 C 
ENDROOT
BRANCH   1   2
ATOM      2  N   UNL d   1      27.646 -15.042  -3.890  0.00  0.00    -0.343 N 
ATOM      3  C   UNL d   1      27.544 -15.204  -5.263  0.00  0.00     0.252 C 
ATOM      4  O   UNL d   1      26.515 -15.574  -5.825  0.00  0.00    -0.268 OA
ATOM      5  H   UNL d   1      28.517 -14.726  -3.484  0.00  0.00     0.163 HD
BRANCH   3   6
ATOM      6  C   UNL d   1      28.743 -14.874  -6.074  0.00  0.00     0.032 A 
ATOM      7  C   UNL d   1      28.858 -13.625  -6.692  0.00  0.00     0.020 A 
ATOM      8  C   UNL d   1      30.028 -13.301  -7.386  0.00  0.00     0.043 A 
ATOM      9  C   UNL d   1      31.069 -14.222  -7.461  0.00  0.00     0.116 A 
ATOM     10  F   UNL d   1      32.189 -13.899  -8.122  0.00  0.00    -0.206 F 
ATOM     11  C   UNL d   1      30.967 -15.468  -6.852  0.00  0.00     0.043 A 
ATOM     12  C   UNL d   1      29.801 -15.795  -6.152  0.00  0.00     0.020 A 
ENDBRANCH   3   6
ENDBRANCH   1   2
BRANCH   1  13
ATOM     13  C   UNL d   1      26.811 -15.290  -1.536  0.00  0.00     0.076 C 
BRANCH  13  14
ATOM     14  C   UNL d   1      26.278 -16.525  -0.847  0.00  0.00    -0.028 A 
ATOM     15  C   UNL d   1      27.010 -17.534  -0.242  0.00  0.00     0.096 A 
ATOM     16  N   UNL d   1      26.171 -18.557   0.089  0.00  0.00    -0.365 N 
ATOM     17  C   UNL d   1      24.875 -18.194  -0.166  0.00  0.00     0.042 A 
ATOM     18  H   UNL d   1      26.469 -19.452   0.452  0.00  0.00     0.165 HD
ATOM     19  C   UNL d   1      23.690 -18.899   0.061  0.00  0.00     0.030 A 
ATOM     20  C   UNL d   1      24.908 -16.923  -0.747  0.00  0.00    -0.002 A 
ATOM     21  C   UNL d   1      22.496 -18.280  -0.314  0.00  0.00     0.002 A 
ATOM     22  C   UNL d   1      22.492 -17.013  -0.893  0.00  0.00     0.001 A 
ATOM     23  C   UNL d   1      23.689 -16.325  -1.120  0.00  0.00     0.014 A 
ENDBRANCH  13  14
ENDBRANCH   1  13
BRANCH   1  24
ATOM     24  C   UNL d   1      25.424 -14.011  -3.221  0.00  0.00     0.282 C 
ATOM     25  O   UNL d   1      24.672 -13.848  -4.181  0.00  0.00    -0.263 OA
BRANCH  24  26
ATOM     26  O   UNL d   1      25.458 -13.101  -2.223  0.00  0.00    -0.312 OA
BRANCH  26  27
ATOM     27  C   UNL d   1      26.711 -12.433  -2.147  0.00  0.00     0.262 C 
BRANCH  27  28
ATOM     28  C   UNL d   1      27.177 -12.112  -3.547  0.00  0.00     0.183 C 
ATOM     29  O   UNL d   1      28.147 -12.653  -4.073  0.00  0.00    -0.290 OA
BRANCH  28  30
ATOM     30  C   UNL d   1      26.435 -11.070  -4.306  0.00  0.00     0.014 A 
ATOM     31  C   UNL d   1      26.228 -11.292  -5.675  0.00  0.00     0.018 A 
ATOM     32  C   UNL d   1      25.557 -10.348  -6.447  0.00  0.00     0.040 A 
ATOM     33  C   UNL d   1      25.091  -9.178  -5.857  0.00  0.00     0.096 A 
ATOM     34  O   UNL d   1      24.405  -8.322  -6.670  0.00  0.00    -0.340 OA
ATOM     35  C   UNL d   1      25.279  -8.958  -4.488  0.00  0.00     0.069 A 
ATOM     36  C   UNL d   1      24.297  -7.004  -6.154  0.00  0.00     0.278 C 
ATOM     37  C   UNL d   1      24.198  -6.809  -4.643  0.00  0.00     0.246 C 
ATOM     38  O   UNL d   1      23.727  -5.802  -4.121  0.00  0.00    -0.271 OA
ATOM     39  N   UNL d   1      24.762  -7.807  -3.893  0.00  0.00    -0.323 N 
ATOM     40  H   UNL d   1      24.775  -7.670  -2.891  0.00  0.00     0.169 HD
ATOM     41  C   UNL d   1      25.954  -9.896  -3.709  0.00  0.00     0.047 A 
ENDBRANCH  28  30
ENDBRANCH  27  28
ENDBRANCH  26  27
ENDBRANCH  24  26
ENDBRANCH   1  24
TORSDOF 9
ENDMDL
MODEL 4
REMARK VINA RESULT:    -9.128      1.719      2.825
REMARK INTER + INTRA:         -14.480
REMARK INTER:                 -11.812
REMARK INTRA:                  -2.668
REMARK CONF_INDEPENDENT:        2.685
REMARK UNBOUND:                -2.668
REMARK  9 active torsions:
REMARK  status: ('A' for Active; 'I' for Inactive)
REMARK    1  A    between atoms: C_8  and  C_9 
REMARK    2  A    between atoms: C_9  and  C_11 
REMARK    3  A    between atoms: C_11  and  O_12 
REMARK    4  A    between atoms: O_12  and  C_13 
REMARK    5  A    between atoms: C_15  and  C_13 
REMARK    6  A    between atoms: C_15  and  N_26 
REMARK    7  A    between atoms: C_15  and  C_16 
REMARK    8  A    between atoms: C_16  and  C_17 
REMARK       I    between atoms: N_26  and  C_27 
REMARK    9  A    between atoms: C_27  and  C_29 
ROOT
ATOM      1  C   UNL d   1      26.815 -13.218  -5.604  0.00  0.00     0.189 C 
ENDROOT
BRANCH   1   2
ATOM      2  N   UNL d   1      26.166 -11.904  -5.386  0.00  0.00    -0.343 N 
ATOM      3  C   UNL d   1      26.676 -10.766  -5.991  0.00  0.00     0.252 C 
ATOM      4  O   UNL d   1      27.727 -10.753  -6.628  0.00  0.00    -0.268 OA
ATOM      5  H   UNL d   1      25.290 -11.856  -4.881  0.00  0.00     0.163 HD
BRANCH   3   6
ATOM      6  C   UNL d   1      25.874  -9.522  -5.877  0.00  0.00     0.032 A 
ATOM      7  C   UNL d   1      25.822  -8.613  -6.937  0.00  0.00     0.020 A 
ATOM      8  C   UNL d   1      25.000  -7.486  -6.845  0.00  0.00     0.043 A 
ATOM      9  C   UNL d   1      24.239  -7.273  -5.698  0.00  0.00     0.116 A 
ATOM     10  F   UNL d   1      23.448  -6.194  -5.622  0.00  0.00    -0.206 F 
ATOM     11  C   UNL d   1      24.283  -8.168  -4.635  0.00  0.00     0.043 A 
ATOM     12  C   UNL d   1      25.100  -9.300  -4.725  0.00  0.00     0.020 A 
ENDBRANCH   3   6
ENDBRANCH   1   2
BRANCH   1  13
ATOM     13  C   UNL d   1      28.253 -13.255  -5.038  0.00  0.00     0.076 C 
BRANCH  13  14
ATOM     14  C   UNL d   1      29.251 -13.987  -5.906  0.00  0.00    -0.028 A 
ATOM     15  C   UNL d   1      29.885 -13.515  -7.043  0.00  0.00     0.096 A 
ATOM     16  N   UNL d   1      30.557 -14.541  -7.639  0.00  0.00    -0.365 N 
ATOM     17  C   UNL d   1      30.489 -15.659  -6.850  0.00  0.00     0.042 A 
ATOM     18  H   UNL d   1      31.019 -14.483  -8.536  0.00  0.00     0.165 HD
ATOM     19  C   UNL d   1      31.067 -16.917  -7.035  0.00  0.00     0.030 A 
ATOM     20  C   UNL d   1      29.684 -15.342  -5.752  0.00  0.00    -0.002 A 
ATOM     21  C   UNL d   1      30.816 -17.885  -6.060  0.00  0.00     0.002 A 
ATOM     22  C   UNL d   1      30.020 -17.603  -4.953  0.00  0.00     0.001 A 
ATOM     23  C   UNL d   1      29.444 -16.339  -4.788  0.00  0.00     0.014 A 
ENDBRANCH  13  14
ENDBRANCH   1  13
BRANCH   1  24
ATOM     24  C   UNL d   1      26.002 -14.408  -4.999  0.00  0.00     0.282 C 
ATOM     25  O   UNL d   1      26.227 -15.606  -5.168  0.00  0.00    -0.263 OA
BRANCH  24  26
ATOM     26  O   UNL d   1      24.933 -14.015  -4.272  0.00  0.00    -0.312 OA
BRANCH  26  27
ATOM     27  C   UNL d   1      25.309 -13.499  -3.001  0.00  0.00     0.262 C 
BRANCH  27  28
ATOM     28  C   UNL d   1      26.157 -14.526  -2.290  0.00  0.00     0.183 C 
ATOM     29  O   UNL d   1      27.384 -14.466  -2.241  0.00  0.00    -0.290 OA
BRANCH  28  30
ATOM     30  C   UNL d   1      25.467 -15.676  -1.646  0.00  0.00     0.014 A 
ATOM     31  C   UNL d   1      26.265 -16.625  -0.993  0.00  0.00     0.018 A 
ATOM     32  C   UNL d   1      25.683 -17.734  -0.385  0.00  0.00     0.040 A 
ATOM     33  C   UNL d   1      24.304 -17.901  -0.429  0.00  0.00     0.096 A 
ATOM     34  O   UNL d   1      23.805 -18.990   0.228  0.00  0.00    -0.340 OA
ATOM     35  C   UNL d   1      23.499 -16.949  -1.064  0.00  0.00     0.069 A 
ATOM     36  C   UNL d   1      22.485 -19.338  -0.160  0.00  0.00     0.278 C 
ATOM     37  C   UNL d   1      21.518 -18.229  -0.568  0.00  0.00     0.246 C 
ATOM     38  O   UNL d   1      20.297 -18.355  -0.544  0.00  0.00    -0.271 OA
ATOM     39  N   UNL d   1      22.112 -17.096  -1.057  0.00  0.00    -0.323 N 
ATOM     40  H   UNL d   1      21.496 -16.372  -1.401  0.00  0.00     0.169 HD
ATOM     41  C   UNL d   1      24.075 -15.837  -1.679  0.00  0.00     0.047 A 
ENDBRANCH  28  30
ENDBRANCH  27  28
ENDBRANCH  26  27
ENDBRANCH  24  26
ENDBRANCH   1  24
TORSDOF 9
ENDMDL
MODEL 5
REMARK VINA RESULT:    -9.120      3.807      7.580
REMARK INTER + INTRA:         -14.649
REMARK INTER:                 -11.805
REMARK INTRA:                  -2.844
REMARK CONF_INDEPENDENT:        2.685
REMARK UNBOUND:                -2.844
REMARK  9 active torsions:
REMARK  status: ('A' for Active; 'I' for Inactive)
REMARK    1  A    between atoms: C_8  and  C_9 
REMARK    2  A    between atoms: C_9  and  C_11 
REMARK    3  A    between atoms: C_11  and  O_12 
REMARK    4  A    between atoms: O_12  and  C_13 
REMARK    5  A    between atoms: C_15  and  C_13 
REMARK    6  A    between atoms: C_15  and  N_26 
REMARK    7  A    between atoms: C_15  and  C_16 
REMARK    8  A    between atoms: C_16  and  C_17 
REMARK       I    between atoms: N_26  and  C_27 
REMARK    9  A    between atoms: C_27  and  C_29 
ROOT
ATOM      1  C   UNL d   1      26.474 -15.316  -2.953  0.00  0.00     0.189 C 
ENDROOT
BRANCH   1   2
ATOM      2  N   UNL d   1      27.664 -15.099  -3.809  0.00  0.00    -0.343 N 
ATOM      3  C   UNL d   1      27.558 -15.199  -5.187  0.00  0.00     0.252 C 
ATOM      4  O   UNL d   1      26.538 -15.575  -5.761  0.00  0.00    -0.268 OA
ATOM      5  H   UNL d   1      28.527 -14.774  -3.393  0.00  0.00     0.163 HD
BRANCH   3   6
ATOM      6  C   UNL d   1      28.740 -14.793  -5.988  0.00  0.00     0.032 A 
ATOM      7  C   UNL d   1      28.948 -13.449  -6.314  0.00  0.00     0.020 A 
ATOM      8  C   UNL d   1      30.107 -13.073  -7.000  0.00  0.00     0.043 A 
ATOM      9  C   UNL d   1      31.045 -14.037  -7.357  0.00  0.00     0.116 A 
ATOM     10  F   UNL d   1      32.157 -13.665  -8.008  0.00  0.00    -0.206 F 
ATOM     11  C   UNL d   1      30.851 -15.376  -7.041  0.00  0.00     0.043 A 
ATOM     12  C   UNL d   1      29.696 -15.757  -6.350  0.00  0.00     0.020 A 
ENDBRANCH   3   6
ENDBRANCH   1   2
BRANCH   1  13
ATOM     13  C   UNL d   1      26.855 -15.505  -1.468  0.00  0.00     0.076 C 
BRANCH  13  14
ATOM     14  C   UNL d   1      26.231 -16.714  -0.808  0.00  0.00    -0.028 A 
ATOM     15  C   UNL d   1      26.884 -17.783  -0.217  0.00  0.00     0.096 A 
ATOM     16  N   UNL d   1      25.974 -18.750   0.087  0.00  0.00    -0.365 N 
ATOM     17  C   UNL d   1      24.708 -18.293  -0.171  0.00  0.00     0.042 A 
ATOM     18  H   UNL d   1      26.205 -19.671   0.434  0.00  0.00     0.165 HD
ATOM     19  C   UNL d   1      23.475 -18.917   0.033  0.00  0.00     0.030 A 
ATOM     20  C   UNL d   1      24.835 -17.016  -0.726  0.00  0.00    -0.002 A 
ATOM     21  C   UNL d   1      22.331 -18.209  -0.339  0.00  0.00     0.002 A 
ATOM     22  C   UNL d   1      22.421 -16.934  -0.893  0.00  0.00     0.001 A 
ATOM     23  C   UNL d   1      23.664 -16.327  -1.097  0.00  0.00     0.014 A 
ENDBRANCH  13  14
ENDBRANCH   1  13
BRANCH   1  24
ATOM     24  C   UNL d   1      25.425 -14.162  -3.064  0.00  0.00     0.282 C 
ATOM     25  O   UNL d   1      24.525 -14.073  -3.900  0.00  0.00    -0.263 OA
BRANCH  24  26
ATOM     26  O   UNL d   1      25.610 -13.176  -2.159  0.00  0.00    -0.312 OA
BRANCH  26  27
ATOM     27  C   UNL d   1      26.672 -12.304  -2.525  0.00  0.00     0.262 C 
BRANCH  27  28
ATOM     28  C   UNL d   1      27.890 -12.651  -1.704  0.00  0.00     0.183 C 
ATOM     29  O   UNL d   1      28.951 -13.026  -2.201  0.00  0.00    -0.290 OA
BRANCH  28  30
ATOM     30  C   UNL d   1      27.784 -12.556  -0.223  0.00  0.00     0.014 A 
ATOM     31  C   UNL d   1      27.250 -11.375   0.312  0.00  0.00     0.018 A 
ATOM     32  C   UNL d   1      27.140 -11.215   1.690  0.00  0.00     0.040 A 
ATOM     33  C   UNL d   1      27.562 -12.232   2.540  0.00  0.00     0.096 A 
ATOM     34  O   UNL d   1      27.380 -12.018   3.876  0.00  0.00    -0.340 OA
ATOM     35  C   UNL d   1      28.079 -13.420   2.012  0.00  0.00     0.069 A 
ATOM     36  C   UNL d   1      28.159 -12.868   4.704  0.00  0.00     0.278 C 
ATOM     37  C   UNL d   1      28.460 -14.288   4.228  0.00  0.00     0.246 C 
ATOM     38  O   UNL d   1      28.770 -15.202   4.986  0.00  0.00    -0.271 OA
ATOM     39  N   UNL d   1      28.451 -14.456   2.869  0.00  0.00    -0.323 N 
ATOM     40  H   UNL d   1      28.716 -15.368   2.522  0.00  0.00     0.169 HD
ATOM     41  C   UNL d   1      28.197 -13.586   0.633  0.00  0.00     0.047 A 
ENDBRANCH  28  30
ENDBRANCH  27  28
ENDBRANCH  26  27
ENDBRANCH  24  26
ENDBRANCH   1  24
TORSDOF 9
ENDMDL
MODEL 6
REMARK VINA RESULT:    -8.466      3.754      8.609
REMARK INTER + INTRA:         -14.330
REMARK INTER:                 -11.151
REMARK INTRA:                  -3.180
REMARK CONF_INDEPENDENT:        2.685
REMARK UNBOUND:                -3.180
REMARK  9 active torsions:
REMARK  status: ('A' for Active; 'I' for Inactive)
REMARK    1  A    between atoms: C_8  and  C_9 
REMARK    2  A    between atoms: C_9  and  C_11 
REMARK    3  A    between atoms: C_11  and  O_12 
REMARK    4  A    between atoms: O_12  and  C_13 
REMARK    5  A    between atoms: C_15  and  C_13 
REMARK    6  A    between atoms: C_15  and  N_26 
REMARK    7  A    between atoms: C_15  and  C_16 
REMARK    8  A    between atoms: C_16  and  C_17 
REMARK       I    between atoms: N_26  and  C_27 
REMARK    9  A    between atoms: C_27  and  C_29 
ROOT
ATOM      1  C   UNL d   1      24.740 -17.043  -1.199  0.00  0.00     0.189 C 
ENDROOT
BRANCH   1   2
ATOM      2  N   UNL d   1      23.383 -17.390  -0.716  0.00  0.00    -0.343 N 
ATOM      3  C   UNL d   1      22.759 -18.545  -1.162  0.00  0.00     0.252 C 
ATOM      4  O   UNL d   1      23.225 -19.267  -2.041  0.00  0.00    -0.268 OA
ATOM      5  H   UNL d   1      22.957 -16.839   0.017  0.00  0.00     0.163 HD
BRANCH   3   6
ATOM      6  C   UNL d   1      21.484 -18.923  -0.502  0.00  0.00     0.032 A 
ATOM      7  C   UNL d   1      20.385 -19.327  -1.265  0.00  0.00     0.020 A 
ATOM      8  C   UNL d   1      19.218 -19.756  -0.626  0.00  0.00     0.043 A 
ATOM      9  C   UNL d   1      19.155 -19.775   0.765  0.00  0.00     0.116 A 
ATOM     10  F   UNL d   1      18.034 -20.195   1.368  0.00  0.00    -0.206 F 
ATOM     11  C   UNL d   1      20.240 -19.374   1.535  0.00  0.00     0.043 A 
ATOM     12  C   UNL d   1      21.412 -18.950   0.900  0.00  0.00     0.020 A 
ENDBRANCH   3   6
ENDBRANCH   1   2
BRANCH   1  13
ATOM     13  C   UNL d   1      24.983 -15.517  -1.198  0.00  0.00     0.076 C 
BRANCH  13  14
ATOM     14  C   UNL d   1      25.229 -14.918  -2.564  0.00  0.00    -0.028 A 
ATOM     15  C   UNL d   1      24.370 -14.119  -3.301  0.00  0.00     0.096 A 
ATOM     16  N   UNL d   1      24.883 -13.948  -4.552  0.00  0.00    -0.365 N 
ATOM     17  C   UNL d   1      26.131 -14.509  -4.623  0.00  0.00     0.042 A 
ATOM     18  H   UNL d   1      24.402 -13.488  -5.314  0.00  0.00     0.165 HD
ATOM     19  C   UNL d   1      27.040 -14.531  -5.683  0.00  0.00     0.030 A 
ATOM     20  C   UNL d   1      26.380 -15.119  -3.390  0.00  0.00    -0.002 A 
ATOM     21  C   UNL d   1      28.250 -15.196  -5.473  0.00  0.00     0.002 A 
ATOM     22  C   UNL d   1      28.532 -15.813  -4.257  0.00  0.00     0.001 A 
ATOM     23  C   UNL d   1      27.606 -15.787  -3.208  0.00  0.00     0.014 A 
ENDBRANCH  13  14
ENDBRANCH   1  13
BRANCH   1  24
ATOM     24  C   UNL d   1      25.875 -17.738  -0.379  0.00  0.00     0.282 C 
ATOM     25  O   UNL d   1      25.723 -18.578   0.507  0.00  0.00    -0.263 OA
BRANCH  24  26
ATOM     26  O   UNL d   1      27.112 -17.292  -0.686  0.00  0.00    -0.312 OA
BRANCH  26  27
ATOM     27  C   UNL d   1      27.853 -16.922   0.470  0.00  0.00     0.262 C 
BRANCH  27  28
ATOM     28  C   UNL d   1      27.653 -15.447   0.723  0.00  0.00     0.183 C 
ATOM     29  O   UNL d   1      27.106 -15.007   1.733  0.00  0.00    -0.290 OA
BRANCH  28  30
ATOM     30  C   UNL d   1      28.121 -14.492  -0.316  0.00  0.00     0.014 A 
ATOM     31  C   UNL d   1      29.408 -14.684  -0.838  0.00  0.00     0.018 A 
ATOM     32  C   UNL d   1      29.914 -13.815  -1.801  0.00  0.00     0.040 A 
ATOM     33  C   UNL d   1      29.138 -12.750  -2.245  0.00  0.00     0.096 A 
ATOM     34  O   UNL d   1      29.686 -11.968  -3.222  0.00  0.00    -0.340 OA
ATOM     35  C   UNL d   1      27.847 -12.562  -1.741  0.00  0.00     0.069 A 
ATOM     36  C   UNL d   1      29.059 -10.702  -3.362  0.00  0.00     0.278 C 
ATOM     37  C   UNL d   1      27.561 -10.586  -3.092  0.00  0.00     0.246 C 
ATOM     38  O   UNL d   1      26.863  -9.680  -3.538  0.00  0.00    -0.271 OA
ATOM     39  N   UNL d   1      27.055 -11.523  -2.231  0.00  0.00    -0.323 N 
ATOM     40  H   UNL d   1      26.080 -11.428  -1.978  0.00  0.00     0.169 HD
ATOM     41  C   UNL d   1      27.334 -13.426  -0.773  0.00  0.00     0.047 A 
ENDBRANCH  28  30
ENDBRANCH  27  28
ENDBRANCH  26  27
ENDBRANCH  24  26
ENDBRANCH   1  24
TORSDOF 9
ENDMDL
MODEL 7
REMARK VINA RESULT:    -8.068      4.835      8.724
REMARK INTER + INTRA:         -14.598
REMARK INTER:                 -10.753
REMARK INTRA:                  -3.845
REMARK CONF_INDEPENDENT:        2.685
REMARK UNBOUND:                -3.845
REMARK  9 active torsions:
REMARK  status: ('A' for Active; 'I' for Inactive)
REMARK    1  A    between atoms: C_8  and  C_9 
REMARK    2  A    between atoms: C_9  and  C_11 
REMARK    3  A    between atoms: C_11  and  O_12 
REMARK    4  A    between atoms: O_12  and  C_13 
REMARK    5  A    between atoms: C_15  and  C_13 
REMARK    6  A    between atoms: C_15  and  N_26 
REMARK    7  A    between atoms: C_15  and  C_16 
REMARK    8  A    between atoms: C_16  and  C_17 
REMARK       I    between atoms: N_26  and  C_27 
REMARK    9  A    between atoms: C_27  and  C_29 
ROOT
ATOM      1  C   UNL d   1      28.888 -14.124  -0.194  0.00  0.00     0.189 C 
ENDROOT
BRANCH   1   2
ATOM      2  N   UNL d   1      27.871 -15.176   0.044  0.00  0.00    -0.343 N 
ATOM      3  C   UNL d   1      26.622 -15.084  -0.550  0.00  0.00     0.252 C 
ATOM      4  O   UNL d   1      26.251 -14.104  -1.193  0.00  0.00    -0.268 OA
ATOM      5  H   UNL d   1      28.126 -16.012   0.553  0.00  0.00     0.163 HD
BRANCH   3   6
ATOM      6  C   UNL d   1      25.722 -16.256  -0.417  0.00  0.00     0.032 A 
ATOM      7  C   UNL d   1      24.424 -16.215  -0.935  0.00  0.00     0.020 A 
ATOM      8  C   UNL d   1      23.617 -17.355  -0.872  0.00  0.00     0.043 A 
ATOM      9  C   UNL d   1      24.106 -18.522  -0.291  0.00  0.00     0.116 A 
ATOM     10  F   UNL d   1      23.327 -19.611  -0.242  0.00  0.00    -0.206 F 
ATOM     11  C   UNL d   1      25.394 -18.575   0.230  0.00  0.00     0.043 A 
ATOM     12  C   UNL d   1      26.208 -17.440   0.164  0.00  0.00     0.020 A 
ENDBRANCH   3   6
ENDBRANCH   1   2
BRANCH   1  13
ATOM     13  C   UNL d   1      28.823 -13.004   0.869  0.00  0.00     0.076 C 
BRANCH  13  14
ATOM     14  C   UNL d   1      29.552 -13.315   2.155  0.00  0.00    -0.028 A 
ATOM     15  C   UNL d   1      30.917 -13.258   2.386  0.00  0.00     0.096 A 
ATOM     16  N   UNL d   1      31.186 -13.797   3.609  0.00  0.00    -0.365 N 
ATOM     17  C   UNL d   1      30.014 -14.093   4.253  0.00  0.00     0.042 A 
ATOM     18  H   UNL d   1      32.114 -13.964   3.973  0.00  0.00     0.165 HD
ATOM     19  C   UNL d   1      29.806 -14.609   5.535  0.00  0.00     0.030 A 
ATOM     20  C   UNL d   1      28.971 -13.796   3.371  0.00  0.00    -0.002 A 
ATOM     21  C   UNL d   1      28.485 -14.825   5.930  0.00  0.00     0.002 A 
ATOM     22  C   UNL d   1      27.422 -14.538   5.078  0.00  0.00     0.001 A 
ATOM     23  C   UNL d   1      27.649 -14.028   3.795  0.00  0.00     0.014 A 
ENDBRANCH  13  14
ENDBRANCH   1  13
BRANCH   1  24
ATOM     24  C   UNL d   1      30.346 -14.687  -0.249  0.00  0.00     0.282 C 
ATOM     25  O   UNL d   1      31.335 -14.104  -0.692  0.00  0.00    -0.263 OA
BRANCH  24  26
ATOM     26  O   UNL d   1      30.450 -15.956   0.201  0.00  0.00    -0.312 OA
BRANCH  26  27
ATOM     27  C   UNL d   1      31.430 -16.700  -0.512  0.00  0.00     0.262 C 
BRANCH  27  28
ATOM     28  C   UNL d   1      30.731 -17.599  -1.502  0.00  0.00     0.183 C 
ATOM     29  O   UNL d   1      30.763 -18.827  -1.434  0.00  0.00    -0.290 OA
BRANCH  28  30
ATOM     30  C   UNL d   1      29.993 -16.960  -2.625  0.00  0.00     0.014 A 
ATOM     31  C   UNL d   1      30.674 -16.807  -3.841  0.00  0.00     0.018 A 
ATOM     32  C   UNL d   1      30.047 -16.200  -4.926  0.00  0.00     0.040 A 
ATOM     33  C   UNL d   1      28.739 -15.744  -4.801  0.00  0.00     0.096 A 
ATOM     34  O   UNL d   1      28.179 -15.200  -5.922  0.00  0.00    -0.340 OA
ATOM     35  C   UNL d   1      28.048 -15.909  -3.596  0.00  0.00     0.069 A 
ATOM     36  C   UNL d   1      27.030 -14.409  -5.662  0.00  0.00     0.278 C 
ATOM     37  C   UNL d   1      26.112 -14.797  -4.504  0.00  0.00     0.246 C 
ATOM     38  O   UNL d   1      24.938 -14.447  -4.426  0.00  0.00    -0.271 OA
ATOM     39  N   UNL d   1      26.720 -15.496  -3.495  0.00  0.00    -0.323 N 
ATOM     40  H   UNL d   1      26.155 -15.705  -2.683  0.00  0.00     0.169 HD
ATOM     41  C   UNL d   1      28.671 -16.511  -2.503  0.00  0.00     0.047 A 
ENDBRANCH  28  30
ENDBRANCH  27  28
ENDBRANCH  26  27
ENDBRANCH  24  26
ENDBRANCH   1  24
TORSDOF 9
ENDMDL
MODEL 8
REMARK VINA RESULT:    -7.912      3.705      8.498
REMARK INTER + INTRA:         -14.404
REMARK INTER:                 -10.596
REMARK INTRA:                  -3.808
REMARK CONF_INDEPENDENT:        2.685
REMARK UNBOUND:                -3.808
REMARK  9 active torsions:
REMARK  status: ('A' for Active; 'I' for Inactive)
REMARK    1  A    between atoms: C_8  and  C_9 
REMARK    2  A    between atoms: C_9  and  C_11 
REMARK    3  A    between atoms: C_11  and  O_12 
REMARK    4  A    between atoms: O_12  and  C_13 
REMARK    5  A    between atoms: C_15  and  C_13 
REMARK    6  A    between atoms: C_15  and  N_26 
REMARK    7  A    between atoms: C_15  and  C_16 
REMARK    8  A    between atoms: C_16  and  C_17 
REMARK       I    between atoms: N_26  and  C_27 
REMARK    9  A    between atoms: C_27  and  C_29 
ROOT
ATOM      1  C   UNL d   1      26.799 -14.282  -1.603  0.00  0.00     0.189 C 
ENDROOT
BRANCH   1   2
ATOM      2  N   UNL d   1      25.789 -15.363  -1.687  0.00  0.00    -0.343 N 
ATOM      3  C   UNL d   1      25.511 -16.144  -0.576  0.00  0.00     0.252 C 
ATOM      4  O   UNL d   1      26.143 -16.071   0.476  0.00  0.00    -0.268 OA
ATOM      5  H   UNL d   1      25.228 -15.460  -2.524  0.00  0.00     0.163 HD
BRANCH   3   6
ATOM      6  C   UNL d   1      24.366 -17.082  -0.679  0.00  0.00     0.032 A 
ATOM      7  C   UNL d   1      24.558 -18.456  -0.507  0.00  0.00     0.020 A 
ATOM      8  C   UNL d   1      23.457 -19.318  -0.527  0.00  0.00     0.043 A 
ATOM      9  C   UNL d   1      22.178 -18.806  -0.721  0.00  0.00     0.116 A 
ATOM     10  F   UNL d   1      21.128 -19.640  -0.731  0.00  0.00    -0.206 F 
ATOM     11  C   UNL d   1      21.972 -17.442  -0.895  0.00  0.00     0.043 A 
ATOM     12  C   UNL d   1      23.069 -16.575  -0.869  0.00  0.00     0.020 A 
ENDBRANCH   3   6
ENDBRANCH   1   2
BRANCH   1  13
ATOM     13  C   UNL d   1      28.119 -14.665  -2.311  0.00  0.00     0.076 C 
BRANCH  13  14
ATOM     14  C   UNL d   1      28.820 -15.868  -1.723  0.00  0.00    -0.028 A 
ATOM     15  C   UNL d   1      28.853 -16.258  -0.394  0.00  0.00     0.096 A 
ATOM     16  N   UNL d   1      29.745 -17.279  -0.250  0.00  0.00    -0.365 N 
ATOM     17  C   UNL d   1      30.212 -17.663  -1.480  0.00  0.00     0.042 A 
ATOM     18  H   UNL d   1      30.028 -17.676   0.635  0.00  0.00     0.165 HD
ATOM     19  C   UNL d   1      31.096 -18.691  -1.817  0.00  0.00     0.030 A 
ATOM     20  C   UNL d   1      29.645 -16.803  -2.424  0.00  0.00    -0.002 A 
ATOM     21  C   UNL d   1      31.408 -18.848  -3.168  0.00  0.00     0.002 A 
ATOM     22  C   UNL d   1      30.860 -18.010  -4.136  0.00  0.00     0.001 A 
ATOM     23  C   UNL d   1      29.982 -16.981  -3.780  0.00  0.00     0.014 A 
ENDBRANCH  13  14
ENDBRANCH   1  13
BRANCH   1  24
ATOM     24  C   UNL d   1      26.288 -12.924  -2.185  0.00  0.00     0.282 C 
ATOM     25  O   UNL d   1      26.848 -11.832  -2.087  0.00  0.00    -0.263 OA
BRANCH  24  26
ATOM     26  O   UNL d   1      25.088 -13.018  -2.799  0.00  0.00    -0.312 OA
BRANCH  26  27
ATOM     27  C   UNL d   1      25.201 -12.936  -4.214  0.00  0.00     0.262 C 
BRANCH  27  28
ATOM     28  C   UNL d   1      25.859 -14.196  -4.723  0.00  0.00     0.183 C 
ATOM     29  O   UNL d   1      25.334 -15.306  -4.648  0.00  0.00    -0.290 OA
BRANCH  28  30
ATOM     30  C   UNL d   1      27.217 -14.082  -5.318  0.00  0.00     0.014 A 
ATOM     31  C   UNL d   1      27.752 -12.795  -5.466  0.00  0.00     0.018 A 
ATOM     32  C   UNL d   1      29.011 -12.617  -6.032  0.00  0.00     0.040 A 
ATOM     33  C   UNL d   1      29.741 -13.723  -6.453  0.00  0.00     0.096 A 
ATOM     34  O   UNL d   1      30.985 -13.470  -6.957  0.00  0.00    -0.340 OA
ATOM     35  C   UNL d   1      29.222 -15.012  -6.292  0.00  0.00     0.069 A 
ATOM     36  C   UNL d   1      31.523 -14.540  -7.720  0.00  0.00     0.278 C 
ATOM     37  C   UNL d   1      31.173 -15.974  -7.329  0.00  0.00     0.246 C 
ATOM     38  O   UNL d   1      31.854 -16.946  -7.646  0.00  0.00    -0.271 OA
ATOM     39  N   UNL d   1      29.982 -16.119  -6.668  0.00  0.00    -0.323 N 
ATOM     40  H   UNL d   1      29.691 -17.065  -6.459  0.00  0.00     0.169 HD
ATOM     41  C   UNL d   1      27.959 -15.198  -5.730  0.00  0.00     0.047 A 
ENDBRANCH  28  30
ENDBRANCH  27  28
ENDBRANCH  26  27
ENDBRANCH  24  26
ENDBRANCH   1  24
TORSDOF 9
ENDMDL
MODEL 9
REMARK VINA RESULT:    -7.229      4.136      7.906
REMARK INTER + INTRA:         -14.661
REMARK INTER:                  -9.913
REMARK INTRA:                  -4.748
REMARK CONF_INDEPENDENT:        2.685
REMARK UNBOUND:                -4.748
REMARK  9 active torsions:
REMARK  status: ('A' for Active; 'I' for Inactive)
REMARK    1  A    between atoms: C_8  and  C_9 
REMARK    2  A    between atoms: C_9  and  C_11 
REMARK    3  A    between atoms: C_11  and  O_12 
REMARK    4  A    between atoms: O_12  and  C_13 
REMARK    5  A    between atoms: C_15  and  C_13 
REMARK    6  A    between atoms: C_15  and  N_26 
REMARK    7  A    between atoms: C_15  and  C_16 
REMARK    8  A    between atoms: C_16  and  C_17 
REMARK       I    between atoms: N_26  and  C_27 
REMARK    9  A    between atoms: C_27  and  C_29 
ROOT
ATOM      1  C   UNL d   1      26.738 -15.572  -3.204  0.00  0.00     0.189 C 
ENDROOT
BRANCH   1   2
ATOM      2  N   UNL d   1      25.695 -16.472  -2.656  0.00  0.00    -0.343 N 
ATOM      3  C   UNL d   1      25.371 -16.422  -1.310  0.00  0.00     0.252 C 
ATOM      4  O   UNL d   1      25.984 -15.739  -0.492  0.00  0.00    -0.268 OA
ATOM      5  H   UNL d   1      25.148 -17.045  -3.285  0.00  0.00     0.163 HD
BRANCH   3   6
ATOM      6  C   UNL d   1      24.198 -17.217  -0.867  0.00  0.00     0.032 A 
ATOM      7  C   UNL d   1      22.915 -16.662  -0.895  0.00  0.00     0.020 A 
ATOM      8  C   UNL d   1      21.812 -17.450  -0.550  0.00  0.00     0.043 A 
ATOM      9  C   UNL d   1      21.996 -18.778  -0.179  0.00  0.00     0.116 A 
ATOM     10  F   UNL d   1      20.931 -19.527   0.142  0.00  0.00    -0.206 F 
ATOM     11  C   UNL d   1      23.266 -19.342  -0.145  0.00  0.00     0.043 A 
ATOM     12  C   UNL d   1      24.372 -18.560  -0.494  0.00  0.00     0.020 A 
ENDBRANCH   3   6
ENDBRANCH   1   2
BRANCH   1  13
ATOM     13  C   UNL d   1      28.155 -16.175  -3.065  0.00  0.00     0.076 C 
BRANCH  13  14
ATOM     14  C   UNL d   1      28.844 -15.863  -1.756  0.00  0.00    -0.028 A 
ATOM     15  C   UNL d   1      28.905 -16.661  -0.625  0.00  0.00     0.096 A 
ATOM     16  N   UNL d   1      29.450 -15.944   0.398  0.00  0.00    -0.365 N 
ATOM     17  C   UNL d   1      29.873 -14.725  -0.064  0.00  0.00     0.042 A 
ATOM     18  H   UNL d   1      29.514 -16.263   1.355  0.00  0.00     0.165 HD
ATOM     19  C   UNL d   1      30.528 -13.693   0.613  0.00  0.00     0.030 A 
ATOM     20  C   UNL d   1      29.514 -14.647  -1.412  0.00  0.00    -0.002 A 
ATOM     21  C   UNL d   1      30.832 -12.543  -0.116  0.00  0.00     0.002 A 
ATOM     22  C   UNL d   1      30.491 -12.432  -1.462  0.00  0.00     0.001 A 
ATOM     23  C   UNL d   1      29.828 -13.472  -2.122  0.00  0.00     0.014 A 
ENDBRANCH  13  14
ENDBRANCH   1  13
BRANCH   1  24
ATOM     24  C   UNL d   1      26.492 -15.196  -4.702  0.00  0.00     0.282 C 
ATOM     25  O   UNL d   1      27.332 -15.200  -5.601  0.00  0.00    -0.263 OA
BRANCH  24  26
ATOM     26  O   UNL d   1      25.230 -14.788  -4.954  0.00  0.00    -0.312 OA
BRANCH  26  27
ATOM     27  C   UNL d   1      24.796 -13.787  -4.043  0.00  0.00     0.262 C 
BRANCH  27  28
ATOM     28  C   UNL d   1      25.822 -12.680  -4.013  0.00  0.00     0.183 C 
ATOM     29  O   UNL d   1      26.255 -12.137  -5.028  0.00  0.00    -0.290 OA
BRANCH  28  30
ATOM     30  C   UNL d   1      26.347 -12.251  -2.689  0.00  0.00     0.014 A 
ATOM     31  C   UNL d   1      26.930 -10.979  -2.606  0.00  0.00     0.018 A 
ATOM     32  C   UNL d   1      27.457 -10.524  -1.401  0.00  0.00     0.040 A 
ATOM     33  C   UNL d   1      27.405 -11.337  -0.274  0.00  0.00     0.096 A 
ATOM     34  O   UNL d   1      27.903 -10.803   0.881  0.00  0.00    -0.340 OA
ATOM     35  C   UNL d   1      26.809 -12.601  -0.345  0.00  0.00     0.069 A 
ATOM     36  C   UNL d   1      28.192 -11.769   1.880  0.00  0.00     0.278 C 
ATOM     37  C   UNL d   1      27.320 -13.020   1.973  0.00  0.00     0.246 C 
ATOM     38  O   UNL d   1      27.224 -13.701   2.989  0.00  0.00    -0.271 OA
ATOM     39  N   UNL d   1      26.713 -13.389   0.802  0.00  0.00    -0.323 N 
ATOM     40  H   UNL d   1      26.187 -14.252   0.816  0.00  0.00     0.169 HD
ATOM     41  C   UNL d   1      26.283 -13.066  -1.550  0.00  0.00     0.047 A 
ENDBRANCH  28  30
ENDBRANCH  27  28
ENDBRANCH  26  27
ENDBRANCH  24  26
ENDBRANCH   1  24
TORSDOF 9
ENDMDL
