MODEL 1
REMARK VINA RESULT:    -8.873      0.000      0.000
REMARK INTER + INTRA:         -14.085
REMARK INTER:                 -11.557
REMARK INTRA:                  -2.528
REMARK CONF_INDEPENDENT:        2.685
REMARK UNBOUND:                -2.528
REMARK  9 active torsions:
REMARK  status: ('A' for Active; 'I' for Inactive)
REMARK    1  A    between atoms: C_2  and  C_11 
REMARK    2  A    between atoms: C_2  and  O_3 
REMARK    3  A    between atoms: O_3  and  C_4 
REMARK       I    between atoms: C_11  and  N_13 
REMARK    4  A    between atoms: N_13  and  C_14 
REMARK    5  A    between atoms: C_17  and  N_18 
REMARK    6  A    between atoms: N_18  and  C_19 
REMARK    7  A    between atoms: C_19  and  N_21 
REMARK       I    between atoms: N_21  and  C_22 
REMARK    8  A    between atoms: C_22  and  C_24 
REMARK    9  A    between atoms: C_28  and  N_29 
ROOT
ATOM      1  C   UNL d   1      26.947 -14.291  -3.352  0.00  0.00     0.034 A 
ATOM      2  C   UNL d   1      27.518 -14.632  -2.116  0.00  0.00     0.032 A 
ATOM      3  C   UNL d   1      26.782 -15.387  -1.134  0.00  0.00     0.032 A 
ATOM      4  C   UNL d   1      25.462 -15.802  -1.387  0.00  0.00     0.034 A 
ATOM      5  C   UNL d   1      25.014 -15.496  -2.665  0.00  0.00     0.032 A 
ATOM      6  C   UNL d   1      25.678 -14.729  -3.600  0.00  0.00     0.032 A 
ENDROOT
BRANCH   4   7
ATOM      7  N   UNL d   1      24.606 -16.486  -0.412  0.00  0.00    -0.333 N 
ATOM      8  H   UNL d   1      23.733 -16.005  -0.219  0.00  0.00     0.168 HD
BRANCH   7   9
ATOM      9  C   UNL d   1      24.830 -17.783   0.157  0.00  0.00     0.179 C 
ATOM     10  S   UNL d   1      26.296 -18.366   0.774  0.00  0.00    -0.040 SA
BRANCH   9  11
ATOM     11  N   UNL d   1      23.707 -18.643   0.191  0.00  0.00    -0.299 N 
ATOM     12  C   UNL d   1      22.412 -18.223  -0.183  0.00  0.00     0.257 C 
ATOM     13  O   UNL d   1      22.081 -17.105  -0.607  0.00  0.00    -0.267 OA
ATOM     14  H   UNL d   1      23.822 -19.597   0.504  0.00  0.00     0.171 HD
BRANCH  12  15
ATOM     15  C   UNL d   1      21.230 -19.078  -0.089  0.00  0.00     0.034 A 
ATOM     16  C   UNL d   1      20.463 -19.221  -1.270  0.00  0.00     0.017 A 
ATOM     17  C   UNL d   1      19.158 -19.699  -1.225  0.00  0.00     0.003 A 
ATOM     18  C   UNL d   1      18.632 -20.102  -0.003  0.00  0.00     0.036 A 
ATOM     19  C   UNL d   1      19.398 -19.954   1.169  0.00  0.00     0.103 A 
ATOM     20  C   UNL d   1      20.699 -19.432   1.140  0.00  0.00     0.053 A 
BRANCH  19  21
ATOM     21  N   UNL d   1      18.805 -20.291   2.464  0.00  0.00    -0.116 N 
ATOM     22  O   UNL d   1      19.538 -20.789   3.325  0.00  0.00    -0.532 OA
ATOM     23  O   UNL d   1      17.598 -20.043   2.617  0.00  0.00    -0.532 OA
ENDBRANCH  19  21
ENDBRANCH  12  15
ENDBRANCH   9  11
ENDBRANCH   7   9
ENDBRANCH   4   7
BRANCH   1  24
ATOM     24  N   UNL d   1      27.625 -13.625  -4.397  0.00  0.00    -0.325 N 
ATOM     25  C   UNL d   1      27.742 -14.161  -5.695  0.00  0.00     0.251 C 
ATOM     26  O   UNL d   1      27.186 -15.201  -6.053  0.00  0.00    -0.270 OA
ATOM     27  H   UNL d   1      28.028 -12.728  -4.171  0.00  0.00     0.169 HD
BRANCH  25  28
ATOM     28  C   UNL d   1      28.571 -13.315  -6.700  0.00  0.00     0.217 C 
ATOM     29  C   UNL d   1      29.890 -14.064  -6.906  0.00  0.00     0.050 C 
BRANCH  28  30
ATOM     30  O   UNL d   1      28.765 -12.005  -6.128  0.00  0.00    -0.335 OA
BRANCH  30  31
ATOM     31  C   UNL d   1      27.709 -11.154  -5.933  0.00  0.00     0.091 A 
ATOM     32  C   UNL d   1      27.276 -10.733  -4.674  0.00  0.00     0.038 A 
ATOM     33  C   UNL d   1      26.112  -9.986  -4.511  0.00  0.00     0.003 A 
ATOM     34  C   UNL d   1      25.433  -9.516  -5.625  0.00  0.00     0.002 A 
ATOM     35  C   UNL d   1      25.891  -9.847  -6.899  0.00  0.00     0.026 A 
ATOM     36  C   UNL d   1      27.004 -10.687  -7.055  0.00  0.00     0.067 A 
ATOM     37 CL   UNL d   1      27.473 -11.099  -8.668  0.00  0.00    -0.081 Cl
ENDBRANCH  30  31
ENDBRANCH  28  30
ENDBRANCH  25  28
ENDBRANCH   1  24
TORSDOF 9
ENDMDL
MODEL 2
REMARK VINA RESULT:    -8.292      3.811      6.754
REMARK INTER + INTRA:         -13.179
REMARK INTER:                 -10.977
REMARK INTRA:                  -2.203
REMARK CONF_INDEPENDENT:        2.685
REMARK UNBOUND:                -2.203
REMARK  9 active torsions:
REMARK  status: ('A' for Active; 'I' for Inactive)
REMARK    1  A    between atoms: C_2  and  C_11 
REMARK    2  A    between atoms: C_2  and  O_3 
REMARK    3  A    between atoms: O_3  and  C_4 
REMARK       I    between atoms: C_11  and  N_13 
REMARK    4  A    between atoms: N_13  and  C_14 
REMARK    5  A    between atoms: C_17  and  N_18 
REMARK    6  A    between atoms: N_18  and  C_19 
REMARK    7  A    between atoms: C_19  and  N_21 
REMARK       I    between atoms: N_21  and  C_22 
REMARK    8  A    between atoms: C_22  and  C_24 
REMARK    9  A    between atoms: C_28  and  N_29 
ROOT
ATOM      1  C   UNL d   1      29.062 -14.542  -6.743  0.00  0.00     0.034 A 
ATOM      2  C   UNL d   1      28.801 -13.207  -7.090  0.00  0.00     0.032 A 
ATOM      3  C   UNL d   1      27.777 -12.445  -6.421  0.00  0.00     0.032 A 
ATOM      4  C   UNL d   1      27.005 -13.023  -5.397  0.00  0.00     0.034 A 
ATOM      5  C   UNL d   1      27.393 -14.313  -5.063  0.00  0.00     0.032 A 
ATOM      6  C   UNL d   1      28.330 -15.080  -5.724  0.00  0.00     0.032 A 
ENDROOT
BRANCH   4   7
ATOM      7  N   UNL d   1      25.880 -12.357  -4.730  0.00  0.00    -0.333 N 
ATOM      8  H   UNL d   1      25.048 -12.277  -5.305  0.00  0.00     0.168 HD
BRANCH   7   9
ATOM      9  C   UNL d   1      25.822 -11.957  -3.354  0.00  0.00     0.179 C 
ATOM     10  S   UNL d   1      25.907 -10.370  -2.769  0.00  0.00    -0.040 SA
BRANCH   9  11
ATOM     11  N   UNL d   1      25.683 -13.006  -2.414  0.00  0.00    -0.299 N 
ATOM     12  C   UNL d   1      25.155 -14.271  -2.752  0.00  0.00     0.257 C 
ATOM     13  O   UNL d   1      24.779 -14.649  -3.872  0.00  0.00    -0.267 OA
ATOM     14  H   UNL d   1      25.963 -12.852  -1.455  0.00  0.00     0.171 HD
BRANCH  12  15
ATOM     15  C   UNL d   1      24.943 -15.340  -1.779  0.00  0.00     0.034 A 
ATOM     16  C   UNL d   1      26.107 -15.954  -1.257  0.00  0.00     0.017 A 
ATOM     17  C   UNL d   1      26.043 -17.186  -0.616  0.00  0.00     0.003 A 
ATOM     18  C   UNL d   1      24.802 -17.786  -0.435  0.00  0.00     0.036 A 
ATOM     19  C   UNL d   1      23.649 -17.173  -0.959  0.00  0.00     0.103 A 
ATOM     20  C   UNL d   1      23.708 -15.951  -1.645  0.00  0.00     0.053 A 
BRANCH  19  21
ATOM     21  N   UNL d   1      22.358 -17.854  -0.848  0.00  0.00    -0.116 N 
ATOM     22  O   UNL d   1      22.361 -19.082  -0.705  0.00  0.00    -0.532 OA
ATOM     23  O   UNL d   1      21.338 -17.149  -0.894  0.00  0.00    -0.532 OA
ENDBRANCH  19  21
ENDBRANCH  12  15
ENDBRANCH   9  11
ENDBRANCH   7   9
ENDBRANCH   4   7
BRANCH   1  24
ATOM     24  N   UNL d   1      30.097 -15.330  -7.292  0.00  0.00    -0.325 N 
ATOM     25  C   UNL d   1      31.462 -15.073  -7.055  0.00  0.00     0.251 C 
ATOM     26  O   UNL d   1      31.864 -14.206  -6.276  0.00  0.00    -0.270 OA
ATOM     27  H   UNL d   1      29.811 -16.105  -7.872  0.00  0.00     0.169 HD
BRANCH  25  28
ATOM     28  C   UNL d   1      32.461 -16.010  -7.786  0.00  0.00     0.217 C 
ATOM     29  C   UNL d   1      33.119 -15.165  -8.881  0.00  0.00     0.050 C 
BRANCH  28  30
ATOM     30  O   UNL d   1      31.718 -17.125  -8.323  0.00  0.00    -0.335 OA
BRANCH  30  31
ATOM     31  C   UNL d   1      31.281 -18.140  -7.514  0.00  0.00     0.091 A 
ATOM     32  C   UNL d   1      30.940 -17.968  -6.170  0.00  0.00     0.038 A 
ATOM     33  C   UNL d   1      30.640 -19.050  -5.346  0.00  0.00     0.003 A 
ATOM     34  C   UNL d   1      30.531 -20.321  -5.888  0.00  0.00     0.002 A 
ATOM     35  C   UNL d   1      30.782 -20.512  -7.246  0.00  0.00     0.026 A 
ATOM     36  C   UNL d   1      31.186 -19.435  -8.050  0.00  0.00     0.067 A 
ATOM     37 CL   UNL d   1      31.535 -19.767  -9.711  0.00  0.00    -0.081 Cl
ENDBRANCH  30  31
ENDBRANCH  28  30
ENDBRANCH  25  28
ENDBRANCH   1  24
TORSDOF 9
ENDMDL
MODEL 3
REMARK VINA RESULT:    -7.955      6.350      8.751
REMARK INTER + INTRA:         -12.664
REMARK INTER:                 -10.640
REMARK INTRA:                  -2.025
REMARK CONF_INDEPENDENT:        2.685
REMARK UNBOUND:                -2.025
REMARK  9 active torsions:
REMARK  status: ('A' for Active; 'I' for Inactive)
REMARK    1  A    between atoms: C_2  and  C_11 
REMARK    2  A    between atoms: C_2  and  O_3 
REMARK    3  A    between atoms: O_3  and  C_4 
REMARK       I    between atoms: C_11  and  N_13 
REMARK    4  A    between atoms: N_13  and  C_14 
REMARK    5  A    between atoms: C_17  and  N_18 
REMARK    6  A    between atoms: N_18  and  C_19 
REMARK    7  A    between atoms: C_19  and  N_21 
REMARK       I    between atoms: N_21  and  C_22 
REMARK    8  A    between atoms: C_22  and  C_24 
REMARK    9  A    between atoms: C_28  and  N_29 
ROOT
ATOM      1  C   UNL d   1      27.448 -12.036   1.423  0.00  0.00     0.034 A 
ATOM      2  C   UNL d   1      26.825 -13.234   1.040  0.00  0.00     0.032 A 
ATOM      3  C   UNL d   1      26.579 -13.539  -0.347  0.00  0.00     0.032 A 
ATOM      4  C   UNL d   1      26.956 -12.639  -1.360  0.00  0.00     0.034 A 
ATOM      5  C   UNL d   1      27.642 -11.526  -0.892  0.00  0.00     0.032 A 
ATOM      6  C   UNL d   1      27.841 -11.186   0.430  0.00  0.00     0.032 A 
ENDROOT
BRANCH   4   7
ATOM      7  N   UNL d   1      26.658 -12.820  -2.784  0.00  0.00    -0.333 N 
ATOM      8  H   UNL d   1      27.010 -12.077  -3.378  0.00  0.00     0.168 HD
BRANCH   7   9
ATOM      9  C   UNL d   1      26.060 -13.976  -3.390  0.00  0.00     0.179 C 
ATOM     10  S   UNL d   1      26.297 -14.507  -4.980  0.00  0.00    -0.040 SA
BRANCH   9  11
ATOM     11  N   UNL d   1      25.191 -14.724  -2.561  0.00  0.00    -0.299 N 
ATOM     12  C   UNL d   1      25.612 -15.865  -1.844  0.00  0.00     0.257 C 
ATOM     13  O   UNL d   1      26.756 -16.344  -1.806  0.00  0.00    -0.267 OA
ATOM     14  H   UNL d   1      24.223 -14.445  -2.478  0.00  0.00     0.171 HD
BRANCH  12  15
ATOM     15  C   UNL d   1      24.712 -16.687  -1.038  0.00  0.00     0.034 A 
ATOM     16  C   UNL d   1      25.320 -17.511  -0.061  0.00  0.00     0.017 A 
ATOM     17  C   UNL d   1      24.631 -18.576   0.510  0.00  0.00     0.003 A 
ATOM     18  C   UNL d   1      23.304 -18.786   0.153  0.00  0.00     0.036 A 
ATOM     19  C   UNL d   1      22.706 -17.966  -0.822  0.00  0.00     0.103 A 
ATOM     20  C   UNL d   1      23.405 -16.917  -1.435  0.00  0.00     0.053 A 
BRANCH  19  21
ATOM     21  N   UNL d   1      21.339 -18.251  -1.262  0.00  0.00    -0.116 N 
ATOM     22  O   UNL d   1      20.528 -17.318  -1.272  0.00  0.00    -0.532 OA
ATOM     23  O   UNL d   1      21.085 -19.416  -1.606  0.00  0.00    -0.532 OA
ENDBRANCH  19  21
ENDBRANCH  12  15
ENDBRANCH   9  11
ENDBRANCH   7   9
ENDBRANCH   4   7
BRANCH   1  24
ATOM     24  N   UNL d   1      27.797 -11.697   2.749  0.00  0.00    -0.325 N 
ATOM     25  C   UNL d   1      27.287 -10.561   3.407  0.00  0.00     0.251 C 
ATOM     26  O   UNL d   1      26.425  -9.825   2.922  0.00  0.00    -0.270 OA
ATOM     27  H   UNL d   1      28.439 -12.320   3.217  0.00  0.00     0.169 HD
BRANCH  25  28
ATOM     28  C   UNL d   1      27.824 -10.316   4.843  0.00  0.00     0.217 C 
ATOM     29  C   UNL d   1      28.551  -8.968   4.806  0.00  0.00     0.050 C 
BRANCH  28  30
ATOM     30  O   UNL d   1      28.706 -11.407   5.183  0.00  0.00    -0.335 OA
BRANCH  30  31
ATOM     31  C   UNL d   1      28.770 -11.893   6.462  0.00  0.00     0.091 A 
ATOM     32  C   UNL d   1      28.791 -11.082   7.599  0.00  0.00     0.038 A 
ATOM     33  C   UNL d   1      29.002 -11.609   8.871  0.00  0.00     0.003 A 
ATOM     34  C   UNL d   1      29.049 -12.983   9.049  0.00  0.00     0.002 A 
ATOM     35  C   UNL d   1      28.944 -13.823   7.942  0.00  0.00     0.026 A 
ATOM     36  C   UNL d   1      28.836 -13.284   6.651  0.00  0.00     0.067 A 
ATOM     37 CL   UNL d   1      28.770 -14.393   5.326  0.00  0.00    -0.081 Cl
ENDBRANCH  30  31
ENDBRANCH  28  30
ENDBRANCH  25  28
ENDBRANCH   1  24
TORSDOF 9
ENDMDL
MODEL 4
REMARK VINA RESULT:    -7.743      6.874      9.980
REMARK INTER + INTRA:         -12.867
REMARK INTER:                 -10.428
REMARK INTRA:                  -2.439
REMARK CONF_INDEPENDENT:        2.685
REMARK UNBOUND:                -2.439
REMARK  9 active torsions:
REMARK  status: ('A' for Active; 'I' for Inactive)
REMARK    1  A    between atoms: C_2  and  C_11 
REMARK    2  A    between atoms: C_2  and  O_3 
REMARK    3  A    between atoms: O_3  and  C_4 
REMARK       I    between atoms: C_11  and  N_13 
REMARK    4  A    between atoms: N_13  and  C_14 
REMARK    5  A    between atoms: C_17  and  N_18 
REMARK    6  A    between atoms: N_18  and  C_19 
REMARK    7  A    between atoms: C_19  and  N_21 
REMARK       I    between atoms: N_21  and  C_22 
REMARK    8  A    between atoms: C_22  and  C_24 
REMARK    9  A    between atoms: C_28  and  N_29 
ROOT
ATOM      1  C   UNL d   1      28.568 -14.242   2.371  0.00  0.00     0.034 A 
ATOM      2  C   UNL d   1      29.776 -14.450   3.055  0.00  0.00     0.032 A 
ATOM      3  C   UNL d   1      29.830 -14.454   4.495  0.00  0.00     0.032 A 
ATOM      4  C   UNL d   1      28.668 -14.246   5.259  0.00  0.00     0.034 A 
ATOM      5  C   UNL d   1      27.511 -14.138   4.500  0.00  0.00     0.032 A 
ATOM      6  C   UNL d   1      27.441 -14.076   3.123  0.00  0.00     0.032 A 
ENDROOT
BRANCH   4   7
ATOM      7  N   UNL d   1      28.645 -14.136   6.722  0.00  0.00    -0.333 N 
ATOM      8  H   UNL d   1      28.911 -14.987   7.205  0.00  0.00     0.168 HD
BRANCH   7   9
ATOM      9  C   UNL d   1      28.422 -12.940   7.483  0.00  0.00     0.179 C 
ATOM     10  S   UNL d   1      28.577 -12.779   9.162  0.00  0.00    -0.040 SA
BRANCH   9  11
ATOM     11  N   UNL d   1      28.031 -11.801   6.739  0.00  0.00    -0.299 N 
ATOM     12  C   UNL d   1      28.869 -11.190   5.782  0.00  0.00     0.257 C 
ATOM     13  O   UNL d   1      30.004 -11.554   5.439  0.00  0.00    -0.267 OA
ATOM     14  H   UNL d   1      27.120 -11.394   6.898  0.00  0.00     0.171 HD
BRANCH  12  15
ATOM     15  C   UNL d   1      28.507  -9.974   5.055  0.00  0.00     0.034 A 
ATOM     16  C   UNL d   1      28.924  -8.750   5.633  0.00  0.00     0.017 A 
ATOM     17  C   UNL d   1      28.354  -7.543   5.246  0.00  0.00     0.003 A 
ATOM     18  C   UNL d   1      27.405  -7.543   4.230  0.00  0.00     0.036 A 
ATOM     19  C   UNL d   1      26.992  -8.763   3.662  0.00  0.00     0.103 A 
ATOM     20  C   UNL d   1      27.530  -9.990   4.075  0.00  0.00     0.053 A 
BRANCH  19  21
ATOM     21  N   UNL d   1      25.925  -8.765   2.659  0.00  0.00    -0.116 N 
ATOM     22  O   UNL d   1      25.653  -7.696   2.102  0.00  0.00    -0.532 OA
ATOM     23  O   UNL d   1      25.369  -9.849   2.425  0.00  0.00    -0.532 OA
ENDBRANCH  19  21
ENDBRANCH  12  15
ENDBRANCH   9  11
ENDBRANCH   7   9
ENDBRANCH   4   7
BRANCH   1  24
ATOM     24  N   UNL d   1      28.415 -14.303   0.969  0.00  0.00    -0.325 N 
ATOM     25  C   UNL d   1      27.783 -13.287   0.224  0.00  0.00     0.251 C 
ATOM     26  O   UNL d   1      27.399 -12.224   0.715  0.00  0.00    -0.270 OA
ATOM     27  H   UNL d   1      28.790 -15.121   0.511  0.00  0.00     0.169 HD
BRANCH  25  28
ATOM     28  C   UNL d   1      27.655 -13.550  -1.301  0.00  0.00     0.217 C 
ATOM     29  C   UNL d   1      26.279 -13.020  -1.714  0.00  0.00     0.050 C 
BRANCH  28  30
ATOM     30  O   UNL d   1      27.787 -14.970  -1.523  0.00  0.00    -0.335 OA
BRANCH  30  31
ATOM     31  C   UNL d   1      26.762 -15.830  -1.229  0.00  0.00     0.091 A 
ATOM     32  C   UNL d   1      26.596 -16.441   0.016  0.00  0.00     0.038 A 
ATOM     33  C   UNL d   1      25.627 -17.418   0.230  0.00  0.00     0.003 A 
ATOM     34  C   UNL d   1      24.701 -17.700  -0.763  0.00  0.00     0.002 A 
ATOM     35  C   UNL d   1      24.788 -17.044  -1.989  0.00  0.00     0.026 A 
ATOM     36  C   UNL d   1      25.830 -16.136  -2.235  0.00  0.00     0.067 A 
ATOM     37 CL   UNL d   1      25.901 -15.408  -3.802  0.00  0.00    -0.081 Cl
ENDBRANCH  30  31
ENDBRANCH  28  30
ENDBRANCH  25  28
ENDBRANCH   1  24
TORSDOF 9
ENDMDL
MODEL 5
REMARK VINA RESULT:    -7.712      5.313     10.456
REMARK INTER + INTRA:         -12.558
REMARK INTER:                 -10.397
REMARK INTRA:                  -2.161
REMARK CONF_INDEPENDENT:        2.685
REMARK UNBOUND:                -2.161
REMARK  9 active torsions:
REMARK  status: ('A' for Active; 'I' for Inactive)
REMARK    1  A    between atoms: C_2  and  C_11 
REMARK    2  A    between atoms: C_2  and  O_3 
REMARK    3  A    between atoms: O_3  and  C_4 
REMARK       I    between atoms: C_11  and  N_13 
REMARK    4  A    between atoms: N_13  and  C_14 
REMARK    5  A    between atoms: C_17  and  N_18 
REMARK    6  A    between atoms: N_18  and  C_19 
REMARK    7  A    between atoms: C_19  and  N_21 
REMARK       I    between atoms: N_21  and  C_22 
REMARK    8  A    between atoms: C_22  and  C_24 
REMARK    9  A    between atoms: C_28  and  N_29 
ROOT
ATOM      1  C   UNL d   1      26.161 -13.019  -3.369  0.00  0.00     0.034 A 
ATOM      2  C   UNL d   1      26.111 -12.962  -4.770  0.00  0.00     0.032 A 
ATOM      3  C   UNL d   1      26.011 -11.704  -5.465  0.00  0.00     0.032 A 
ATOM      4  C   UNL d   1      25.957 -10.491  -4.754  0.00  0.00     0.034 A 
ATOM      5  C   UNL d   1      26.101 -10.641  -3.382  0.00  0.00     0.032 A 
ATOM      6  C   UNL d   1      26.143 -11.834  -2.691  0.00  0.00     0.032 A 
ENDROOT
BRANCH   4   7
ATOM      7  N   UNL d   1      25.757  -9.176  -5.371  0.00  0.00    -0.333 N 
ATOM      8  H   UNL d   1      26.349  -9.002  -6.177  0.00  0.00     0.168 HD
BRANCH   7   9
ATOM      9  C   UNL d   1      24.744  -8.219  -5.028  0.00  0.00     0.179 C 
ATOM     10  S   UNL d   1      23.409  -7.791  -5.979  0.00  0.00    -0.040 SA
BRANCH   9  11
ATOM     11  N   UNL d   1      24.898  -7.583  -3.774  0.00  0.00    -0.299 N 
ATOM     12  C   UNL d   1      26.157  -7.379  -3.170  0.00  0.00     0.257 C 
ATOM     13  O   UNL d   1      27.267  -7.682  -3.633  0.00  0.00    -0.267 OA
ATOM     14  H   UNL d   1      24.078  -7.264  -3.276  0.00  0.00     0.171 HD
BRANCH  12  15
ATOM     15  C   UNL d   1      26.328  -6.786  -1.845  0.00  0.00     0.034 A 
ATOM     16  C   UNL d   1      27.351  -5.814  -1.720  0.00  0.00     0.017 A 
ATOM     17  C   UNL d   1      27.841  -5.445  -0.473  0.00  0.00     0.003 A 
ATOM     18  C   UNL d   1      27.267  -5.999   0.666  0.00  0.00     0.036 A 
ATOM     19  C   UNL d   1      26.254  -6.967   0.535  0.00  0.00     0.103 A 
ATOM     20  C   UNL d   1      25.782  -7.378  -0.719  0.00  0.00     0.053 A 
BRANCH  19  21
ATOM     21  N   UNL d   1      25.719  -7.616   1.734  0.00  0.00    -0.116 N 
ATOM     22  O   UNL d   1      25.912  -7.066   2.824  0.00  0.00    -0.532 OA
ATOM     23  O   UNL d   1      25.094  -8.676   1.575  0.00  0.00    -0.532 OA
ENDBRANCH  19  21
ENDBRANCH  12  15
ENDBRANCH   9  11
ENDBRANCH   7   9
ENDBRANCH   4   7
BRANCH   1  24
ATOM     24  N   UNL d   1      26.339 -14.200  -2.616  0.00  0.00    -0.325 N 
ATOM     25  C   UNL d   1      27.258 -14.298  -1.552  0.00  0.00     0.251 C 
ATOM     26  O   UNL d   1      27.909 -13.341  -1.127  0.00  0.00    -0.270 OA
ATOM     27  H   UNL d   1      25.765 -14.989  -2.876  0.00  0.00     0.169 HD
BRANCH  25  28
ATOM     28  C   UNL d   1      27.359 -15.691  -0.874  0.00  0.00     0.217 C 
ATOM     29  C   UNL d   1      28.834 -16.095  -0.940  0.00  0.00     0.050 C 
BRANCH  28  30
ATOM     30  O   UNL d   1      26.506 -16.603  -1.598  0.00  0.00    -0.335 OA
BRANCH  30  31
ATOM     31  C   UNL d   1      25.294 -16.993  -1.090  0.00  0.00     0.091 A 
ATOM     32  C   UNL d   1      24.068 -16.516  -1.560  0.00  0.00     0.038 A 
ATOM     33  C   UNL d   1      22.869 -16.826  -0.923  0.00  0.00     0.003 A 
ATOM     34  C   UNL d   1      22.857 -17.744   0.116  0.00  0.00     0.002 A 
ATOM     35  C   UNL d   1      24.056 -18.304   0.552  0.00  0.00     0.026 A 
ATOM     36  C   UNL d   1      25.273 -17.909  -0.025  0.00  0.00     0.067 A 
ATOM     37 CL   UNL d   1      26.722 -18.606   0.612  0.00  0.00    -0.081 Cl
ENDBRANCH  30  31
ENDBRANCH  28  30
ENDBRANCH  25  28
ENDBRANCH   1  24
TORSDOF 9
ENDMDL
MODEL 6
REMARK VINA RESULT:    -7.597      4.761      9.417
REMARK INTER + INTRA:         -12.772
REMARK INTER:                 -10.282
REMARK INTRA:                  -2.490
REMARK CONF_INDEPENDENT:        2.685
REMARK UNBOUND:                -2.490
REMARK  9 active torsions:
REMARK  status: ('A' for Active; 'I' for Inactive)
REMARK    1  A    between atoms: C_2  and  C_11 
REMARK    2  A    between atoms: C_2  and  O_3 
REMARK    3  A    between atoms: O_3  and  C_4 
REMARK       I    between atoms: C_11  and  N_13 
REMARK    4  A    between atoms: N_13  and  C_14 
REMARK    5  A    between atoms: C_17  and  N_18 
REMARK    6  A    between atoms: N_18  and  C_19 
REMARK    7  A    between atoms: C_19  and  N_21 
REMARK       I    between atoms: N_21  and  C_22 
REMARK    8  A    between atoms: C_22  and  C_24 
REMARK    9  A    between atoms: C_28  and  N_29 
ROOT
ATOM      1  C   UNL d   1      25.971 -14.979  -3.070  0.00  0.00     0.034 A 
ATOM      2  C   UNL d   1      26.587 -14.790  -4.317  0.00  0.00     0.032 A 
ATOM      3  C   UNL d   1      26.489 -13.535  -5.018  0.00  0.00     0.032 A 
ATOM      4  C   UNL d   1      25.766 -12.460  -4.471  0.00  0.00     0.034 A 
ATOM      5  C   UNL d   1      25.268 -12.710  -3.199  0.00  0.00     0.032 A 
ATOM      6  C   UNL d   1      25.302 -13.917  -2.533  0.00  0.00     0.032 A 
ENDROOT
BRANCH   4   7
ATOM      7  N   UNL d   1      25.530 -11.184  -5.155  0.00  0.00    -0.333 N 
ATOM      8  H   UNL d   1      24.930 -11.257  -5.971  0.00  0.00     0.168 HD
BRANCH   7   9
ATOM      9  C   UNL d   1      25.945  -9.886  -4.706  0.00  0.00     0.179 C 
ATOM     10  S   UNL d   1      26.290  -8.550  -5.688  0.00  0.00    -0.040 SA
BRANCH   9  11
ATOM     11  N   UNL d   1      26.076  -9.733  -3.305  0.00  0.00    -0.299 N 
ATOM     12  C   UNL d   1      27.239 -10.111  -2.600  0.00  0.00     0.257 C 
ATOM     13  O   UNL d   1      28.283 -10.581  -3.078  0.00  0.00    -0.267 OA
ATOM     14  H   UNL d   1      25.307  -9.347  -2.775  0.00  0.00     0.171 HD
BRANCH  12  15
ATOM     15  C   UNL d   1      27.364 -10.022  -1.147  0.00  0.00     0.034 A 
ATOM     16  C   UNL d   1      27.785 -11.199  -0.481  0.00  0.00     0.017 A 
ATOM     17  C   UNL d   1      27.603 -11.351   0.889  0.00  0.00     0.003 A 
ATOM     18  C   UNL d   1      27.057 -10.300   1.616  0.00  0.00     0.036 A 
ATOM     19  C   UNL d   1      26.637  -9.134   0.948  0.00  0.00     0.103 A 
ATOM     20  C   UNL d   1      26.776  -8.988  -0.439  0.00  0.00     0.053 A 
BRANCH  19  21
ATOM     21  N   UNL d   1      25.977  -8.069   1.705  0.00  0.00    -0.116 N 
ATOM     22  O   UNL d   1      25.154  -7.363   1.112  0.00  0.00    -0.532 OA
ATOM     23  O   UNL d   1      26.282  -7.951   2.902  0.00  0.00    -0.532 OA
ENDBRANCH  19  21
ENDBRANCH  12  15
ENDBRANCH   9  11
ENDBRANCH   7   9
ENDBRANCH   4   7
BRANCH   1  24
ATOM     24  N   UNL d   1      26.086 -16.146  -2.283  0.00  0.00    -0.325 N 
ATOM     25  C   UNL d   1      25.074 -16.576  -1.402  0.00  0.00     0.251 C 
ATOM     26  O   UNL d   1      23.972 -16.030  -1.316  0.00  0.00    -0.270 OA
ATOM     27  H   UNL d   1      26.941 -16.672  -2.383  0.00  0.00     0.169 HD
BRANCH  25  28
ATOM     28  C   UNL d   1      25.397 -17.851  -0.576  0.00  0.00     0.217 C 
ATOM     29  C   UNL d   1      24.087 -18.268   0.098  0.00  0.00     0.050 C 
BRANCH  28  30
ATOM     30  O   UNL d   1      26.425 -17.515   0.380  0.00  0.00    -0.335 OA
BRANCH  30  31
ATOM     31  C   UNL d   1      27.637 -17.025  -0.027  0.00  0.00     0.091 A 
ATOM     32  C   UNL d   1      28.670 -17.826  -0.520  0.00  0.00     0.038 A 
ATOM     33  C   UNL d   1      29.935 -17.307  -0.787  0.00  0.00     0.003 A 
ATOM     34  C   UNL d   1      30.152 -15.940  -0.706  0.00  0.00     0.002 A 
ATOM     35  C   UNL d   1      29.114 -15.104  -0.300  0.00  0.00     0.026 A 
ATOM     36  C   UNL d   1      27.872 -15.643   0.068  0.00  0.00     0.067 A 
ATOM     37 CL   UNL d   1      26.655 -14.543   0.618  0.00  0.00    -0.081 Cl
ENDBRANCH  30  31
ENDBRANCH  28  30
ENDBRANCH  25  28
ENDBRANCH   1  24
TORSDOF 9
ENDMDL
MODEL 7
REMARK VINA RESULT:    -7.586      5.142      9.901
REMARK INTER + INTRA:         -12.590
REMARK INTER:                 -10.271
REMARK INTRA:                  -2.319
REMARK CONF_INDEPENDENT:        2.685
REMARK UNBOUND:                -2.319
REMARK  9 active torsions:
REMARK  status: ('A' for Active; 'I' for Inactive)
REMARK    1  A    between atoms: C_2  and  C_11 
REMARK    2  A    between atoms: C_2  and  O_3 
REMARK    3  A    between atoms: O_3  and  C_4 
REMARK       I    between atoms: C_11  and  N_13 
REMARK    4  A    between atoms: N_13  and  C_14 
REMARK    5  A    between atoms: C_17  and  N_18 
REMARK    6  A    between atoms: N_18  and  C_19 
REMARK    7  A    between atoms: C_19  and  N_21 
REMARK       I    between atoms: N_21  and  C_22 
REMARK    8  A    between atoms: C_22  and  C_24 
REMARK    9  A    between atoms: C_28  and  N_29 
ROOT
ATOM      1  C   UNL d   1      25.723 -14.326  -2.180  0.00  0.00     0.034 A 
ATOM      2  C   UNL d   1      24.930 -14.404  -3.335  0.00  0.00     0.032 A 
ATOM      3  C   UNL d   1      24.870 -13.315  -4.277  0.00  0.00     0.032 A 
ATOM      4  C   UNL d   1      25.606 -12.136  -4.062  0.00  0.00     0.034 A 
ATOM      5  C   UNL d   1      26.426 -12.185  -2.943  0.00  0.00     0.032 A 
ATOM      6  C   UNL d   1      26.460 -13.192  -1.999  0.00  0.00     0.032 A 
ENDROOT
BRANCH   4   7
ATOM      7  N   UNL d   1      25.530 -10.943  -4.912  0.00  0.00    -0.333 N 
ATOM      8  H   UNL d   1      24.935 -11.053  -5.726  0.00  0.00     0.168 HD
BRANCH   7   9
ATOM      9  C   UNL d   1      26.090  -9.654  -4.623  0.00  0.00     0.179 C 
ATOM     10  S   UNL d   1      27.344  -8.895  -5.473  0.00  0.00    -0.040 SA
BRANCH   9  11
ATOM     11  N   UNL d   1      25.530  -8.973  -3.517  0.00  0.00    -0.299 N 
ATOM     12  C   UNL d   1      26.300  -8.544  -2.414  0.00  0.00     0.257 C 
ATOM     13  O   UNL d   1      27.525  -8.662  -2.266  0.00  0.00    -0.267 OA
ATOM     14  H   UNL d   1      24.536  -8.789  -3.500  0.00  0.00     0.171 HD
BRANCH  12  15
ATOM     15  C   UNL d   1      25.726  -7.901  -1.234  0.00  0.00     0.034 A 
ATOM     16  C   UNL d   1      25.264  -6.573  -1.405  0.00  0.00     0.017 A 
ATOM     17  C   UNL d   1      25.034  -5.747  -0.310  0.00  0.00     0.003 A 
ATOM     18  C   UNL d   1      25.202  -6.264   0.969  0.00  0.00     0.036 A 
ATOM     19  C   UNL d   1      25.665  -7.583   1.133  0.00  0.00     0.103 A 
ATOM     20  C   UNL d   1      25.941  -8.410   0.035  0.00  0.00     0.053 A 
BRANCH  19  21
ATOM     21  N   UNL d   1      25.929  -8.091   2.480  0.00  0.00    -0.116 N 
ATOM     22  O   UNL d   1      26.655  -7.418   3.220  0.00  0.00    -0.532 OA
ATOM     23  O   UNL d   1      25.396  -9.166   2.796  0.00  0.00    -0.532 OA
ENDBRANCH  19  21
ENDBRANCH  12  15
ENDBRANCH   9  11
ENDBRANCH   7   9
ENDBRANCH   4   7
BRANCH   1  24
ATOM     24  N   UNL d   1      25.899 -15.375  -1.251  0.00  0.00    -0.325 N 
ATOM     25  C   UNL d   1      25.521 -16.705  -1.520  0.00  0.00     0.251 C 
ATOM     26  O   UNL d   1      25.098 -17.083  -2.614  0.00  0.00    -0.270 OA
ATOM     27  H   UNL d   1      26.320 -15.126  -0.368  0.00  0.00     0.169 HD
BRANCH  25  28
ATOM     28  C   UNL d   1      25.739 -17.715  -0.360  0.00  0.00     0.217 C 
ATOM     29  C   UNL d   1      24.354 -17.996   0.230  0.00  0.00     0.050 C 
BRANCH  28  30
ATOM     30  O   UNL d   1      26.632 -17.110   0.598  0.00  0.00    -0.335 OA
BRANCH  30  31
ATOM     31  C   UNL d   1      27.909 -16.757   0.250  0.00  0.00     0.091 A 
ATOM     32  C   UNL d   1      28.753 -17.561  -0.520  0.00  0.00     0.038 A 
ATOM     33  C   UNL d   1      30.089 -17.231  -0.730  0.00  0.00     0.003 A 
ATOM     34  C   UNL d   1      30.574 -16.007  -0.294  0.00  0.00     0.002 A 
ATOM     35  C   UNL d   1      29.732 -15.144   0.404  0.00  0.00     0.026 A 
ATOM     36  C   UNL d   1      28.416 -15.527   0.703  0.00  0.00     0.067 A 
ATOM     37 CL   UNL d   1      27.453 -14.423   1.624  0.00  0.00    -0.081 Cl
ENDBRANCH  30  31
ENDBRANCH  28  30
ENDBRANCH  25  28
ENDBRANCH   1  24
TORSDOF 9
ENDMDL
MODEL 8
REMARK VINA RESULT:    -7.498      5.865      7.862
REMARK INTER + INTRA:         -12.679
REMARK INTER:                 -10.183
REMARK INTRA:                  -2.496
REMARK CONF_INDEPENDENT:        2.685
REMARK UNBOUND:                -2.496
REMARK  9 active torsions:
REMARK  status: ('A' for Active; 'I' for Inactive)
REMARK    1  A    between atoms: C_2  and  C_11 
REMARK    2  A    between atoms: C_2  and  O_3 
REMARK    3  A    between atoms: O_3  and  C_4 
REMARK       I    between atoms: C_11  and  N_13 
REMARK    4  A    between atoms: N_13  and  C_14 
REMARK    5  A    between atoms: C_17  and  N_18 
REMARK    6  A    between atoms: N_18  and  C_19 
REMARK    7  A    between atoms: C_19  and  N_21 
REMARK       I    between atoms: N_21  and  C_22 
REMARK    8  A    between atoms: C_22  and  C_24 
REMARK    9  A    between atoms: C_28  and  N_29 
ROOT
ATOM      1  C   UNL d   1      28.779 -14.622  -1.475  0.00  0.00     0.034 A 
ATOM      2  C   UNL d   1      29.780 -13.924  -0.781  0.00  0.00     0.032 A 
ATOM      3  C   UNL d   1      29.865 -13.970   0.657  0.00  0.00     0.032 A 
ATOM      4  C   UNL d   1      28.941 -14.717   1.409  0.00  0.00     0.034 A 
ATOM      5  C   UNL d   1      28.046 -15.442   0.635  0.00  0.00     0.032 A 
ATOM      6  C   UNL d   1      27.910 -15.372  -0.737  0.00  0.00     0.032 A 
ENDROOT
BRANCH   4   7
ATOM      7  N   UNL d   1      28.891 -14.743   2.875  0.00  0.00    -0.333 N 
ATOM      8  H   UNL d   1      29.349 -15.548   3.290  0.00  0.00     0.168 HD
BRANCH   7   9
ATOM      9  C   UNL d   1      28.393 -13.703   3.729  0.00  0.00     0.179 C 
ATOM     10  S   UNL d   1      28.158 -13.809   5.402  0.00  0.00    -0.040 SA
BRANCH   9  11
ATOM     11  N   UNL d   1      28.071 -12.483   3.088  0.00  0.00    -0.299 N 
ATOM     12  C   UNL d   1      27.067 -12.380   2.101  0.00  0.00     0.257 C 
ATOM     13  O   UNL d   1      26.331 -13.287   1.685  0.00  0.00    -0.267 OA
ATOM     14  H   UNL d   1      28.580 -11.645   3.334  0.00  0.00     0.171 HD
BRANCH  12  15
ATOM     15  C   UNL d   1      26.769 -11.143   1.382  0.00  0.00     0.034 A 
ATOM     16  C   UNL d   1      27.299 -11.033   0.074  0.00  0.00     0.017 A 
ATOM     17  C   UNL d   1      27.391  -9.801  -0.563  0.00  0.00     0.003 A 
ATOM     18  C   UNL d   1      26.893  -8.673   0.080  0.00  0.00     0.036 A 
ATOM     19  C   UNL d   1      26.372  -8.787   1.383  0.00  0.00     0.103 A 
ATOM     20  C   UNL d   1      26.314 -10.018   2.051  0.00  0.00     0.053 A 
BRANCH  19  21
ATOM     21  N   UNL d   1      25.936  -7.582   2.091  0.00  0.00    -0.116 N 
ATOM     22  O   UNL d   1      26.377  -7.389   3.230  0.00  0.00    -0.532 OA
ATOM     23  O   UNL d   1      25.156  -6.824   1.494  0.00  0.00    -0.532 OA
ENDBRANCH  19  21
ENDBRANCH  12  15
ENDBRANCH   9  11
ENDBRANCH   7   9
ENDBRANCH   4   7
BRANCH   1  24
ATOM     24  N   UNL d   1      28.675 -14.694  -2.881  0.00  0.00    -0.325 N 
ATOM     25  C   UNL d   1      28.942 -15.870  -3.608  0.00  0.00     0.251 C 
ATOM     26  O   UNL d   1      29.194 -16.954  -3.077  0.00  0.00    -0.270 OA
ATOM     27  H   UNL d   1      28.390 -13.848  -3.354  0.00  0.00     0.169 HD
BRANCH  25  28
ATOM     28  C   UNL d   1      28.830 -15.749  -5.152  0.00  0.00     0.217 C 
ATOM     29  C   UNL d   1      29.759 -14.603  -5.561  0.00  0.00     0.050 C 
BRANCH  28  30
ATOM     30  O   UNL d   1      27.450 -15.482  -5.480  0.00  0.00    -0.335 OA
BRANCH  30  31
ATOM     31  C   UNL d   1      26.827 -14.342  -5.045  0.00  0.00     0.091 A 
ATOM     32  C   UNL d   1      27.049 -13.078  -5.597  0.00  0.00     0.038 A 
ATOM     33  C   UNL d   1      26.507 -11.926  -5.033  0.00  0.00     0.003 A 
ATOM     34  C   UNL d   1      25.606 -12.030  -3.985  0.00  0.00     0.002 A 
ATOM     35  C   UNL d   1      25.297 -13.286  -3.466  0.00  0.00     0.026 A 
ATOM     36  C   UNL d   1      25.926 -14.434  -3.971  0.00  0.00     0.067 A 
ATOM     37 CL   UNL d   1      25.532 -15.949  -3.233  0.00  0.00    -0.081 Cl
ENDBRANCH  30  31
ENDBRANCH  28  30
ENDBRANCH  25  28
ENDBRANCH   1  24
TORSDOF 9
ENDMDL
MODEL 9
REMARK VINA RESULT:    -7.248      1.938      2.510
REMARK INTER + INTRA:         -12.562
REMARK INTER:                  -9.932
REMARK INTRA:                  -2.630
REMARK CONF_INDEPENDENT:        2.685
REMARK UNBOUND:                -2.630
REMARK  9 active torsions:
REMARK  status: ('A' for Active; 'I' for Inactive)
REMARK    1  A    between atoms: C_2  and  C_11 
REMARK    2  A    between atoms: C_2  and  O_3 
REMARK    3  A    between atoms: O_3  and  C_4 
REMARK       I    between atoms: C_11  and  N_13 
REMARK    4  A    between atoms: N_13  and  C_14 
REMARK    5  A    between atoms: C_17  and  N_18 
REMARK    6  A    between atoms: N_18  and  C_19 
REMARK    7  A    between atoms: C_19  and  N_21 
REMARK       I    between atoms: N_21  and  C_22 
REMARK    8  A    between atoms: C_22  and  C_24 
REMARK    9  A    between atoms: C_28  and  N_29 
ROOT
ATOM      1  C   UNL d   1      26.782 -13.837  -3.525  0.00  0.00     0.034 A 
ATOM      2  C   UNL d   1      27.447 -14.226  -2.352  0.00  0.00     0.032 A 
ATOM      3  C   UNL d   1      26.795 -15.037  -1.355  0.00  0.00     0.032 A 
ATOM      4  C   UNL d   1      25.465 -15.461  -1.531  0.00  0.00     0.034 A 
ATOM      5  C   UNL d   1      24.921 -15.104  -2.757  0.00  0.00     0.032 A 
ATOM      6  C   UNL d   1      25.504 -14.284  -3.700  0.00  0.00     0.032 A 
ENDROOT
BRANCH   4   7
ATOM      7  N   UNL d   1      24.692 -16.203  -0.529  0.00  0.00    -0.333 N 
ATOM      8  H   UNL d   1      23.817 -15.758  -0.269  0.00  0.00     0.168 HD
BRANCH   7   9
ATOM      9  C   UNL d   1      24.992 -17.509  -0.017  0.00  0.00     0.179 C 
ATOM     10  S   UNL d   1      26.502 -18.049   0.526  0.00  0.00    -0.040 SA
BRANCH   9  11
ATOM     11  N   UNL d   1      23.907 -18.418   0.024  0.00  0.00    -0.299 N 
ATOM     12  C   UNL d   1      22.577 -18.033  -0.247  0.00  0.00     0.257 C 
ATOM     13  O   UNL d   1      22.176 -16.905  -0.575  0.00  0.00    -0.267 OA
ATOM     14  H   UNL d   1      24.080 -19.384   0.264  0.00  0.00     0.171 HD
BRANCH  12  15
ATOM     15  C   UNL d   1      21.438 -18.943  -0.143  0.00  0.00     0.034 A 
ATOM     16  C   UNL d   1      20.693 -19.154  -1.328  0.00  0.00     0.017 A 
ATOM     17  C   UNL d   1      19.414 -19.697  -1.284  0.00  0.00     0.003 A 
ATOM     18  C   UNL d   1      18.893 -20.093  -0.057  0.00  0.00     0.036 A 
ATOM     19  C   UNL d   1      19.637 -19.876   1.118  0.00  0.00     0.103 A 
ATOM     20  C   UNL d   1      20.910 -19.291   1.089  0.00  0.00     0.053 A 
BRANCH  19  21
ATOM     21  N   UNL d   1      19.046 -20.209   2.415  0.00  0.00    -0.116 N 
ATOM     22  O   UNL d   1      17.813 -20.242   2.499  0.00  0.00    -0.532 OA
ATOM     23  O   UNL d   1      19.826 -20.448   3.350  0.00  0.00    -0.532 OA
ENDBRANCH  19  21
ENDBRANCH  12  15
ENDBRANCH   9  11
ENDBRANCH   7   9
ENDBRANCH   4   7
BRANCH   1  24
ATOM     24  N   UNL d   1      27.372 -13.113  -4.584  0.00  0.00    -0.325 N 
ATOM     25  C   UNL d   1      27.691 -13.698  -5.826  0.00  0.00     0.251 C 
ATOM     26  O   UNL d   1      27.395 -14.856  -6.126  0.00  0.00    -0.270 OA
ATOM     27  H   UNL d   1      27.557 -12.136  -4.411  0.00  0.00     0.169 HD
BRANCH  25  28
ATOM     28  C   UNL d   1      28.387 -12.763  -6.852  0.00  0.00     0.217 C 
ATOM     29  C   UNL d   1      29.606 -13.529  -7.373  0.00  0.00     0.050 C 
BRANCH  28  30
ATOM     30  O   UNL d   1      28.753 -11.544  -6.171  0.00  0.00    -0.335 OA
BRANCH  30  31
ATOM     31  C   UNL d   1      29.856 -10.826  -6.550  0.00  0.00     0.091 A 
ATOM     32  C   UNL d   1      30.013 -10.258  -7.817  0.00  0.00     0.038 A 
ATOM     33  C   UNL d   1      31.208  -9.660  -8.209  0.00  0.00     0.003 A 
ATOM     34  C   UNL d   1      32.227  -9.486  -7.285  0.00  0.00     0.002 A 
ATOM     35  C   UNL d   1      32.067  -9.966  -5.987  0.00  0.00     0.026 A 
ATOM     36  C   UNL d   1      30.902 -10.659  -5.627  0.00  0.00     0.067 A 
ATOM     37 CL   UNL d   1      30.805 -11.274  -4.013  0.00  0.00    -0.081 Cl
ENDBRANCH  30  31
ENDBRANCH  28  30
ENDBRANCH  25  28
ENDBRANCH   1  24
TORSDOF 9
ENDMDL
