MODEL 1
REMARK VINA RESULT:   -23.814      0.000      0.000
REMARK INTER + INTRA:         -26.521
REMARK INTER:                 -25.007
REMARK INTRA:                  -1.514
REMARK CONF_INDEPENDENT:        1.193
REMARK UNBOUND:                -1.514
REMARK  4 active torsions:
REMARK  status: ('A' for Active; 'I' for Inactive)
REMARK    1  A    between atoms: C_5  and  N_6 
REMARK       I    between atoms: N_6  and  C_7 
REMARK    2  A    between atoms: C_7  and  C_9 
REMARK    3  A    between atoms: C_12  and  C_14 
REMARK       I    between atoms: C_14  and  N_16 
REMARK    4  A    between atoms: N_16  and  N_17 
ROOT
ATOM      1  C   UNL d   1      24.886 -16.443   0.063  0.00  0.00     0.087 C 
ATOM      2  C   UNL d   1      25.199 -17.865   0.611  0.00  0.00     0.016 C 
ATOM      3  C   UNL d   1      24.482 -18.883  -0.273  0.00  0.00     0.020 C 
ATOM      4  C   UNL d   1      23.668 -18.067  -1.297  0.00  0.00     0.046 C 
ATOM      5  C   UNL d   1      23.619 -18.792  -2.654  0.00  0.00     0.026 C 
ATOM      6  C   UNL d   1      24.468 -16.696  -1.403  0.00  0.00    -0.020 C 
ATOM      7  C   UNL d   1      23.609 -15.563  -2.005  0.00  0.00     0.017 C 
ATOM      8  C   UNL d   1      25.731 -16.841  -2.298  0.00  0.00     0.017 C 
ENDROOT
BRANCH   1   9
ATOM      9  C   UNL d   1      26.096 -15.539   0.334  0.00  0.00     0.227 C 
ATOM     10  N   UNL d   1      27.348 -16.136   0.368  0.00  0.00    -0.327 N 
ATOM     11  H   UNL d   1      27.427 -17.124   0.210  0.00  0.00     0.169 HD
ATOM     12  O   UNL d   1      25.893 -14.330   0.464  0.00  0.00    -0.273 OA
BRANCH  10  13
ATOM     13  C   UNL d   1      28.565 -15.509   0.716  0.00  0.00     0.034 A 
ATOM     14  C   UNL d   1      28.637 -14.687   1.851  0.00  0.00     0.030 A 
ATOM     15  C   UNL d   1      29.862 -14.107   2.222  0.00  0.00     0.009 A 
ATOM     16  C   UNL d   1      31.011 -14.340   1.458  0.00  0.00    -0.062 A 
ATOM     17  C   UNL d   1      32.355 -13.793   1.823  0.00  0.00     0.048 C 
ATOM     18  C   UNL d   1      30.919 -15.125   0.315  0.00  0.00     0.009 A 
ATOM     19  C   UNL d   1      29.709 -15.689  -0.050  0.00  0.00     0.030 A 
ENDBRANCH  10  13
ENDBRANCH   1   9
BRANCH   4  20
ATOM     20  C   UNL d   1      22.217 -17.920  -0.743  0.00  0.00     0.240 C 
ATOM     21  O   UNL d   1      21.890 -17.125   0.144  0.00  0.00    -0.271 OA
ATOM     22  N   UNL d   1      21.259 -18.782  -1.260  0.00  0.00    -0.293 N 
ATOM     23  H   UNL d   1      21.477 -19.468  -1.977  0.00  0.00     0.183 HD
BRANCH  22  24
ATOM     24  N   UNL d   1      19.905 -18.575  -0.897  0.00  0.00    -0.247 NA
ATOM     25  H   UNL d   1      19.610 -17.707  -1.375  0.00  0.00     0.143 HD
ATOM     26  H   UNL d   1      19.869 -18.328   0.094  0.00  0.00     0.143 HD
ENDBRANCH  22  24
ENDBRANCH   4  20
TORSDOF 4
ENDMDL
MODEL 2
REMARK VINA RESULT:   -23.152      1.907      2.152
REMARK INTER + INTRA:         -25.903
REMARK INTER:                 -24.345
REMARK INTRA:                  -1.557
REMARK CONF_INDEPENDENT:        1.193
REMARK UNBOUND:                -1.557
REMARK  4 active torsions:
REMARK  status: ('A' for Active; 'I' for Inactive)
REMARK    1  A    between atoms: C_5  and  N_6 
REMARK       I    between atoms: N_6  and  C_7 
REMARK    2  A    between atoms: C_7  and  C_9 
REMARK    3  A    between atoms: C_12  and  C_14 
REMARK       I    between atoms: C_14  and  N_16 
REMARK    4  A    between atoms: N_16  and  N_17 
ROOT
ATOM      1  C   UNL d   1      24.928 -16.559   0.083  0.00  0.00     0.087 C 
ATOM      2  C   UNL d   1      25.175 -17.987   0.651  0.00  0.00     0.016 C 
ATOM      3  C   UNL d   1      24.437 -18.986  -0.237  0.00  0.00     0.020 C 
ATOM      4  C   UNL d   1      23.676 -18.150  -1.286  0.00  0.00     0.046 C 
ATOM      5  C   UNL d   1      23.626 -18.887  -2.636  0.00  0.00     0.026 C 
ATOM      6  C   UNL d   1      24.530 -16.812  -1.389  0.00  0.00    -0.020 C 
ATOM      7  C   UNL d   1      23.727 -15.653  -2.019  0.00  0.00     0.017 C 
ATOM      8  C   UNL d   1      25.804 -17.014  -2.257  0.00  0.00     0.017 C 
ENDROOT
BRANCH   1   9
ATOM      9  C   UNL d   1      26.166 -15.700   0.370  0.00  0.00     0.227 C 
ATOM     10  N   UNL d   1      26.127 -14.368  -0.015  0.00  0.00    -0.327 N 
ATOM     11  H   UNL d   1      25.301 -14.008  -0.457  0.00  0.00     0.169 HD
ATOM     12  O   UNL d   1      27.108 -16.230   0.965  0.00  0.00    -0.273 OA
BRANCH  10  13
ATOM     13  C   UNL d   1      27.195 -13.446   0.051  0.00  0.00     0.034 A 
ATOM     14  C   UNL d   1      27.598 -12.748  -1.098  0.00  0.00     0.030 A 
ATOM     15  C   UNL d   1      28.626 -11.794  -1.015  0.00  0.00     0.009 A 
ATOM     16  C   UNL d   1      29.257 -11.541   0.208  0.00  0.00    -0.062 A 
ATOM     17  C   UNL d   1      30.323 -10.507   0.375  0.00  0.00     0.048 C 
ATOM     18  C   UNL d   1      28.875 -12.266   1.331  0.00  0.00     0.009 A 
ATOM     19  C   UNL d   1      27.866 -13.210   1.244  0.00  0.00     0.030 A 
ENDBRANCH  10  13
ENDBRANCH   1   9
BRANCH   4  20
ATOM     20  C   UNL d   1      22.221 -17.942  -0.763  0.00  0.00     0.240 C 
ATOM     21  O   UNL d   1      21.895 -17.077   0.057  0.00  0.00    -0.271 OA
ATOM     22  N   UNL d   1      21.257 -18.828  -1.225  0.00  0.00    -0.293 N 
ATOM     23  H   UNL d   1      21.474 -19.570  -1.885  0.00  0.00     0.183 HD
BRANCH  22  24
ATOM     24  N   UNL d   1      19.902 -18.576  -0.896  0.00  0.00    -0.247 NA
ATOM     25  H   UNL d   1      19.607 -17.780  -1.486  0.00  0.00     0.143 HD
ATOM     26  H   UNL d   1      19.863 -18.199   0.054  0.00  0.00     0.143 HD
ENDBRANCH  22  24
ENDBRANCH   4  20
TORSDOF 4
ENDMDL
