MODEL 1
REMARK VINA RESULT:    -7.658      0.000      0.000
REMARK INTER + INTRA:         -15.222
REMARK INTER:                 -10.940
REMARK INTRA:                  -4.283
REMARK CONF_INDEPENDENT:        3.281
REMARK UNBOUND:                -4.283
REMARK  11 active torsions:
REMARK  status: ('A' for Active; 'I' for Inactive)
REMARK    1  A    between atoms: C_2  and  N_5 
REMARK       I    between atoms: N_5  and  C_6 
REMARK    2  A    between atoms: C_8  and  C_6 
REMARK    3  A    between atoms: C_8  and  N_18 
REMARK    4  A    between atoms: C_8  and  C_9 
REMARK    5  A    between atoms: C_10  and  O_11 
REMARK    6  A    between atoms: C_13  and  O_14 
REMARK    7  A    between atoms: C_16  and  O_17 
REMARK    8  A    between atoms: N_18  and  C_19 
REMARK       I    between atoms: N_18  and  C_25 
REMARK    9  A    between atoms: C_19  and  C_20 
REMARK   10  A    between atoms: C_25  and  C_27 
REMARK   11  A    between atoms: C_29  and  N_30 
ROOT
ATOM      1  C   UNL d   1      27.337 -15.806  -0.476  0.00  0.00     0.218 C 
ENDROOT
BRANCH   1   2
ATOM      2  N   UNL d   1      27.695 -14.714   0.501  0.00  0.00    -0.324 N 
ATOM      3  C   UNL d   1      27.215 -13.390   0.135  0.00  0.00     0.259 C 
ATOM      4  O   UNL d   1      26.326 -13.244  -0.692  0.00  0.00    -0.267 OA
BRANCH   2   5
ATOM      5  C   UNL d   1      28.862 -14.731   1.397  0.00  0.00     0.192 C 
BRANCH   5   6
ATOM      6  C   UNL d   1      28.711 -14.451   2.827  0.00  0.00     0.070 A 
ATOM      7  C   UNL d   1      29.608 -14.421   3.860  0.00  0.00     0.036 A 
ATOM      8  C   UNL d   1      28.886 -13.998   4.996  0.00  0.00     0.027 A 
ATOM      9  C   UNL d   1      27.578 -13.848   4.592  0.00  0.00     0.142 A 
ATOM     10  O   UNL d   1      27.455 -14.159   3.279  0.00  0.00    -0.325 OA
ENDBRANCH   5   6
ENDBRANCH   2   5
BRANCH   3  11
ATOM     11  C   UNL d   1      27.679 -12.133   0.888  0.00  0.00     0.084 C 
ATOM     12  C   UNL d   1      26.656 -11.316   1.429  0.00  0.00     0.057 C 
ATOM     13  C   UNL d   1      26.989 -10.192   2.200  0.00  0.00     0.104 C 
ATOM     14  C   UNL d   1      28.320  -9.885   2.463  0.00  0.00     0.040 C 
ATOM     15  C   UNL d   1      29.313 -10.667   1.884  0.00  0.00     0.058 C 
ATOM     16  C   UNL d   1      29.050 -11.737   1.003  0.00  0.00     0.187 C 
ATOM     17  O   UNL d   1      30.024 -12.230   0.344  0.00  0.00    -0.287 OA
BRANCH  13  18
ATOM     18  N   UNL d   1      25.959  -9.318   2.777  0.00  0.00    -0.116 N 
ATOM     19  O   UNL d   1      24.775  -9.493   2.412  0.00  0.00    -0.532 OA
ATOM     20  O   UNL d   1      26.301  -8.469   3.602  0.00  0.00    -0.532 OA
ENDBRANCH  13  18
ENDBRANCH   3  11
ENDBRANCH   1   2
BRANCH   1  21
ATOM     21  C   UNL d   1      25.910 -16.425  -0.449  0.00  0.00     0.040 C 
ATOM     22  C   UNL d   1      24.854 -15.908  -1.222  0.00  0.00     0.080 C 
ATOM     23  C   UNL d   1      23.651 -16.629  -1.401  0.00  0.00     0.073 C 
ATOM     24  C   UNL d   1      23.449 -17.847  -0.749  0.00  0.00     0.071 C 
ATOM     25  C   UNL d   1      24.403 -18.325   0.124  0.00  0.00     0.073 C 
ATOM     26  C   UNL d   1      25.625 -17.649   0.209  0.00  0.00     0.080 C 
BRANCH  22  27
ATOM     27  O   UNL d   1      24.979 -14.799  -2.019  0.00  0.00    -0.360 OA
ATOM     28  H   UNL d   1      25.122 -13.992  -1.488  0.00  0.00     0.217 HD
ENDBRANCH  22  27
BRANCH  24  29
ATOM     29  O   UNL d   1      22.505 -18.758  -1.157  0.00  0.00    -0.361 OA
ATOM     30  H   UNL d   1      22.725 -19.038  -2.064  0.00  0.00     0.217 HD
ENDBRANCH  24  29
BRANCH  26  31
ATOM     31  O   UNL d   1      26.660 -18.424   0.670  0.00  0.00    -0.360 OA
ATOM     32  H   UNL d   1      27.344 -17.864   1.068  0.00  0.00     0.217 HD
ENDBRANCH  26  31
ENDBRANCH   1  21
BRANCH   1  33
ATOM     33  C   UNL d   1      27.766 -15.571  -1.976  0.00  0.00     0.246 C 
ATOM     34  N   UNL d   1      27.389 -14.409  -2.669  0.00  0.00    -0.351 N 
ATOM     35  H   UNL d   1      26.889 -13.713  -2.122  0.00  0.00     0.163 HD
ATOM     36  O   UNL d   1      28.225 -16.544  -2.590  0.00  0.00    -0.271 OA
BRANCH  34  37
ATOM     37  C   UNL d   1      27.069 -14.530  -4.122  0.00  0.00     0.022 C 
ATOM     38  C   UNL d   1      25.962 -15.574  -4.414  0.00  0.00     0.037 C 
ATOM     39  C   UNL d   1      28.294 -14.959  -4.987  0.00  0.00     0.037 C 
ATOM     40  C   UNL d   1      26.569 -13.170  -4.613  0.00  0.00     0.037 C 
ENDBRANCH  34  37
ENDBRANCH   1  33
TORSDOF 11
ENDMDL
MODEL 2
REMARK VINA RESULT:    -7.523      0.501      1.469
REMARK INTER + INTRA:         -15.162
REMARK INTER:                 -10.804
REMARK INTRA:                  -4.358
REMARK CONF_INDEPENDENT:        3.281
REMARK UNBOUND:                -4.358
REMARK  11 active torsions:
REMARK  status: ('A' for Active; 'I' for Inactive)
REMARK    1  A    between atoms: C_2  and  N_5 
REMARK       I    between atoms: N_5  and  C_6 
REMARK    2  A    between atoms: C_8  and  C_6 
REMARK    3  A    between atoms: C_8  and  N_18 
REMARK    4  A    between atoms: C_8  and  C_9 
REMARK    5  A    between atoms: C_10  and  O_11 
REMARK    6  A    between atoms: C_13  and  O_14 
REMARK    7  A    between atoms: C_16  and  O_17 
REMARK    8  A    between atoms: N_18  and  C_19 
REMARK       I    between atoms: N_18  and  C_25 
REMARK    9  A    between atoms: C_19  and  C_20 
REMARK   10  A    between atoms: C_25  and  C_27 
REMARK   11  A    between atoms: C_29  and  N_30 
ROOT
ATOM      1  C   UNL d   1      27.513 -15.793  -0.840  0.00  0.00     0.218 C 
ENDROOT
BRANCH   1   2
ATOM      2  N   UNL d   1      27.851 -14.717   0.161  0.00  0.00    -0.324 N 
ATOM      3  C   UNL d   1      27.262 -13.416  -0.122  0.00  0.00     0.259 C 
ATOM      4  O   UNL d   1      26.320 -13.302  -0.893  0.00  0.00    -0.267 OA
BRANCH   2   5
ATOM      5  C   UNL d   1      29.067 -14.687   0.991  0.00  0.00     0.192 C 
BRANCH   5   6
ATOM      6  C   UNL d   1      28.981 -14.450   2.434  0.00  0.00     0.070 A 
ATOM      7  C   UNL d   1      29.935 -14.249   3.393  0.00  0.00     0.036 A 
ATOM      8  C   UNL d   1      29.240 -13.984   4.592  0.00  0.00     0.027 A 
ATOM      9  C   UNL d   1      27.900 -14.095   4.296  0.00  0.00     0.142 A 
ATOM     10  O   UNL d   1      27.733 -14.416   2.990  0.00  0.00    -0.325 OA
ENDBRANCH   5   6
ENDBRANCH   2   5
BRANCH   3  11
ATOM     11  C   UNL d   1      27.683 -12.160   0.656  0.00  0.00     0.084 C 
ATOM     12  C   UNL d   1      26.655 -11.494   1.368  0.00  0.00     0.057 C 
ATOM     13  C   UNL d   1      26.961 -10.385   2.171  0.00  0.00     0.104 C 
ATOM     14  C   UNL d   1      28.276  -9.946   2.298  0.00  0.00     0.040 C 
ATOM     15  C   UNL d   1      29.265 -10.578   1.553  0.00  0.00     0.058 C 
ATOM     16  C   UNL d   1      29.009 -11.620   0.637  0.00  0.00     0.187 C 
ATOM     17  O   UNL d   1      29.939 -11.964  -0.164  0.00  0.00    -0.287 OA
BRANCH  13  18
ATOM     18  N   UNL d   1      25.926  -9.665   2.924  0.00  0.00    -0.116 N 
ATOM     19  O   UNL d   1      24.789  -9.576   2.409  0.00  0.00    -0.532 OA
ATOM     20  O   UNL d   1      26.215  -9.200   4.028  0.00  0.00    -0.532 OA
ENDBRANCH  13  18
ENDBRANCH   3  11
ENDBRANCH   1   2
BRANCH   1  21
ATOM     21  C   UNL d   1      26.138 -16.517  -0.756  0.00  0.00     0.040 C 
ATOM     22  C   UNL d   1      25.894 -17.556   0.161  0.00  0.00     0.080 C 
ATOM     23  C   UNL d   1      24.583 -18.017   0.419  0.00  0.00     0.073 C 
ATOM     24  C   UNL d   1      23.496 -17.502  -0.289  0.00  0.00     0.071 C 
ATOM     25  C   UNL d   1      23.705 -16.577  -1.290  0.00  0.00     0.073 C 
ATOM     26  C   UNL d   1      24.995 -16.061  -1.461  0.00  0.00     0.080 C 
BRANCH  22  27
ATOM     27  O   UNL d   1      26.850 -18.046   1.014  0.00  0.00    -0.360 OA
ATOM     28  H   UNL d   1      27.749 -17.809   0.715  0.00  0.00     0.217 HD
ENDBRANCH  22  27
BRANCH  24  29
ATOM     29  O   UNL d   1      22.201 -17.615   0.156  0.00  0.00    -0.361 OA
ATOM     30  H   UNL d   1      22.117 -17.103   0.980  0.00  0.00     0.217 HD
ENDBRANCH  24  29
BRANCH  26  31
ATOM     31  O   UNL d   1      25.028 -14.838  -2.083  0.00  0.00    -0.360 OA
ATOM     32  H   UNL d   1      25.028 -14.129  -1.421  0.00  0.00     0.217 HD
ENDBRANCH  26  31
ENDBRANCH   1  21
BRANCH   1  33
ATOM     33  C   UNL d   1      27.829 -15.468  -2.351  0.00  0.00     0.246 C 
ATOM     34  N   UNL d   1      27.303 -14.326  -2.978  0.00  0.00    -0.351 N 
ATOM     35  H   UNL d   1      26.772 -13.700  -2.378  0.00  0.00     0.163 HD
ATOM     36  O   UNL d   1      28.344 -16.371  -3.027  0.00  0.00    -0.271 OA
BRANCH  34  37
ATOM     37  C   UNL d   1      26.912 -14.430  -4.415  0.00  0.00     0.022 C 
ATOM     38  C   UNL d   1      25.905 -15.575  -4.688  0.00  0.00     0.037 C 
ATOM     39  C   UNL d   1      28.123 -14.696  -5.362  0.00  0.00     0.037 C 
ATOM     40  C   UNL d   1      26.245 -13.114  -4.821  0.00  0.00     0.037 C 
ENDBRANCH  34  37
ENDBRANCH   1  33
TORSDOF 11
ENDMDL
MODEL 3
REMARK VINA RESULT:    -7.060      1.718      4.035
REMARK INTER + INTRA:         -14.749
REMARK INTER:                 -10.342
REMARK INTRA:                  -4.408
REMARK CONF_INDEPENDENT:        3.281
REMARK UNBOUND:                -4.408
REMARK  11 active torsions:
REMARK  status: ('A' for Active; 'I' for Inactive)
REMARK    1  A    between atoms: C_2  and  N_5 
REMARK       I    between atoms: N_5  and  C_6 
REMARK    2  A    between atoms: C_8  and  C_6 
REMARK    3  A    between atoms: C_8  and  N_18 
REMARK    4  A    between atoms: C_8  and  C_9 
REMARK    5  A    between atoms: C_10  and  O_11 
REMARK    6  A    between atoms: C_13  and  O_14 
REMARK    7  A    between atoms: C_16  and  O_17 
REMARK    8  A    between atoms: N_18  and  C_19 
REMARK       I    between atoms: N_18  and  C_25 
REMARK    9  A    between atoms: C_19  and  C_20 
REMARK   10  A    between atoms: C_25  and  C_27 
REMARK   11  A    between atoms: C_29  and  N_30 
ROOT
ATOM      1  C   UNL d   1      25.951 -14.259  -1.550  0.00  0.00     0.218 C 
ENDROOT
BRANCH   1   2
ATOM      2  N   UNL d   1      26.332 -13.260  -0.486  0.00  0.00    -0.324 N 
ATOM      3  C   UNL d   1      27.118 -12.133  -0.965  0.00  0.00     0.259 C 
ATOM      4  O   UNL d   1      27.164 -11.852  -2.155  0.00  0.00    -0.267 OA
BRANCH   2   5
ATOM      5  C   UNL d   1      26.485 -13.567   0.945  0.00  0.00     0.192 C 
BRANCH   5   6
ATOM      6  C   UNL d   1      27.811 -13.794   1.524  0.00  0.00     0.070 A 
ATOM      7  C   UNL d   1      28.271 -13.766   2.812  0.00  0.00     0.036 A 
ATOM      8  C   UNL d   1      29.625 -14.158   2.755  0.00  0.00     0.027 A 
ATOM      9  C   UNL d   1      29.919 -14.348   1.424  0.00  0.00     0.142 A 
ATOM     10  O   UNL d   1      28.828 -14.092   0.662  0.00  0.00    -0.325 OA
ENDBRANCH   5   6
ENDBRANCH   2   5
BRANCH   3  11
ATOM     11  C   UNL d   1      27.784 -11.149   0.009  0.00  0.00     0.084 C 
ATOM     12  C   UNL d   1      26.921 -10.227   0.652  0.00  0.00     0.057 C 
ATOM     13  C   UNL d   1      27.429  -9.345   1.617  0.00  0.00     0.104 C 
ATOM     14  C   UNL d   1      28.774  -9.385   1.972  0.00  0.00     0.040 C 
ATOM     15  C   UNL d   1      29.617 -10.259   1.297  0.00  0.00     0.058 C 
ATOM     16  C   UNL d   1      29.196 -11.087   0.235  0.00  0.00     0.187 C 
ATOM     17  O   UNL d   1      30.087 -11.668  -0.469  0.00  0.00    -0.287 OA
BRANCH  13  18
ATOM     18  N   UNL d   1      26.569  -8.373   2.305  0.00  0.00    -0.116 N 
ATOM     19  O   UNL d   1      25.534  -7.992   1.716  0.00  0.00    -0.532 OA
ATOM     20  O   UNL d   1      26.894  -7.992   3.432  0.00  0.00    -0.532 OA
ENDBRANCH  13  18
ENDBRANCH   3  11
ENDBRANCH   1   2
BRANCH   1  21
ATOM     21  C   UNL d   1      26.745 -14.300  -2.888  0.00  0.00     0.040 C 
ATOM     22  C   UNL d   1      28.151 -14.345  -2.923  0.00  0.00     0.080 C 
ATOM     23  C   UNL d   1      28.847 -14.654  -4.114  0.00  0.00     0.073 C 
ATOM     24  C   UNL d   1      28.157 -14.850  -5.311  0.00  0.00     0.071 C 
ATOM     25  C   UNL d   1      26.789 -14.684  -5.349  0.00  0.00     0.073 C 
ATOM     26  C   UNL d   1      26.109 -14.477  -4.143  0.00  0.00     0.080 C 
BRANCH  22  27
ATOM     27  O   UNL d   1      28.932 -14.309  -1.797  0.00  0.00    -0.360 OA
ATOM     28  H   UNL d   1      28.969 -13.410  -1.417  0.00  0.00     0.217 HD
ENDBRANCH  22  27
BRANCH  24  29
ATOM     29  O   UNL d   1      28.707 -15.507  -6.384  0.00  0.00    -0.361 OA
ATOM     30  H   UNL d   1      29.009 -16.383  -6.083  0.00  0.00     0.217 HD
ENDBRANCH  24  29
BRANCH  26  31
ATOM     31  O   UNL d   1      24.781 -14.823  -4.185  0.00  0.00    -0.360 OA
ATOM     32  H   UNL d   1      24.298 -14.218  -4.769  0.00  0.00     0.217 HD
ENDBRANCH  26  31
ENDBRANCH   1  21
BRANCH   1  33
ATOM     33  C   UNL d   1      25.691 -15.737  -1.063  0.00  0.00     0.246 C 
ATOM     34  N   UNL d   1      24.774 -16.572  -1.722  0.00  0.00    -0.351 N 
ATOM     35  H   UNL d   1      24.351 -16.185  -2.561  0.00  0.00     0.163 HD
ATOM     36  O   UNL d   1      26.130 -16.047   0.054  0.00  0.00    -0.271 OA
BRANCH  34  37
ATOM     37  C   UNL d   1      23.970 -17.521  -0.897  0.00  0.00     0.022 C 
ATOM     38  C   UNL d   1      24.817 -18.281   0.154  0.00  0.00     0.037 C 
ATOM     39  C   UNL d   1      23.261 -18.622  -1.745  0.00  0.00     0.037 C 
ATOM     40  C   UNL d   1      22.909 -16.715  -0.146  0.00  0.00     0.037 C 
ENDBRANCH  34  37
ENDBRANCH   1  33
TORSDOF 11
ENDMDL
MODEL 4
REMARK VINA RESULT:    -6.819      1.634      2.288
REMARK INTER + INTRA:         -14.727
REMARK INTER:                 -10.100
REMARK INTRA:                  -4.626
REMARK CONF_INDEPENDENT:        3.281
REMARK UNBOUND:                -4.626
REMARK  11 active torsions:
REMARK  status: ('A' for Active; 'I' for Inactive)
REMARK    1  A    between atoms: C_2  and  N_5 
REMARK       I    between atoms: N_5  and  C_6 
REMARK    2  A    between atoms: C_8  and  C_6 
REMARK    3  A    between atoms: C_8  and  N_18 
REMARK    4  A    between atoms: C_8  and  C_9 
REMARK    5  A    between atoms: C_10  and  O_11 
REMARK    6  A    between atoms: C_13  and  O_14 
REMARK    7  A    between atoms: C_16  and  O_17 
REMARK    8  A    between atoms: N_18  and  C_19 
REMARK       I    between atoms: N_18  and  C_25 
REMARK    9  A    between atoms: C_19  and  C_20 
REMARK   10  A    between atoms: C_25  and  C_27 
REMARK   11  A    between atoms: C_29  and  N_30 
ROOT
ATOM      1  C   UNL d   1      26.899 -15.762  -0.988  0.00  0.00     0.218 C 
ENDROOT
BRANCH   1   2
ATOM      2  N   UNL d   1      27.385 -14.678  -0.060  0.00  0.00    -0.324 N 
ATOM      3  C   UNL d   1      26.973 -13.332  -0.430  0.00  0.00     0.259 C 
ATOM      4  O   UNL d   1      26.050 -13.143  -1.209  0.00  0.00    -0.267 OA
BRANCH   2   5
ATOM      5  C   UNL d   1      28.598 -14.756   0.770  0.00  0.00     0.192 C 
BRANCH   5   6
ATOM      6  C   UNL d   1      29.731 -15.591   0.361  0.00  0.00     0.070 A 
ATOM      7  C   UNL d   1      31.085 -15.414   0.449  0.00  0.00     0.036 A 
ATOM      8  C   UNL d   1      31.669 -16.604  -0.031  0.00  0.00     0.027 A 
ATOM      9  C   UNL d   1      30.630 -17.413  -0.433  0.00  0.00     0.142 A 
ATOM     10  O   UNL d   1      29.445 -16.787  -0.233  0.00  0.00    -0.325 OA
ENDBRANCH   5   6
ENDBRANCH   2   5
BRANCH   3  11
ATOM     11  C   UNL d   1      27.564 -12.095   0.264  0.00  0.00     0.084 C 
ATOM     12  C   UNL d   1      26.656 -11.309   1.017  0.00  0.00     0.057 C 
ATOM     13  C   UNL d   1      27.121 -10.207   1.750  0.00  0.00     0.104 C 
ATOM     14  C   UNL d   1      28.476  -9.891   1.767  0.00  0.00     0.040 C 
ATOM     15  C   UNL d   1      29.346 -10.640   0.984  0.00  0.00     0.058 C 
ATOM     16  C   UNL d   1      28.929 -11.684   0.132  0.00  0.00     0.187 C 
ATOM     17  O   UNL d   1      29.763 -12.143  -0.716  0.00  0.00    -0.287 OA
BRANCH  13  18
ATOM     18  N   UNL d   1      26.213  -9.366   2.541  0.00  0.00    -0.116 N 
ATOM     19  O   UNL d   1      26.652  -8.875   3.604  0.00  0.00    -0.532 OA
ATOM     20  O   UNL d   1      25.072  -9.169   2.117  0.00  0.00    -0.532 OA
ENDBRANCH  13  18
ENDBRANCH   3  11
ENDBRANCH   1   2
BRANCH   1  21
ATOM     21  C   UNL d   1      25.598 -16.543  -0.645  0.00  0.00     0.040 C 
ATOM     22  C   UNL d   1      24.349 -16.196  -1.193  0.00  0.00     0.080 C 
ATOM     23  C   UNL d   1      23.236 -17.063  -1.095  0.00  0.00     0.073 C 
ATOM     24  C   UNL d   1      23.328 -18.260  -0.382  0.00  0.00     0.071 C 
ATOM     25  C   UNL d   1      24.493 -18.575   0.283  0.00  0.00     0.073 C 
ATOM     26  C   UNL d   1      25.612 -17.756   0.091  0.00  0.00     0.080 C 
BRANCH  22  27
ATOM     27  O   UNL d   1      24.167 -15.124  -2.028  0.00  0.00    -0.360 OA
ATOM     28  H   UNL d   1      24.991 -14.611  -2.135  0.00  0.00     0.217 HD
ENDBRANCH  22  27
BRANCH  24  29
ATOM     29  O   UNL d   1      22.443 -19.296  -0.559  0.00  0.00    -0.361 OA
ATOM     30  H   UNL d   1      22.481 -19.865   0.231  0.00  0.00     0.217 HD
ENDBRANCH  24  29
BRANCH  26  31
ATOM     31  O   UNL d   1      26.809 -18.379   0.344  0.00  0.00    -0.360 OA
ATOM     32  H   UNL d   1      27.543 -17.826   0.035  0.00  0.00     0.217 HD
ENDBRANCH  26  31
ENDBRANCH   1  21
BRANCH   1  33
ATOM     33  C   UNL d   1      26.899 -15.418  -2.528  0.00  0.00     0.246 C 
ATOM     34  N   UNL d   1      27.489 -14.239  -3.012  0.00  0.00    -0.351 N 
ATOM     35  H   UNL d   1      27.967 -13.669  -2.318  0.00  0.00     0.163 HD
ATOM     36  O   UNL d   1      26.154 -16.089  -3.256  0.00  0.00    -0.271 OA
BRANCH  34  37
ATOM     37  C   UNL d   1      26.839 -13.550  -4.166  0.00  0.00     0.022 C 
ATOM     38  C   UNL d   1      27.449 -12.158  -4.463  0.00  0.00     0.037 C 
ATOM     39  C   UNL d   1      25.313 -13.308  -3.954  0.00  0.00     0.037 C 
ATOM     40  C   UNL d   1      27.034 -14.421  -5.409  0.00  0.00     0.037 C 
ENDBRANCH  34  37
ENDBRANCH   1  33
TORSDOF 11
ENDMDL
MODEL 5
REMARK VINA RESULT:    -6.679      1.653      2.869
REMARK INTER + INTRA:         -14.536
REMARK INTER:                  -9.960
REMARK INTRA:                  -4.576
REMARK CONF_INDEPENDENT:        3.281
REMARK UNBOUND:                -4.576
REMARK  11 active torsions:
REMARK  status: ('A' for Active; 'I' for Inactive)
REMARK    1  A    between atoms: C_2  and  N_5 
REMARK       I    between atoms: N_5  and  C_6 
REMARK    2  A    between atoms: C_8  and  C_6 
REMARK    3  A    between atoms: C_8  and  N_18 
REMARK    4  A    between atoms: C_8  and  C_9 
REMARK    5  A    between atoms: C_10  and  O_11 
REMARK    6  A    between atoms: C_13  and  O_14 
REMARK    7  A    between atoms: C_16  and  O_17 
REMARK    8  A    between atoms: N_18  and  C_19 
REMARK       I    between atoms: N_18  and  C_25 
REMARK    9  A    between atoms: C_19  and  C_20 
REMARK   10  A    between atoms: C_25  and  C_27 
REMARK   11  A    between atoms: C_29  and  N_30 
ROOT
ATOM      1  C   UNL d   1      27.651 -15.807  -0.777  0.00  0.00     0.218 C 
ENDROOT
BRANCH   1   2
ATOM      2  N   UNL d   1      28.041 -15.022   0.450  0.00  0.00    -0.324 N 
ATOM      3  C   UNL d   1      27.062 -14.032   0.874  0.00  0.00     0.259 C 
ATOM      4  O   UNL d   1      25.905 -14.076   0.482  0.00  0.00    -0.267 OA
BRANCH   2   5
ATOM      5  C   UNL d   1      29.423 -14.762   0.883  0.00  0.00     0.192 C 
BRANCH   5   6
ATOM      6  C   UNL d   1      30.498 -15.704   0.560  0.00  0.00     0.070 A 
ATOM      7  C   UNL d   1      31.855 -15.642   0.716  0.00  0.00     0.036 A 
ATOM      8  C   UNL d   1      32.357 -16.894   0.302  0.00  0.00     0.027 A 
ATOM      9  C   UNL d   1      31.273 -17.622  -0.133  0.00  0.00     0.142 A 
ATOM     10  O   UNL d   1      30.139 -16.890  -0.015  0.00  0.00    -0.325 OA
ENDBRANCH   5   6
ENDBRANCH   2   5
BRANCH   3  11
ATOM     11  C   UNL d   1      27.392 -12.993   1.956  0.00  0.00     0.084 C 
ATOM     12  C   UNL d   1      27.141 -11.639   1.619  0.00  0.00     0.057 C 
ATOM     13  C   UNL d   1      27.336 -10.630   2.573  0.00  0.00     0.104 C 
ATOM     14  C   UNL d   1      27.751 -10.947   3.863  0.00  0.00     0.040 C 
ATOM     15  C   UNL d   1      28.042 -12.273   4.164  0.00  0.00     0.058 C 
ATOM     16  C   UNL d   1      27.982 -13.320   3.219  0.00  0.00     0.187 C 
ATOM     17  O   UNL d   1      28.495 -14.445   3.531  0.00  0.00    -0.287 OA
BRANCH  13  18
ATOM     18  N   UNL d   1      27.090  -9.215   2.264  0.00  0.00    -0.116 N 
ATOM     19  O   UNL d   1      26.146  -8.646   2.855  0.00  0.00    -0.532 OA
ATOM     20  O   UNL d   1      27.829  -8.651   1.454  0.00  0.00    -0.532 OA
ENDBRANCH  13  18
ENDBRANCH   3  11
ENDBRANCH   1   2
BRANCH   1  21
ATOM     21  C   UNL d   1      26.382 -16.707  -0.744  0.00  0.00     0.040 C 
ATOM     22  C   UNL d   1      26.336 -17.911  -0.016  0.00  0.00     0.080 C 
ATOM     23  C   UNL d   1      25.113 -18.575   0.232  0.00  0.00     0.073 C 
ATOM     24  C   UNL d   1      23.919 -18.091  -0.307  0.00  0.00     0.071 C 
ATOM     25  C   UNL d   1      23.938 -16.990  -1.136  0.00  0.00     0.073 C 
ATOM     26  C   UNL d   1      25.140 -16.290  -1.287  0.00  0.00     0.080 C 
BRANCH  22  27
ATOM     27  O   UNL d   1      27.409 -18.411   0.677  0.00  0.00    -0.360 OA
ATOM     28  H   UNL d   1      28.220 -17.898   0.498  0.00  0.00     0.217 HD
ENDBRANCH  22  27
BRANCH  24  29
ATOM     29  O   UNL d   1      22.687 -18.446   0.186  0.00  0.00    -0.361 OA
ATOM     30  H   UNL d   1      22.761 -19.334   0.579  0.00  0.00     0.217 HD
ENDBRANCH  24  29
BRANCH  26  31
ATOM     31  O   UNL d   1      24.979 -14.984  -1.679  0.00  0.00    -0.360 OA
ATOM     32  H   UNL d   1      25.281 -14.386  -0.978  0.00  0.00     0.217 HD
ENDBRANCH  26  31
ENDBRANCH   1  21
BRANCH   1  33
ATOM     33  C   UNL d   1      27.691 -15.029  -2.149  0.00  0.00     0.246 C 
ATOM     34  N   UNL d   1      26.993 -13.823  -2.324  0.00  0.00    -0.351 N 
ATOM     35  H   UNL d   1      26.526 -13.460  -1.496  0.00  0.00     0.163 HD
ATOM     36  O   UNL d   1      28.147 -15.635  -3.129  0.00  0.00    -0.271 OA
BRANCH  34  37
ATOM     37  C   UNL d   1      26.378 -13.554  -3.658  0.00  0.00     0.022 C 
ATOM     38  C   UNL d   1      25.181 -12.574  -3.587  0.00  0.00     0.037 C 
ATOM     39  C   UNL d   1      25.833 -14.840  -4.352  0.00  0.00     0.037 C 
ATOM     40  C   UNL d   1      27.446 -12.923  -4.553  0.00  0.00     0.037 C 
ENDBRANCH  34  37
ENDBRANCH   1  33
TORSDOF 11
ENDMDL
MODEL 6
REMARK VINA RESULT:    -6.389      2.952      5.226
REMARK INTER + INTRA:         -14.459
REMARK INTER:                  -9.671
REMARK INTRA:                  -4.788
REMARK CONF_INDEPENDENT:        3.281
REMARK UNBOUND:                -4.788
REMARK  11 active torsions:
REMARK  status: ('A' for Active; 'I' for Inactive)
REMARK    1  A    between atoms: C_2  and  N_5 
REMARK       I    between atoms: N_5  and  C_6 
REMARK    2  A    between atoms: C_8  and  C_6 
REMARK    3  A    between atoms: C_8  and  N_18 
REMARK    4  A    between atoms: C_8  and  C_9 
REMARK    5  A    between atoms: C_10  and  O_11 
REMARK    6  A    between atoms: C_13  and  O_14 
REMARK    7  A    between atoms: C_16  and  O_17 
REMARK    8  A    between atoms: N_18  and  C_19 
REMARK       I    between atoms: N_18  and  C_25 
REMARK    9  A    between atoms: C_19  and  C_20 
REMARK   10  A    between atoms: C_25  and  C_27 
REMARK   11  A    between atoms: C_29  and  N_30 
ROOT
ATOM      1  C   UNL d   1      25.929 -12.615  -3.700  0.00  0.00     0.218 C 
ENDROOT
BRANCH   1   2
ATOM      2  N   UNL d   1      26.505 -11.746  -2.610  0.00  0.00    -0.324 N 
ATOM      3  C   UNL d   1      26.190 -10.330  -2.732  0.00  0.00     0.259 C 
ATOM      4  O   UNL d   1      25.274  -9.943  -3.444  0.00  0.00    -0.267 OA
BRANCH   2   5
ATOM      5  C   UNL d   1      27.718 -12.054  -1.836  0.00  0.00     0.192 C 
BRANCH   5   6
ATOM      6  C   UNL d   1      27.638 -12.339  -0.402  0.00  0.00     0.070 A 
ATOM      7  C   UNL d   1      27.615 -11.528   0.699  0.00  0.00     0.036 A 
ATOM      8  C   UNL d   1      27.436 -12.377   1.811  0.00  0.00     0.027 A 
ATOM      9  C   UNL d   1      27.415 -13.662   1.319  0.00  0.00     0.142 A 
ATOM     10  O   UNL d   1      27.575 -13.652  -0.027  0.00  0.00    -0.325 OA
ENDBRANCH   5   6
ENDBRANCH   2   5
BRANCH   3  11
ATOM     11  C   UNL d   1      26.878  -9.279  -1.848  0.00  0.00     0.084 C 
ATOM     12  C   UNL d   1      26.139  -8.825  -0.727  0.00  0.00     0.057 C 
ATOM     13  C   UNL d   1      26.719  -7.926   0.180  0.00  0.00     0.104 C 
ATOM     14  C   UNL d   1      28.030  -7.492   0.003  0.00  0.00     0.040 C 
ATOM     15  C   UNL d   1      28.724  -7.905  -1.128  0.00  0.00     0.058 C 
ATOM     16  C   UNL d   1      28.160  -8.712  -2.139  0.00  0.00     0.187 C 
ATOM     17  O   UNL d   1      28.794  -8.834  -3.239  0.00  0.00    -0.287 OA
BRANCH  13  18
ATOM     18  N   UNL d   1      25.988  -7.430   1.352  0.00  0.00    -0.116 N 
ATOM     19  O   UNL d   1      25.078  -6.594   1.161  0.00  0.00    -0.532 OA
ATOM     20  O   UNL d   1      26.288  -7.870   2.464  0.00  0.00    -0.532 OA
ENDBRANCH  13  18
ENDBRANCH   3  11
ENDBRANCH   1   2
BRANCH   1  21
ATOM     21  C   UNL d   1      26.688 -12.758  -5.051  0.00  0.00     0.040 C 
ATOM     22  C   UNL d   1      26.613 -11.781  -6.060  0.00  0.00     0.080 C 
ATOM     23  C   UNL d   1      27.507 -11.783  -7.155  0.00  0.00     0.073 C 
ATOM     24  C   UNL d   1      28.446 -12.806  -7.304  0.00  0.00     0.071 C 
ATOM     25  C   UNL d   1      28.465 -13.855  -6.411  0.00  0.00     0.073 C 
ATOM     26  C   UNL d   1      27.642 -13.783  -5.281  0.00  0.00     0.080 C 
BRANCH  22  27
ATOM     27  O   UNL d   1      25.836 -10.656  -5.960  0.00  0.00    -0.360 OA
ATOM     28  H   UNL d   1      25.051 -10.813  -5.401  0.00  0.00     0.217 HD
ENDBRANCH  22  27
BRANCH  24  29
ATOM     29  O   UNL d   1      29.560 -12.678  -8.098  0.00  0.00    -0.361 OA
ATOM     30  H   UNL d   1      29.485 -13.316  -8.831  0.00  0.00     0.217 HD
ENDBRANCH  24  29
BRANCH  26  31
ATOM     31  O   UNL d   1      28.068 -14.558  -4.231  0.00  0.00    -0.360 OA
ATOM     32  H   UNL d   1      27.305 -14.924  -3.757  0.00  0.00     0.217 HD
ENDBRANCH  26  31
ENDBRANCH   1  21
BRANCH   1  33
ATOM     33  C   UNL d   1      25.396 -14.032  -3.258  0.00  0.00     0.246 C 
ATOM     34  N   UNL d   1      25.449 -14.446  -1.917  0.00  0.00    -0.351 N 
ATOM     35  H   UNL d   1      25.784 -13.750  -1.255  0.00  0.00     0.163 HD
ATOM     36  O   UNL d   1      25.165 -14.854  -4.157  0.00  0.00    -0.271 OA
BRANCH  34  37
ATOM     37  C   UNL d   1      25.731 -15.885  -1.636  0.00  0.00     0.022 C 
ATOM     38  C   UNL d   1      27.174 -16.304  -2.010  0.00  0.00     0.037 C 
ATOM     39  C   UNL d   1      24.792 -16.857  -2.414  0.00  0.00     0.037 C 
ATOM     40  C   UNL d   1      25.552 -16.118  -0.134  0.00  0.00     0.037 C 
ENDBRANCH  34  37
ENDBRANCH   1  33
TORSDOF 11
ENDMDL
MODEL 7
REMARK VINA RESULT:    -6.380      2.086      3.697
REMARK INTER + INTRA:         -14.663
REMARK INTER:                  -9.661
REMARK INTRA:                  -5.002
REMARK CONF_INDEPENDENT:        3.281
REMARK UNBOUND:                -5.002
REMARK  11 active torsions:
REMARK  status: ('A' for Active; 'I' for Inactive)
REMARK    1  A    between atoms: C_2  and  N_5 
REMARK       I    between atoms: N_5  and  C_6 
REMARK    2  A    between atoms: C_8  and  C_6 
REMARK    3  A    between atoms: C_8  and  N_18 
REMARK    4  A    between atoms: C_8  and  C_9 
REMARK    5  A    between atoms: C_10  and  O_11 
REMARK    6  A    between atoms: C_13  and  O_14 
REMARK    7  A    between atoms: C_16  and  O_17 
REMARK    8  A    between atoms: N_18  and  C_19 
REMARK       I    between atoms: N_18  and  C_25 
REMARK    9  A    between atoms: C_19  and  C_20 
REMARK   10  A    between atoms: C_25  and  C_27 
REMARK   11  A    between atoms: C_29  and  N_30 
ROOT
ATOM      1  C   UNL d   1      27.459 -14.248   0.350  0.00  0.00     0.218 C 
ENDROOT
BRANCH   1   2
ATOM      2  N   UNL d   1      27.242 -13.145   1.356  0.00  0.00    -0.324 N 
ATOM      3  C   UNL d   1      28.118 -11.994   1.195  0.00  0.00     0.259 C 
ATOM      4  O   UNL d   1      28.722 -11.799   0.150  0.00  0.00    -0.267 OA
BRANCH   2   5
ATOM      5  C   UNL d   1      26.695 -13.332   2.709  0.00  0.00     0.192 C 
BRANCH   5   6
ATOM      6  C   UNL d   1      27.528 -13.877   3.784  0.00  0.00     0.070 A 
ATOM      7  C   UNL d   1      27.297 -14.079   5.117  0.00  0.00     0.036 A 
ATOM      8  C   UNL d   1      28.446 -14.722   5.623  0.00  0.00     0.027 A 
ATOM      9  C   UNL d   1      29.330 -14.823   4.572  0.00  0.00     0.142 A 
ATOM     10  O   UNL d   1      28.793 -14.275   3.454  0.00  0.00    -0.325 OA
ENDBRANCH   5   6
ENDBRANCH   2   5
BRANCH   3  11
ATOM     11  C   UNL d   1      28.192 -10.889   2.260  0.00  0.00     0.084 C 
ATOM     12  C   UNL d   1      27.345  -9.771   2.059  0.00  0.00     0.057 C 
ATOM     13  C   UNL d   1      27.288  -8.752   3.021  0.00  0.00     0.104 C 
ATOM     14  C   UNL d   1      28.038  -8.841   4.190  0.00  0.00     0.040 C 
ATOM     15  C   UNL d   1      28.902  -9.918   4.349  0.00  0.00     0.058 C 
ATOM     16  C   UNL d   1      29.097 -10.914   3.369  0.00  0.00     0.187 C 
ATOM     17  O   UNL d   1      30.078 -11.716   3.509  0.00  0.00    -0.287 OA
BRANCH  13  18
ATOM     18  N   UNL d   1      26.424  -7.576   2.851  0.00  0.00    -0.116 N 
ATOM     19  O   UNL d   1      26.653  -6.577   3.569  0.00  0.00    -0.532 OA
ATOM     20  O   UNL d   1      25.531  -7.619   2.003  0.00  0.00    -0.532 OA
ENDBRANCH  13  18
ENDBRANCH   3  11
ENDBRANCH   1   2
BRANCH   1  21
ATOM     21  C   UNL d   1      26.594 -14.292  -0.942  0.00  0.00     0.040 C 
ATOM     22  C   UNL d   1      26.592 -13.242  -1.879  0.00  0.00     0.080 C 
ATOM     23  C   UNL d   1      26.025 -13.403  -3.164  0.00  0.00     0.073 C 
ATOM     24  C   UNL d   1      25.383 -14.592  -3.514  0.00  0.00     0.071 C 
ATOM     25  C   UNL d   1      25.245 -15.598  -2.581  0.00  0.00     0.073 C 
ATOM     26  C   UNL d   1      25.898 -15.459  -1.351  0.00  0.00     0.080 C 
BRANCH  22  27
ATOM     27  O   UNL d   1      27.306 -12.084  -1.711  0.00  0.00    -0.360 OA
ATOM     28  H   UNL d   1      28.260 -12.265  -1.606  0.00  0.00     0.217 HD
ENDBRANCH  22  27
BRANCH  24  29
ATOM     29  O   UNL d   1      25.155 -14.955  -4.819  0.00  0.00    -0.361 OA
ATOM     30  H   UNL d   1      24.608 -14.265  -5.236  0.00  0.00     0.217 HD
ENDBRANCH  24  29
BRANCH  26  31
ATOM     31  O   UNL d   1      26.140 -16.649  -0.711  0.00  0.00    -0.360 OA
ATOM     32  H   UNL d   1      26.540 -17.282  -1.327  0.00  0.00     0.217 HD
ENDBRANCH  26  31
ENDBRANCH   1  21
BRANCH   1  33
ATOM     33  C   UNL d   1      28.958 -14.568  -0.025  0.00  0.00     0.246 C 
ATOM     34  N   UNL d   1      29.819 -15.202   0.886  0.00  0.00    -0.351 N 
ATOM     35  H   UNL d   1      29.393 -15.496   1.762  0.00  0.00     0.163 HD
ATOM     36  O   UNL d   1      29.414 -14.024  -1.041  0.00  0.00    -0.271 OA
BRANCH  34  37
ATOM     37  C   UNL d   1      31.254 -14.790   0.900  0.00  0.00     0.022 C 
ATOM     38  C   UNL d   1      32.020 -15.306   2.143  0.00  0.00     0.037 C 
ATOM     39  C   UNL d   1      31.447 -13.243   0.895  0.00  0.00     0.037 C 
ATOM     40  C   UNL d   1      31.927 -15.378  -0.341  0.00  0.00     0.037 C 
ENDBRANCH  34  37
ENDBRANCH   1  33
TORSDOF 11
ENDMDL
MODEL 8
REMARK VINA RESULT:    -6.123      3.635      6.030
REMARK INTER + INTRA:         -14.586
REMARK INTER:                  -9.404
REMARK INTRA:                  -5.181
REMARK CONF_INDEPENDENT:        3.281
REMARK UNBOUND:                -5.181
REMARK  11 active torsions:
REMARK  status: ('A' for Active; 'I' for Inactive)
REMARK    1  A    between atoms: C_2  and  N_5 
REMARK       I    between atoms: N_5  and  C_6 
REMARK    2  A    between atoms: C_8  and  C_6 
REMARK    3  A    between atoms: C_8  and  N_18 
REMARK    4  A    between atoms: C_8  and  C_9 
REMARK    5  A    between atoms: C_10  and  O_11 
REMARK    6  A    between atoms: C_13  and  O_14 
REMARK    7  A    between atoms: C_16  and  O_17 
REMARK    8  A    between atoms: N_18  and  C_19 
REMARK       I    between atoms: N_18  and  C_25 
REMARK    9  A    between atoms: C_19  and  C_20 
REMARK   10  A    between atoms: C_25  and  C_27 
REMARK   11  A    between atoms: C_29  and  N_30 
ROOT
ATOM      1  C   UNL d   1      25.779 -11.623  -4.040  0.00  0.00     0.218 C 
ENDROOT
BRANCH   1   2
ATOM      2  N   UNL d   1      26.135 -10.628  -2.964  0.00  0.00    -0.324 N 
ATOM      3  C   UNL d   1      25.564  -9.302  -3.150  0.00  0.00     0.259 C 
ATOM      4  O   UNL d   1      24.622  -9.118  -3.907  0.00  0.00    -0.267 OA
BRANCH   2   5
ATOM      5  C   UNL d   1      27.353 -10.676  -2.138  0.00  0.00     0.192 C 
BRANCH   5   6
ATOM      6  C   UNL d   1      27.509 -11.692  -1.095  0.00  0.00     0.070 A 
ATOM      7  C   UNL d   1      27.034 -11.780   0.185  0.00  0.00     0.036 A 
ATOM      8  C   UNL d   1      27.443 -13.039   0.672  0.00  0.00     0.027 A 
ATOM      9  C   UNL d   1      28.192 -13.618  -0.328  0.00  0.00     0.142 A 
ATOM     10  O   UNL d   1      28.269 -12.787  -1.396  0.00  0.00    -0.325 OA
ENDBRANCH   5   6
ENDBRANCH   2   5
BRANCH   3  11
ATOM     11  C   UNL d   1      26.005  -8.112  -2.284  0.00  0.00     0.084 C 
ATOM     12  C   UNL d   1      25.547  -8.112  -0.943  0.00  0.00     0.057 C 
ATOM     13  C   UNL d   1      25.965  -7.108  -0.057  0.00  0.00     0.104 C 
ATOM     14  C   UNL d   1      26.852  -6.121  -0.477  0.00  0.00     0.040 C 
ATOM     15  C   UNL d   1      27.252  -6.105  -1.808  0.00  0.00     0.058 C 
ATOM     16  C   UNL d   1      26.777  -7.012  -2.778  0.00  0.00     0.187 C 
ATOM     17  O   UNL d   1      27.016  -6.765  -4.006  0.00  0.00    -0.287 OA
BRANCH  13  18
ATOM     18  N   UNL d   1      25.513  -7.071   1.339  0.00  0.00    -0.116 N 
ATOM     19  O   UNL d   1      25.530  -8.142   1.986  0.00  0.00    -0.532 OA
ATOM     20  O   UNL d   1      25.154  -5.991   1.815  0.00  0.00    -0.532 OA
ENDBRANCH  13  18
ENDBRANCH   3  11
ENDBRANCH   1   2
BRANCH   1  21
ATOM     21  C   UNL d   1      26.704 -11.778  -5.282  0.00  0.00     0.040 C 
ATOM     22  C   UNL d   1      27.809 -12.648  -5.288  0.00  0.00     0.080 C 
ATOM     23  C   UNL d   1      28.473 -12.986  -6.490  0.00  0.00     0.073 C 
ATOM     24  C   UNL d   1      28.093 -12.402  -7.700  0.00  0.00     0.071 C 
ATOM     25  C   UNL d   1      27.102 -11.444  -7.718  0.00  0.00     0.073 C 
ATOM     26  C   UNL d   1      26.392 -11.198  -6.538  0.00  0.00     0.080 C 
BRANCH  22  27
ATOM     27  O   UNL d   1      28.190 -13.389  -4.199  0.00  0.00    -0.360 OA
ATOM     28  H   UNL d   1      28.656 -12.840  -3.540  0.00  0.00     0.217 HD
ENDBRANCH  22  27
BRANCH  24  29
ATOM     29  O   UNL d   1      28.419 -12.945  -8.919  0.00  0.00    -0.361 OA
ATOM     30  H   UNL d   1      29.294 -13.365  -8.840  0.00  0.00     0.217 HD
ENDBRANCH  24  29
BRANCH  26  31
ATOM     31  O   UNL d   1      25.149 -10.649  -6.739  0.00  0.00    -0.360 OA
ATOM     32  H   UNL d   1      24.784 -10.336  -5.897  0.00  0.00     0.217 HD
ENDBRANCH  26  31
ENDBRANCH   1  21
BRANCH   1  33
ATOM     33  C   UNL d   1      25.335 -13.055  -3.549  0.00  0.00     0.246 C 
ATOM     34  N   UNL d   1      26.170 -13.840  -2.736  0.00  0.00    -0.351 N 
ATOM     35  H   UNL d   1      27.034 -13.396  -2.436  0.00  0.00     0.163 HD
ATOM     36  O   UNL d   1      24.347 -13.560  -4.102  0.00  0.00    -0.271 OA
BRANCH  34  37
ATOM     37  C   UNL d   1      26.169 -15.318  -2.947  0.00  0.00     0.022 C 
ATOM     38  C   UNL d   1      27.511 -15.987  -2.558  0.00  0.00     0.037 C 
ATOM     39  C   UNL d   1      25.906 -15.725  -4.429  0.00  0.00     0.037 C 
ATOM     40  C   UNL d   1      25.073 -15.921  -2.066  0.00  0.00     0.037 C 
ENDBRANCH  34  37
ENDBRANCH   1  33
TORSDOF 11
ENDMDL
MODEL 9
REMARK VINA RESULT:    -5.743      1.941      3.443
REMARK INTER + INTRA:         -14.434
REMARK INTER:                  -9.024
REMARK INTRA:                  -5.410
REMARK CONF_INDEPENDENT:        3.281
REMARK UNBOUND:                -5.410
REMARK  11 active torsions:
REMARK  status: ('A' for Active; 'I' for Inactive)
REMARK    1  A    between atoms: C_2  and  N_5 
REMARK       I    between atoms: N_5  and  C_6 
REMARK    2  A    between atoms: C_8  and  C_6 
REMARK    3  A    between atoms: C_8  and  N_18 
REMARK    4  A    between atoms: C_8  and  C_9 
REMARK    5  A    between atoms: C_10  and  O_11 
REMARK    6  A    between atoms: C_13  and  O_14 
REMARK    7  A    between atoms: C_16  and  O_17 
REMARK    8  A    between atoms: N_18  and  C_19 
REMARK       I    between atoms: N_18  and  C_25 
REMARK    9  A    between atoms: C_19  and  C_20 
REMARK   10  A    between atoms: C_25  and  C_27 
REMARK   11  A    between atoms: C_29  and  N_30 
ROOT
ATOM      1  C   UNL d   1      27.788 -15.091   0.022  0.00  0.00     0.218 C 
ENDROOT
BRANCH   1   2
ATOM      2  N   UNL d   1      28.106 -14.119   1.130  0.00  0.00    -0.324 N 
ATOM      3  C   UNL d   1      26.971 -13.335   1.595  0.00  0.00     0.259 C 
ATOM      4  O   UNL d   1      25.823 -13.677   1.352  0.00  0.00    -0.267 OA
BRANCH   2   5
ATOM      5  C   UNL d   1      29.426 -13.514   1.371  0.00  0.00     0.192 C 
BRANCH   5   6
ATOM      6  C   UNL d   1      29.810 -12.268   0.704  0.00  0.00     0.070 A 
ATOM      7  C   UNL d   1      29.965 -10.988   1.161  0.00  0.00     0.036 A 
ATOM      8  C   UNL d   1      30.440 -10.233   0.067  0.00  0.00     0.027 A 
ATOM      9  C   UNL d   1      30.492 -11.095  -1.005  0.00  0.00     0.142 A 
ATOM     10  O   UNL d   1      30.074 -12.330  -0.635  0.00  0.00    -0.325 OA
ENDBRANCH   5   6
ENDBRANCH   2   5
BRANCH   3  11
ATOM     11  C   UNL d   1      27.157 -12.145   2.549  0.00  0.00     0.084 C 
ATOM     12  C   UNL d   1      26.634 -10.904   2.107  0.00  0.00     0.057 C 
ATOM     13  C   UNL d   1      26.687  -9.781   2.945  0.00  0.00     0.104 C 
ATOM     14  C   UNL d   1      27.226  -9.879   4.225  0.00  0.00     0.040 C 
ATOM     15  C   UNL d   1      27.780 -11.089   4.625  0.00  0.00     0.058 C 
ATOM     16  C   UNL d   1      27.868 -12.223   3.789  0.00  0.00     0.187 C 
ATOM     17  O   UNL d   1      28.603 -13.195   4.164  0.00  0.00    -0.287 OA
BRANCH  13  18
ATOM     18  N   UNL d   1      26.158  -8.477   2.525  0.00  0.00    -0.116 N 
ATOM     19  O   UNL d   1      26.632  -7.454   3.067  0.00  0.00    -0.532 OA
ATOM     20  O   UNL d   1      25.289  -8.447   1.650  0.00  0.00    -0.532 OA
ENDBRANCH  13  18
ENDBRANCH   3  11
ENDBRANCH   1   2
BRANCH   1  21
ATOM     21  C   UNL d   1      26.712 -14.722  -1.040  0.00  0.00     0.040 C 
ATOM     22  C   UNL d   1      26.842 -13.600  -1.879  0.00  0.00     0.080 C 
ATOM     23  C   UNL d   1      26.012 -13.426  -3.010  0.00  0.00     0.073 C 
ATOM     24  C   UNL d   1      24.984 -14.332  -3.283  0.00  0.00     0.071 C 
ATOM     25  C   UNL d   1      24.737 -15.371  -2.412  0.00  0.00     0.073 C 
ATOM     26  C   UNL d   1      25.631 -15.583  -1.356  0.00  0.00     0.080 C 
BRANCH  22  27
ATOM     27  O   UNL d   1      27.891 -12.720  -1.800  0.00  0.00    -0.360 OA
ATOM     28  H   UNL d   1      27.936 -12.296  -0.922  0.00  0.00     0.217 HD
ENDBRANCH  22  27
BRANCH  24  29
ATOM     29  O   UNL d   1      24.405 -14.442  -4.524  0.00  0.00    -0.361 OA
ATOM     30  H   UNL d   1      23.791 -13.696  -4.640  0.00  0.00     0.217 HD
ENDBRANCH  24  29
BRANCH  26  31
ATOM     31  O   UNL d   1      25.624 -16.867  -0.869  0.00  0.00    -0.360 OA
ATOM     32  H   UNL d   1      26.532 -17.199  -0.795  0.00  0.00     0.217 HD
ENDBRANCH  26  31
ENDBRANCH   1  21
BRANCH   1  33
ATOM     33  C   UNL d   1      29.022 -15.751  -0.706  0.00  0.00     0.246 C 
ATOM     34  N   UNL d   1      29.858 -15.001  -1.550  0.00  0.00    -0.351 N 
ATOM     35  H   UNL d   1      29.654 -14.006  -1.600  0.00  0.00     0.163 HD
ATOM     36  O   UNL d   1      29.080 -16.989  -0.707  0.00  0.00    -0.271 OA
BRANCH  34  37
ATOM     37  C   UNL d   1      30.417 -15.671  -2.761  0.00  0.00     0.022 C 
ATOM     38  C   UNL d   1      29.328 -16.320  -3.652  0.00  0.00     0.037 C 
ATOM     39  C   UNL d   1      31.422 -16.814  -2.421  0.00  0.00     0.037 C 
ATOM     40  C   UNL d   1      31.136 -14.612  -3.599  0.00  0.00     0.037 C 
ENDBRANCH  34  37
ENDBRANCH   1  33
TORSDOF 11
ENDMDL
