MODEL 1
REMARK VINA RESULT:    -8.688      0.000      0.000
REMARK INTER + INTRA:         -12.545
REMARK INTER:                 -10.477
REMARK INTRA:                  -2.068
REMARK CONF_INDEPENDENT:        1.790
REMARK UNBOUND:                -2.068
REMARK  6 active torsions:
REMARK  status: ('A' for Active; 'I' for Inactive)
REMARK       I    between atoms: C_2  and  N_4 
REMARK    1  A    between atoms: N_4  and  C_5 
REMARK    2  A    between atoms: C_8  and  C_9 
REMARK       I    between atoms: C_9  and  N_11 
REMARK    3  A    between atoms: N_11  and  N_12 
REMARK       I    between atoms: N_12  and  C_13 
REMARK    4  A    between atoms: C_13  and  C_15 
REMARK    5  A    between atoms: C_15  and  O_16 
REMARK    6  A    between atoms: O_16  and  C_17 
ROOT
ATOM      1  C   UNL d   1      25.699 -16.091  -1.697  0.00  0.00     0.270 C 
ATOM      2  O   UNL d   1      26.580 -15.616  -0.969  0.00  0.00    -0.266 OA
ATOM      3  N   UNL d   1      25.747 -15.952  -3.082  0.00  0.00    -0.263 N 
ATOM      4  H   UNL d   1      25.066 -16.347  -3.727  0.00  0.00     0.190 HD
ENDROOT
BRANCH   3   5
ATOM      5  N   UNL d   1      26.829 -15.263  -3.715  0.00  0.00    -0.265 N 
ATOM      6  C   UNL d   1      26.832 -15.180  -5.107  0.00  0.00     0.260 C 
ATOM      7  O   UNL d   1      25.934 -15.710  -5.768  0.00  0.00    -0.269 OA
ATOM      8  H   UNL d   1      27.535 -14.865  -3.099  0.00  0.00     0.190 HD
BRANCH   6   9
ATOM      9  C   UNL d   1      28.014 -14.403  -5.747  0.00  0.00     0.280 C 
BRANCH   9  10
ATOM     10  O   UNL d   1      29.243 -14.694  -5.068  0.00  0.00    -0.342 OA
BRANCH  10  11
ATOM     11  C   UNL d   1      29.824 -15.920  -5.261  0.00  0.00     0.069 A 
ATOM     12  C   UNL d   1      30.280 -16.186  -6.559  0.00  0.00     0.037 A 
ATOM     13  C   UNL d   1      30.771 -17.452  -6.904  0.00  0.00     0.003 A 
ATOM     14  C   UNL d   1      30.859 -18.449  -5.937  0.00  0.00     0.000 A 
ATOM     15  C   UNL d   1      30.410 -18.193  -4.643  0.00  0.00     0.003 A 
ATOM     16  C   UNL d   1      29.881 -16.936  -4.309  0.00  0.00     0.037 A 
ENDBRANCH  10  11
ENDBRANCH   9  10
ENDBRANCH   6   9
ENDBRANCH   3   5
BRANCH   1  17
ATOM     17  C   UNL d   1      24.550 -16.871  -1.086  0.00  0.00     0.033 A 
ATOM     18  C   UNL d   1      24.749 -18.190  -0.625  0.00  0.00     0.019 A 
ATOM     19  C   UNL d   1      23.672 -18.982  -0.151  0.00  0.00     0.030 A 
ATOM     20  C   UNL d   1      22.379 -18.455  -0.106  0.00  0.00     0.034 A 
ATOM     21  C   UNL d   1      22.192 -17.135  -0.522  0.00  0.00     0.030 A 
ATOM     22  C   UNL d   1      23.257 -16.349  -0.994  0.00  0.00     0.019 A 
BRANCH  20  23
ATOM     23  N   UNL d   1      21.287 -19.211   0.396  0.00  0.00    -0.328 N 
ATOM     24  C   UNL d   1      20.303 -19.743  -0.429  0.00  0.00     0.218 C 
ATOM     25  C   UNL d   1      19.172 -20.450   0.276  0.00  0.00     0.117 C 
ATOM     26  O   UNL d   1      20.321 -19.697  -1.659  0.00  0.00    -0.274 OA
ATOM     27  H   UNL d   1      21.301 -19.476   1.374  0.00  0.00     0.169 HD
ENDBRANCH  20  23
ENDBRANCH   1  17
TORSDOF 6
ENDMDL
MODEL 2
REMARK VINA RESULT:    -8.676      0.270      1.013
REMARK INTER + INTRA:         -12.412
REMARK INTER:                 -10.466
REMARK INTRA:                  -1.946
REMARK CONF_INDEPENDENT:        1.790
REMARK UNBOUND:                -1.946
REMARK  6 active torsions:
REMARK  status: ('A' for Active; 'I' for Inactive)
REMARK       I    between atoms: C_2  and  N_4 
REMARK    1  A    between atoms: N_4  and  C_5 
REMARK    2  A    between atoms: C_8  and  C_9 
REMARK       I    between atoms: C_9  and  N_11 
REMARK    3  A    between atoms: N_11  and  N_12 
REMARK       I    between atoms: N_12  and  C_13 
REMARK    4  A    between atoms: C_13  and  C_15 
REMARK    5  A    between atoms: C_15  and  O_16 
REMARK    6  A    between atoms: O_16  and  C_17 
ROOT
ATOM      1  C   UNL d   1      25.639 -15.980  -1.739  0.00  0.00     0.270 C 
ATOM      2  O   UNL d   1      26.332 -15.354  -0.928  0.00  0.00    -0.266 OA
ATOM      3  N   UNL d   1      25.892 -15.924  -3.107  0.00  0.00    -0.263 N 
ATOM      4  H   UNL d   1      25.372 -16.441  -3.814  0.00  0.00     0.190 HD
ENDROOT
BRANCH   3   5
ATOM      5  N   UNL d   1      26.974 -15.145  -3.623  0.00  0.00    -0.265 N 
ATOM      6  C   UNL d   1      27.089 -15.013  -5.007  0.00  0.00     0.260 C 
ATOM      7  O   UNL d   1      26.287 -15.576  -5.759  0.00  0.00    -0.269 OA
ATOM      8  H   UNL d   1      27.598 -14.724  -2.938  0.00  0.00     0.190 HD
BRANCH   6   9
ATOM      9  C   UNL d   1      28.266 -14.139  -5.520  0.00  0.00     0.280 C 
BRANCH   9  10
ATOM     10  O   UNL d   1      29.512 -14.590  -4.971  0.00  0.00    -0.342 OA
BRANCH  10  11
ATOM     11  C   UNL d   1      29.990 -15.817  -5.351  0.00  0.00     0.069 A 
ATOM     12  C   UNL d   1      30.397 -15.930  -6.687  0.00  0.00     0.037 A 
ATOM     13  C   UNL d   1      30.780 -17.167  -7.221  0.00  0.00     0.003 A 
ATOM     14  C   UNL d   1      30.808 -18.295  -6.406  0.00  0.00     0.000 A 
ATOM     15  C   UNL d   1      30.407 -18.191  -5.075  0.00  0.00     0.003 A 
ATOM     16  C   UNL d   1      29.986 -16.959  -4.552  0.00  0.00     0.037 A 
ENDBRANCH  10  11
ENDBRANCH   9  10
ENDBRANCH   6   9
ENDBRANCH   3   5
BRANCH   1  17
ATOM     17  C   UNL d   1      24.505 -16.859  -1.246  0.00  0.00     0.033 A 
ATOM     18  C   UNL d   1      23.208 -16.326  -1.082  0.00  0.00     0.019 A 
ATOM     19  C   UNL d   1      22.155 -17.092  -0.520  0.00  0.00     0.030 A 
ATOM     20  C   UNL d   1      22.376 -18.417  -0.137  0.00  0.00     0.034 A 
ATOM     21  C   UNL d   1      23.649 -18.955  -0.340  0.00  0.00     0.030 A 
ATOM     22  C   UNL d   1      24.695 -18.198  -0.895  0.00  0.00     0.019 A 
BRANCH  20  23
ATOM     23  N   UNL d   1      21.334 -19.219   0.397  0.00  0.00    -0.328 N 
ATOM     24  C   UNL d   1      20.325 -19.758  -0.394  0.00  0.00     0.218 C 
ATOM     25  C   UNL d   1      19.253 -20.519   0.346  0.00  0.00     0.117 C 
ATOM     26  O   UNL d   1      20.280 -19.679  -1.621  0.00  0.00    -0.274 OA
ATOM     27  H   UNL d   1      21.404 -19.509   1.365  0.00  0.00     0.169 HD
ENDBRANCH  20  23
ENDBRANCH   1  17
TORSDOF 6
ENDMDL
MODEL 3
REMARK VINA RESULT:    -8.388      1.349      2.024
REMARK INTER + INTRA:         -11.742
REMARK INTER:                 -10.178
REMARK INTRA:                  -1.564
REMARK CONF_INDEPENDENT:        1.790
REMARK UNBOUND:                -1.564
REMARK  6 active torsions:
REMARK  status: ('A' for Active; 'I' for Inactive)
REMARK       I    between atoms: C_2  and  N_4 
REMARK    1  A    between atoms: N_4  and  C_5 
REMARK    2  A    between atoms: C_8  and  C_9 
REMARK       I    between atoms: C_9  and  N_11 
REMARK    3  A    between atoms: N_11  and  N_12 
REMARK       I    between atoms: N_12  and  C_13 
REMARK    4  A    between atoms: C_13  and  C_15 
REMARK    5  A    between atoms: C_15  and  O_16 
REMARK    6  A    between atoms: O_16  and  C_17 
ROOT
ATOM      1  C   UNL d   1      25.717 -16.367  -1.661  0.00  0.00     0.270 C 
ATOM      2  O   UNL d   1      26.710 -16.129  -0.963  0.00  0.00    -0.266 OA
ATOM      3  N   UNL d   1      25.668 -16.004  -3.004  0.00  0.00    -0.263 N 
ATOM      4  H   UNL d   1      24.889 -16.200  -3.629  0.00  0.00     0.190 HD
ENDROOT
BRANCH   3   5
ATOM      5  N   UNL d   1      26.775 -15.349  -3.629  0.00  0.00    -0.265 N 
ATOM      6  C   UNL d   1      26.761 -15.214  -5.017  0.00  0.00     0.260 C 
ATOM      7  O   UNL d   1      25.826 -15.671  -5.682  0.00  0.00    -0.269 OA
ATOM      8  H   UNL d   1      27.510 -15.012  -3.012  0.00  0.00     0.190 HD
BRANCH   6   9
ATOM      9  C   UNL d   1      27.973 -14.477  -5.649  0.00  0.00     0.280 C 
BRANCH   9  10
ATOM     10  O   UNL d   1      28.941 -15.414  -6.139  0.00  0.00    -0.342 OA
BRANCH  10  11
ATOM     11  C   UNL d   1      30.037 -14.935  -6.807  0.00  0.00     0.069 A 
ATOM     12  C   UNL d   1      29.990 -13.584  -7.176  0.00  0.00     0.037 A 
ATOM     13  C   UNL d   1      30.993 -13.020  -7.974  0.00  0.00     0.003 A 
ATOM     14  C   UNL d   1      32.083 -13.792  -8.367  0.00  0.00     0.000 A 
ATOM     15  C   UNL d   1      32.139 -15.136  -8.003  0.00  0.00     0.003 A 
ATOM     16  C   UNL d   1      31.113 -15.710  -7.236  0.00  0.00     0.037 A 
ENDBRANCH  10  11
ENDBRANCH   9  10
ENDBRANCH   6   9
ENDBRANCH   3   5
BRANCH   1  17
ATOM     17  C   UNL d   1      24.530 -17.099  -1.063  0.00  0.00     0.033 A 
ATOM     18  C   UNL d   1      24.669 -18.425  -0.599  0.00  0.00     0.019 A 
ATOM     19  C   UNL d   1      23.555 -19.172  -0.138  0.00  0.00     0.030 A 
ATOM     20  C   UNL d   1      22.284 -18.593  -0.109  0.00  0.00     0.034 A 
ATOM     21  C   UNL d   1      22.156 -17.267  -0.528  0.00  0.00     0.030 A 
ATOM     22  C   UNL d   1      23.258 -16.525  -0.987  0.00  0.00     0.019 A 
BRANCH  20  23
ATOM     23  N   UNL d   1      21.156 -19.303   0.379  0.00  0.00    -0.328 N 
ATOM     24  C   UNL d   1      20.146 -19.769  -0.455  0.00  0.00     0.218 C 
ATOM     25  C   UNL d   1      18.982 -20.433   0.239  0.00  0.00     0.117 C 
ATOM     26  O   UNL d   1      20.165 -19.700  -1.683  0.00  0.00    -0.274 OA
ATOM     27  H   UNL d   1      21.157 -19.588   1.352  0.00  0.00     0.169 HD
ENDBRANCH  20  23
ENDBRANCH   1  17
TORSDOF 6
ENDMDL
MODEL 4
REMARK VINA RESULT:    -8.279      2.072      3.792
REMARK INTER + INTRA:         -12.338
REMARK INTER:                 -10.069
REMARK INTRA:                  -2.269
REMARK CONF_INDEPENDENT:        1.790
REMARK UNBOUND:                -2.269
REMARK  6 active torsions:
REMARK  status: ('A' for Active; 'I' for Inactive)
REMARK       I    between atoms: C_2  and  N_4 
REMARK    1  A    between atoms: N_4  and  C_5 
REMARK    2  A    between atoms: C_8  and  C_9 
REMARK       I    between atoms: C_9  and  N_11 
REMARK    3  A    between atoms: N_11  and  N_12 
REMARK       I    between atoms: N_12  and  C_13 
REMARK    4  A    between atoms: C_13  and  C_15 
REMARK    5  A    between atoms: C_15  and  O_16 
REMARK    6  A    between atoms: O_16  and  C_17 
ROOT
ATOM      1  C   UNL d   1      25.523 -15.889  -1.721  0.00  0.00     0.270 C 
ATOM      2  O   UNL d   1      26.298 -15.265  -0.986  0.00  0.00    -0.266 OA
ATOM      3  N   UNL d   1      25.633 -15.835  -3.108  0.00  0.00    -0.263 N 
ATOM      4  H   UNL d   1      25.040 -16.350  -3.756  0.00  0.00     0.190 HD
ENDROOT
BRANCH   3   5
ATOM      5  N   UNL d   1      26.661 -15.062  -3.734  0.00  0.00    -0.265 N 
ATOM      6  C   UNL d   1      26.814 -15.169  -5.116  0.00  0.00     0.260 C 
ATOM      7  O   UNL d   1      26.093 -15.929  -5.770  0.00  0.00    -0.269 OA
ATOM      8  H   UNL d   1      27.219 -14.470  -3.123  0.00  0.00     0.190 HD
BRANCH   6   9
ATOM      9  C   UNL d   1      27.927 -14.294  -5.754  0.00  0.00     0.280 C 
BRANCH   9  10
ATOM     10  O   UNL d   1      28.268 -13.197  -4.896  0.00  0.00    -0.342 OA
BRANCH  10  11
ATOM     11  C   UNL d   1      27.324 -12.231  -4.661  0.00  0.00     0.069 A 
ATOM     12  C   UNL d   1      26.804 -11.592  -5.795  0.00  0.00     0.037 A 
ATOM     13  C   UNL d   1      25.933 -10.503  -5.671  0.00  0.00     0.003 A 
ATOM     14  C   UNL d   1      25.531 -10.076  -4.409  0.00  0.00     0.000 A 
ATOM     15  C   UNL d   1      26.042 -10.706  -3.276  0.00  0.00     0.003 A 
ATOM     16  C   UNL d   1      26.946 -11.772  -3.401  0.00  0.00     0.037 A 
ENDBRANCH  10  11
ENDBRANCH   9  10
ENDBRANCH   6   9
ENDBRANCH   3   5
BRANCH   1  17
ATOM     17  C   UNL d   1      24.440 -16.761  -1.113  0.00  0.00     0.033 A 
ATOM     18  C   UNL d   1      24.736 -18.075  -0.690  0.00  0.00     0.019 A 
ATOM     19  C   UNL d   1      23.724 -18.950  -0.220  0.00  0.00     0.030 A 
ATOM     20  C   UNL d   1      22.399 -18.515  -0.141  0.00  0.00     0.034 A 
ATOM     21  C   UNL d   1      22.116 -17.200  -0.520  0.00  0.00     0.030 A 
ATOM     22  C   UNL d   1      23.116 -16.332  -0.988  0.00  0.00     0.019 A 
BRANCH  20  23
ATOM     23  N   UNL d   1      21.370 -19.356   0.357  0.00  0.00    -0.328 N 
ATOM     24  C   UNL d   1      20.349 -19.847  -0.449  0.00  0.00     0.218 C 
ATOM     25  C   UNL d   1      19.293 -20.661   0.259  0.00  0.00     0.117 C 
ATOM     26  O   UNL d   1      20.280 -19.687  -1.667  0.00  0.00    -0.274 OA
ATOM     27  H   UNL d   1      21.460 -19.709   1.302  0.00  0.00     0.169 HD
ENDBRANCH  20  23
ENDBRANCH   1  17
TORSDOF 6
ENDMDL
MODEL 5
REMARK VINA RESULT:    -8.165      2.050      3.532
REMARK INTER + INTRA:         -11.570
REMARK INTER:                  -9.955
REMARK INTRA:                  -1.616
REMARK CONF_INDEPENDENT:        1.790
REMARK UNBOUND:                -1.616
REMARK  6 active torsions:
REMARK  status: ('A' for Active; 'I' for Inactive)
REMARK       I    between atoms: C_2  and  N_4 
REMARK    1  A    between atoms: N_4  and  C_5 
REMARK    2  A    between atoms: C_8  and  C_9 
REMARK       I    between atoms: C_9  and  N_11 
REMARK    3  A    between atoms: N_11  and  N_12 
REMARK       I    between atoms: N_12  and  C_13 
REMARK    4  A    between atoms: C_13  and  C_15 
REMARK    5  A    between atoms: C_15  and  O_16 
REMARK    6  A    between atoms: O_16  and  C_17 
ROOT
ATOM      1  C   UNL d   1      25.640 -15.862  -1.483  0.00  0.00     0.270 C 
ATOM      2  O   UNL d   1      26.376 -15.261  -0.691  0.00  0.00    -0.266 OA
ATOM      3  N   UNL d   1      25.834 -15.783  -2.860  0.00  0.00    -0.263 N 
ATOM      4  H   UNL d   1      25.277 -16.279  -3.552  0.00  0.00     0.190 HD
ENDROOT
BRANCH   3   5
ATOM      5  N   UNL d   1      26.903 -15.007  -3.408  0.00  0.00    -0.265 N 
ATOM      6  C   UNL d   1      27.063 -14.994  -4.793  0.00  0.00     0.260 C 
ATOM      7  O   UNL d   1      26.311 -15.654  -5.518  0.00  0.00    -0.269 OA
ATOM      8  H   UNL d   1      27.484 -14.502  -2.743  0.00  0.00     0.190 HD
BRANCH   6   9
ATOM      9  C   UNL d   1      28.223 -14.120  -5.344  0.00  0.00     0.280 C 
BRANCH   9  10
ATOM     10  O   UNL d   1      28.233 -14.133  -6.778  0.00  0.00    -0.342 OA
BRANCH  10  11
ATOM     11  C   UNL d   1      28.155 -12.937  -7.444  0.00  0.00     0.069 A 
ATOM     12  C   UNL d   1      27.527 -11.890  -6.756  0.00  0.00     0.037 A 
ATOM     13  C   UNL d   1      27.273 -10.665  -7.385  0.00  0.00     0.003 A 
ATOM     14  C   UNL d   1      27.696 -10.458  -8.695  0.00  0.00     0.000 A 
ATOM     15  C   UNL d   1      28.323 -11.492  -9.387  0.00  0.00     0.003 A 
ATOM     16  C   UNL d   1      28.540 -12.733  -8.768  0.00  0.00     0.037 A 
ENDBRANCH  10  11
ENDBRANCH   9  10
ENDBRANCH   6   9
ENDBRANCH   3   5
BRANCH   1  17
ATOM     17  C   UNL d   1      24.517 -16.736  -0.958  0.00  0.00     0.033 A 
ATOM     18  C   UNL d   1      24.778 -18.058  -0.536  0.00  0.00     0.019 A 
ATOM     19  C   UNL d   1      23.733 -18.934  -0.145  0.00  0.00     0.030 A 
ATOM     20  C   UNL d   1      22.408 -18.491  -0.144  0.00  0.00     0.034 A 
ATOM     21  C   UNL d   1      22.157 -17.170  -0.520  0.00  0.00     0.030 A 
ATOM     22  C   UNL d   1      23.190 -16.301  -0.911  0.00  0.00     0.019 A 
BRANCH  20  23
ATOM     23  N   UNL d   1      21.345 -19.333   0.275  0.00  0.00    -0.328 N 
ATOM     24  C   UNL d   1      20.329 -19.739  -0.582  0.00  0.00     0.218 C 
ATOM     25  C   UNL d   1      19.236 -20.567   0.047  0.00  0.00     0.117 C 
ATOM     26  O   UNL d   1      20.293 -19.497  -1.789  0.00  0.00    -0.274 OA
ATOM     27  H   UNL d   1      21.403 -19.750   1.197  0.00  0.00     0.169 HD
ENDBRANCH  20  23
ENDBRANCH   1  17
TORSDOF 6
ENDMDL
MODEL 6
REMARK VINA RESULT:    -7.373      1.382      2.096
REMARK INTER + INTRA:         -11.136
REMARK INTER:                  -9.163
REMARK INTRA:                  -1.973
REMARK CONF_INDEPENDENT:        1.790
REMARK UNBOUND:                -1.973
REMARK  6 active torsions:
REMARK  status: ('A' for Active; 'I' for Inactive)
REMARK       I    between atoms: C_2  and  N_4 
REMARK    1  A    between atoms: N_4  and  C_5 
REMARK    2  A    between atoms: C_8  and  C_9 
REMARK       I    between atoms: C_9  and  N_11 
REMARK    3  A    between atoms: N_11  and  N_12 
REMARK       I    between atoms: N_12  and  C_13 
REMARK    4  A    between atoms: C_13  and  C_15 
REMARK    5  A    between atoms: C_15  and  O_16 
REMARK    6  A    between atoms: O_16  and  C_17 
ROOT
ATOM      1  C   UNL d   1      25.553 -16.141  -2.089  0.00  0.00     0.270 C 
ATOM      2  O   UNL d   1      25.257 -15.277  -2.923  0.00  0.00    -0.266 OA
ATOM      3  N   UNL d   1      26.880 -16.437  -1.787  0.00  0.00    -0.263 N 
ATOM      4  H   UNL d   1      27.176 -17.117  -1.090  0.00  0.00     0.190 HD
ENDROOT
BRANCH   3   5
ATOM      5  N   UNL d   1      27.952 -15.740  -2.426  0.00  0.00    -0.265 N 
ATOM      6  C   UNL d   1      29.256 -16.031  -2.026  0.00  0.00     0.260 C 
ATOM      7  O   UNL d   1      29.468 -16.851  -1.128  0.00  0.00    -0.269 OA
ATOM      8  H   UNL d   1      27.692 -15.072  -3.149  0.00  0.00     0.190 HD
BRANCH   6   9
ATOM      9  C   UNL d   1      30.388 -15.266  -2.765  0.00  0.00     0.280 C 
BRANCH   9  10
ATOM     10  O   UNL d   1      30.040 -15.042  -4.138  0.00  0.00    -0.342 OA
BRANCH  10  11
ATOM     11  C   UNL d   1      30.310 -16.027  -5.052  0.00  0.00     0.069 A 
ATOM     12  C   UNL d   1      30.656 -17.277  -4.523  0.00  0.00     0.037 A 
ATOM     13  C   UNL d   1      31.079 -18.320  -5.357  0.00  0.00     0.003 A 
ATOM     14  C   UNL d   1      31.108 -18.136  -6.736  0.00  0.00     0.000 A 
ATOM     15  C   UNL d   1      30.763 -16.896  -7.271  0.00  0.00     0.003 A 
ATOM     16  C   UNL d   1      30.378 -15.840  -6.431  0.00  0.00     0.037 A 
ENDBRANCH  10  11
ENDBRANCH   9  10
ENDBRANCH   6   9
ENDBRANCH   3   5
BRANCH   1  17
ATOM     17  C   UNL d   1      24.457 -16.881  -1.345  0.00  0.00     0.033 A 
ATOM     18  C   UNL d   1      24.670 -18.200  -0.887  0.00  0.00     0.019 A 
ATOM     19  C   UNL d   1      23.630 -18.956  -0.288  0.00  0.00     0.030 A 
ATOM     20  C   UNL d   1      22.363 -18.394  -0.113  0.00  0.00     0.034 A 
ATOM     21  C   UNL d   1      22.167 -17.075  -0.528  0.00  0.00     0.030 A 
ATOM     22  C   UNL d   1      23.195 -16.324  -1.124  0.00  0.00     0.019 A 
BRANCH  20  23
ATOM     23  N   UNL d   1      21.313 -19.114   0.514  0.00  0.00    -0.328 N 
ATOM     24  C   UNL d   1      20.263 -19.680  -0.200  0.00  0.00     0.218 C 
ATOM     25  C   UNL d   1      19.191 -20.341   0.631  0.00  0.00     0.117 C 
ATOM     26  O   UNL d   1      20.182 -19.700  -1.428  0.00  0.00    -0.274 OA
ATOM     27  H   UNL d   1      21.404 -19.326   1.501  0.00  0.00     0.169 HD
ENDBRANCH  20  23
ENDBRANCH   1  17
TORSDOF 6
ENDMDL
MODEL 7
REMARK VINA RESULT:    -7.143      1.681      2.609
REMARK INTER + INTRA:         -11.245
REMARK INTER:                  -8.933
REMARK INTRA:                  -2.313
REMARK CONF_INDEPENDENT:        1.790
REMARK UNBOUND:                -2.313
REMARK  6 active torsions:
REMARK  status: ('A' for Active; 'I' for Inactive)
REMARK       I    between atoms: C_2  and  N_4 
REMARK    1  A    between atoms: N_4  and  C_5 
REMARK    2  A    between atoms: C_8  and  C_9 
REMARK       I    between atoms: C_9  and  N_11 
REMARK    3  A    between atoms: N_11  and  N_12 
REMARK       I    between atoms: N_12  and  C_13 
REMARK    4  A    between atoms: C_13  and  C_15 
REMARK    5  A    between atoms: C_15  and  O_16 
REMARK    6  A    between atoms: O_16  and  C_17 
ROOT
ATOM      1  C   UNL d   1      25.661 -16.101  -1.770  0.00  0.00     0.270 C 
ATOM      2  O   UNL d   1      25.417 -15.208  -2.592  0.00  0.00    -0.266 OA
ATOM      3  N   UNL d   1      26.965 -16.396  -1.382  0.00  0.00    -0.263 N 
ATOM      4  H   UNL d   1      27.218 -17.099  -0.691  0.00  0.00     0.190 HD
ENDROOT
BRANCH   3   5
ATOM      5  N   UNL d   1      28.073 -15.666  -1.915  0.00  0.00    -0.265 N 
ATOM      6  C   UNL d   1      29.360 -16.109  -1.610  0.00  0.00     0.260 C 
ATOM      7  O   UNL d   1      29.529 -17.091  -0.880  0.00  0.00    -0.269 OA
ATOM      8  H   UNL d   1      27.849 -14.862  -2.497  0.00  0.00     0.190 HD
BRANCH   6   9
ATOM      9  C   UNL d   1      30.531 -15.299  -2.229  0.00  0.00     0.280 C 
BRANCH   9  10
ATOM     10  O   UNL d   1      30.036 -14.190  -2.992  0.00  0.00    -0.342 OA
BRANCH  10  11
ATOM     11  C   UNL d   1      29.493 -14.435  -4.227  0.00  0.00     0.069 A 
ATOM     12  C   UNL d   1      30.359 -14.987  -5.180  0.00  0.00     0.037 A 
ATOM     13  C   UNL d   1      29.951 -15.158  -6.509  0.00  0.00     0.003 A 
ATOM     14  C   UNL d   1      28.652 -14.827  -6.884  0.00  0.00     0.000 A 
ATOM     15  C   UNL d   1      27.784 -14.280  -5.942  0.00  0.00     0.003 A 
ATOM     16  C   UNL d   1      28.206 -14.072  -4.620  0.00  0.00     0.037 A 
ENDBRANCH  10  11
ENDBRANCH   9  10
ENDBRANCH   6   9
ENDBRANCH   3   5
BRANCH   1  17
ATOM     17  C   UNL d   1      24.522 -16.879  -1.138  0.00  0.00     0.033 A 
ATOM     18  C   UNL d   1      24.725 -18.201  -0.687  0.00  0.00     0.019 A 
ATOM     19  C   UNL d   1      23.655 -18.991  -0.194  0.00  0.00     0.030 A 
ATOM     20  C   UNL d   1      22.365 -18.459  -0.118  0.00  0.00     0.034 A 
ATOM     21  C   UNL d   1      22.176 -17.136  -0.524  0.00  0.00     0.030 A 
ATOM     22  C   UNL d   1      23.234 -16.352  -1.015  0.00  0.00     0.019 A 
BRANCH  20  23
ATOM     23  N   UNL d   1      21.281 -19.212   0.404  0.00  0.00    -0.328 N 
ATOM     24  C   UNL d   1      20.282 -19.744  -0.404  0.00  0.00     0.218 C 
ATOM     25  C   UNL d   1      19.163 -20.449   0.322  0.00  0.00     0.117 C 
ATOM     26  O   UNL d   1      20.279 -19.700  -1.634  0.00  0.00    -0.274 OA
ATOM     27  H   UNL d   1      21.311 -19.475   1.382  0.00  0.00     0.169 HD
ENDBRANCH  20  23
ENDBRANCH   1  17
TORSDOF 6
ENDMDL
MODEL 8
REMARK VINA RESULT:    -7.032      2.858      4.000
REMARK INTER + INTRA:         -11.066
REMARK INTER:                  -8.822
REMARK INTRA:                  -2.244
REMARK CONF_INDEPENDENT:        1.790
REMARK UNBOUND:                -2.244
REMARK  6 active torsions:
REMARK  status: ('A' for Active; 'I' for Inactive)
REMARK       I    between atoms: C_2  and  N_4 
REMARK    1  A    between atoms: N_4  and  C_5 
REMARK    2  A    between atoms: C_8  and  C_9 
REMARK       I    between atoms: C_9  and  N_11 
REMARK    3  A    between atoms: N_11  and  N_12 
REMARK       I    between atoms: N_12  and  C_13 
REMARK    4  A    between atoms: C_13  and  C_15 
REMARK    5  A    between atoms: C_15  and  O_16 
REMARK    6  A    between atoms: O_16  and  C_17 
ROOT
ATOM      1  C   UNL d   1      25.627 -16.032  -1.584  0.00  0.00     0.270 C 
ATOM      2  O   UNL d   1      25.888 -16.093  -2.791  0.00  0.00    -0.266 OA
ATOM      3  N   UNL d   1      26.325 -15.180  -0.731  0.00  0.00    -0.263 N 
ATOM      4  H   UNL d   1      26.132 -15.070   0.262  0.00  0.00     0.190 HD
ENDROOT
BRANCH   3   5
ATOM      5  N   UNL d   1      27.364 -14.332  -1.228  0.00  0.00    -0.265 N 
ATOM      6  C   UNL d   1      27.768 -13.255  -0.440  0.00  0.00     0.260 C 
ATOM      7  O   UNL d   1      27.222 -13.033   0.645  0.00  0.00    -0.269 OA
ATOM      8  H   UNL d   1      27.754 -14.577  -2.136  0.00  0.00     0.190 HD
BRANCH   6   9
ATOM      9  C   UNL d   1      28.915 -12.377  -1.010  0.00  0.00     0.280 C 
BRANCH   9  10
ATOM     10  O   UNL d   1      29.027 -12.545  -2.430  0.00  0.00    -0.342 OA
BRANCH  10  11
ATOM     11  C   UNL d   1      27.894 -12.433  -3.194  0.00  0.00     0.069 A 
ATOM     12  C   UNL d   1      27.742 -13.387  -4.209  0.00  0.00     0.037 A 
ATOM     13  C   UNL d   1      26.693 -13.295  -5.132  0.00  0.00     0.003 A 
ATOM     14  C   UNL d   1      25.754 -12.274  -5.015  0.00  0.00     0.000 A 
ATOM     15  C   UNL d   1      25.897 -11.322  -4.008  0.00  0.00     0.003 A 
ATOM     16  C   UNL d   1      26.971 -11.394  -3.107  0.00  0.00     0.037 A 
ENDBRANCH  10  11
ENDBRANCH   9  10
ENDBRANCH   6   9
ENDBRANCH   3   5
BRANCH   1  17
ATOM     17  C   UNL d   1      24.505 -16.874  -1.008  0.00  0.00     0.033 A 
ATOM     18  C   UNL d   1      24.751 -18.198  -0.584  0.00  0.00     0.019 A 
ATOM     19  C   UNL d   1      23.702 -19.046  -0.145  0.00  0.00     0.030 A 
ATOM     20  C   UNL d   1      22.389 -18.572  -0.097  0.00  0.00     0.034 A 
ATOM     21  C   UNL d   1      22.154 -17.248  -0.476  0.00  0.00     0.030 A 
ATOM     22  C   UNL d   1      23.191 -16.407  -0.913  0.00  0.00     0.019 A 
BRANCH  20  23
ATOM     23  N   UNL d   1      21.323 -19.385   0.370  0.00  0.00    -0.328 N 
ATOM     24  C   UNL d   1      20.311 -19.845  -0.464  0.00  0.00     0.218 C 
ATOM     25  C   UNL d   1      19.214 -20.630   0.212  0.00  0.00     0.117 C 
ATOM     26  O   UNL d   1      20.281 -19.681  -1.684  0.00  0.00    -0.274 OA
ATOM     27  H   UNL d   1      21.377 -19.742   1.317  0.00  0.00     0.169 HD
ENDBRANCH  20  23
ENDBRANCH   1  17
TORSDOF 6
ENDMDL
MODEL 9
REMARK VINA RESULT:    -6.642      3.056      3.796
REMARK INTER + INTRA:         -10.504
REMARK INTER:                  -8.432
REMARK INTRA:                  -2.072
REMARK CONF_INDEPENDENT:        1.790
REMARK UNBOUND:                -2.072
REMARK  6 active torsions:
REMARK  status: ('A' for Active; 'I' for Inactive)
REMARK       I    between atoms: C_2  and  N_4 
REMARK    1  A    between atoms: N_4  and  C_5 
REMARK    2  A    between atoms: C_8  and  C_9 
REMARK       I    between atoms: C_9  and  N_11 
REMARK    3  A    between atoms: N_11  and  N_12 
REMARK       I    between atoms: N_12  and  C_13 
REMARK    4  A    between atoms: C_13  and  C_15 
REMARK    5  A    between atoms: C_15  and  O_16 
REMARK    6  A    between atoms: O_16  and  C_17 
ROOT
ATOM      1  C   UNL d   1      25.659 -16.115  -1.662  0.00  0.00     0.270 C 
ATOM      2  O   UNL d   1      26.778 -16.204  -1.143  0.00  0.00    -0.266 OA
ATOM      3  N   UNL d   1      25.415 -15.246  -2.723  0.00  0.00    -0.263 N 
ATOM      4  H   UNL d   1      24.522 -15.155  -3.203  0.00  0.00     0.190 HD
ENDROOT
BRANCH   3   5
ATOM      5  N   UNL d   1      26.460 -14.432  -3.260  0.00  0.00    -0.265 N 
ATOM      6  C   UNL d   1      26.128 -13.500  -4.243  0.00  0.00     0.260 C 
ATOM      7  O   UNL d   1      24.965 -13.403  -4.648  0.00  0.00    -0.269 OA
ATOM      8  H   UNL d   1      27.393 -14.581  -2.881  0.00  0.00     0.190 HD
BRANCH   6   9
ATOM      9  C   UNL d   1      27.291 -12.622  -4.780  0.00  0.00     0.280 C 
BRANCH   9  10
ATOM     10  O   UNL d   1      27.607 -11.572  -3.855  0.00  0.00    -0.342 OA
BRANCH  10  11
ATOM     11  C   UNL d   1      27.918 -11.909  -2.563  0.00  0.00     0.069 A 
ATOM     12  C   UNL d   1      29.251 -12.270  -2.327  0.00  0.00     0.037 A 
ATOM     13  C   UNL d   1      29.655 -12.757  -1.078  0.00  0.00     0.003 A 
ATOM     14  C   UNL d   1      28.736 -12.837  -0.035  0.00  0.00     0.000 A 
ATOM     15  C   UNL d   1      27.408 -12.479  -0.260  0.00  0.00     0.003 A 
ATOM     16  C   UNL d   1      26.997 -12.028  -1.524  0.00  0.00     0.037 A 
ENDBRANCH  10  11
ENDBRANCH   9  10
ENDBRANCH   6   9
ENDBRANCH   3   5
BRANCH   1  17
ATOM     17  C   UNL d   1      24.522 -16.987  -1.163  0.00  0.00     0.033 A 
ATOM     18  C   UNL d   1      23.209 -16.474  -1.085  0.00  0.00     0.019 A 
ATOM     19  C   UNL d   1      22.148 -17.227  -0.520  0.00  0.00     0.030 A 
ATOM     20  C   UNL d   1      22.379 -18.521  -0.047  0.00  0.00     0.034 A 
ATOM     21  C   UNL d   1      23.669 -19.043  -0.165  0.00  0.00     0.030 A 
ATOM     22  C   UNL d   1      24.723 -18.297  -0.721  0.00  0.00     0.019 A 
BRANCH  20  23
ATOM     23  N   UNL d   1      21.331 -19.312   0.491  0.00  0.00    -0.328 N 
ATOM     24  C   UNL d   1      20.293 -19.810  -0.288  0.00  0.00     0.218 C 
ATOM     25  C   UNL d   1      19.220 -20.564   0.459  0.00  0.00     0.117 C 
ATOM     26  O   UNL d   1      20.222 -19.700  -1.512  0.00  0.00    -0.274 OA
ATOM     27  H   UNL d   1      21.417 -19.627   1.451  0.00  0.00     0.169 HD
ENDBRANCH  20  23
ENDBRANCH   1  17
TORSDOF 6
ENDMDL
