MODEL 1
REMARK VINA RESULT:    -7.066      0.000      0.000
REMARK INTER + INTRA:          -9.035
REMARK INTER:                  -8.259
REMARK INTRA:                  -0.776
REMARK CONF_INDEPENDENT:        1.193
REMARK UNBOUND:                -0.776
REMARK  4 active torsions:
REMARK  status: ('A' for Active; 'I' for Inactive)
REMARK    1  A    between atoms: O_2  and  C_3 
REMARK    2  A    between atoms: C_5  and  C_6 
REMARK    3  A    between atoms: C_28  and  O_29 
REMARK    4  A    between atoms: C_31  and  O_32 
ROOT
ATOM      1  C   UNL d   1      26.068 -14.714  -2.808  0.00  0.00     0.091 C 
ATOM      2  C   UNL d   1      25.532 -13.317  -2.397  0.00  0.00     0.078 C 
ATOM      3  C   UNL d   1      26.226 -12.091  -3.017  0.00  0.00     0.032 C 
ATOM      4  C   UNL d   1      27.021 -11.244  -2.311  0.00  0.00     0.117 C 
ATOM      5  C   UNL d   1      27.452 -11.554  -0.938  0.00  0.00     0.246 C 
ATOM      6  O   UNL d   1      26.688 -11.696   0.014  0.00  0.00    -0.273 OA
ATOM      7  N   UNL d   1      28.806 -11.617  -0.829  0.00  0.00    -0.175 NA
ATOM      8  C   UNL d   1      29.513 -10.580  -1.371  0.00  0.00     0.310 C 
ATOM      9  O   UNL d   1      30.349  -9.963  -0.719  0.00  0.00    -0.253 OA
ATOM     10  N   UNL d   1      29.157 -10.283  -2.664  0.00  0.00    -0.274 N 
ATOM     11  C   UNL d   1      30.192 -10.058  -3.645  0.00  0.00     0.164 C 
ATOM     12  C   UNL d   1      27.820 -10.180  -2.991  0.00  0.00     0.268 C 
ATOM     13  O   UNL d   1      27.334  -9.308  -3.700  0.00  0.00    -0.267 OA
ATOM     14  N   UNL d   1      26.066 -11.919  -4.393  0.00  0.00    -0.357 N 
ATOM     15  C   UNL d   1      26.867 -12.687  -5.277  0.00  0.00     0.049 A 
ATOM     16  C   UNL d   1      27.764 -11.964  -6.071  0.00  0.00     0.031 A 
ATOM     17  C   UNL d   1      28.706 -12.614  -6.863  0.00  0.00     0.002 A 
ATOM     18  C   UNL d   1      28.725 -14.003  -6.920  0.00  0.00     0.002 A 
ATOM     19  C   UNL d   1      27.777 -14.739  -6.209  0.00  0.00     0.021 A 
ATOM     20  C   UNL d   1      26.837 -14.089  -5.393  0.00  0.00     0.028 A 
ATOM     21  S   UNL d   1      25.654 -15.121  -4.555  0.00  0.00    -0.118 SA
ATOM     22  H   UNL d   1      29.138 -11.889   0.084  0.00  0.00     0.141 HD
ATOM     23  H   UNL d   1      25.100 -11.838  -4.708  0.00  0.00     0.166 HD
ENDROOT
BRANCH   1  24
ATOM     24  C   UNL d   1      25.498 -15.813  -1.904  0.00  0.00    -0.038 A 
ATOM     25  C   UNL d   1      26.350 -16.701  -1.233  0.00  0.00     0.048 A 
ATOM     26  C   UNL d   1      25.835 -17.712  -0.406  0.00  0.00     0.104 A 
ATOM     27  C   UNL d   1      24.440 -17.840  -0.231  0.00  0.00     0.133 A 
ATOM     28  C   UNL d   1      23.564 -16.972  -0.895  0.00  0.00     0.104 A 
ATOM     29  C   UNL d   1      24.109 -15.973  -1.724  0.00  0.00     0.048 A 
BRANCH  26  30
ATOM     30  O   UNL d   1      26.805 -18.505   0.172  0.00  0.00    -0.353 OA
ATOM     31  C   UNL d   1      28.166 -18.214  -0.143  0.00  0.00     0.210 C 
ENDBRANCH  26  30
BRANCH  27  32
ATOM     32  O   UNL d   1      24.053 -18.846   0.603  0.00  0.00    -0.356 OA
ATOM     33  H   UNL d   1      23.127 -18.909   0.818  0.00  0.00     0.218 HD
ENDBRANCH  27  32
BRANCH  28  34
ATOM     34  O   UNL d   1      22.191 -16.940  -0.866  0.00  0.00    -0.353 OA
ATOM     35  C   UNL d   1      21.478 -18.162  -0.896  0.00  0.00     0.210 C 
ENDBRANCH  28  34
ENDBRANCH   1  24
TORSDOF 4
ENDMDL
MODEL 2
REMARK VINA RESULT:    -7.030      0.082      2.262
REMARK INTER + INTRA:          -9.155
REMARK INTER:                  -8.223
REMARK INTRA:                  -0.932
REMARK CONF_INDEPENDENT:        1.193
REMARK UNBOUND:                -0.932
REMARK  4 active torsions:
REMARK  status: ('A' for Active; 'I' for Inactive)
REMARK    1  A    between atoms: O_2  and  C_3 
REMARK    2  A    between atoms: C_5  and  C_6 
REMARK    3  A    between atoms: C_28  and  O_29 
REMARK    4  A    between atoms: C_31  and  O_32 
ROOT
ATOM      1  C   UNL d   1      26.071 -14.757  -2.795  0.00  0.00     0.091 C 
ATOM      2  C   UNL d   1      25.517 -13.363  -2.395  0.00  0.00     0.078 C 
ATOM      3  C   UNL d   1      26.191 -12.134  -3.031  0.00  0.00     0.032 C 
ATOM      4  C   UNL d   1      26.977 -11.269  -2.337  0.00  0.00     0.117 C 
ATOM      5  C   UNL d   1      27.419 -11.559  -0.964  0.00  0.00     0.246 C 
ATOM      6  O   UNL d   1      26.662 -11.702  -0.006  0.00  0.00    -0.273 OA
ATOM      7  N   UNL d   1      28.775 -11.602  -0.861  0.00  0.00    -0.175 NA
ATOM      8  C   UNL d   1      29.464 -10.560  -1.417  0.00  0.00     0.310 C 
ATOM      9  O   UNL d   1      30.294  -9.925  -0.776  0.00  0.00    -0.253 OA
ATOM     10  N   UNL d   1      29.098 -10.282  -2.711  0.00  0.00    -0.274 N 
ATOM     11  C   UNL d   1      30.125 -10.052  -3.699  0.00  0.00     0.164 C 
ATOM     12  C   UNL d   1      27.758 -10.201  -3.032  0.00  0.00     0.268 C 
ATOM     13  O   UNL d   1      27.256  -9.342  -3.748  0.00  0.00    -0.267 OA
ATOM     14  N   UNL d   1      26.022 -11.978  -4.407  0.00  0.00    -0.357 N 
ATOM     15  C   UNL d   1      26.829 -12.744  -5.288  0.00  0.00     0.049 A 
ATOM     16  C   UNL d   1      27.712 -12.016  -6.093  0.00  0.00     0.031 A 
ATOM     17  C   UNL d   1      28.659 -12.661  -6.884  0.00  0.00     0.002 A 
ATOM     18  C   UNL d   1      28.697 -14.050  -6.927  0.00  0.00     0.002 A 
ATOM     19  C   UNL d   1      27.763 -14.792  -6.204  0.00  0.00     0.021 A 
ATOM     20  C   UNL d   1      26.818 -14.147  -5.390  0.00  0.00     0.028 A 
ATOM     21  S   UNL d   1      25.654 -15.187  -4.535  0.00  0.00    -0.118 SA
ATOM     22  H   UNL d   1      29.115 -11.860   0.053  0.00  0.00     0.141 HD
ATOM     23  H   UNL d   1      25.053 -11.914  -4.719  0.00  0.00     0.166 HD
ENDROOT
BRANCH   1  24
ATOM     24  C   UNL d   1      25.521 -15.854  -1.877  0.00  0.00    -0.038 A 
ATOM     25  C   UNL d   1      24.142 -15.982  -1.660  0.00  0.00     0.048 A 
ATOM     26  C   UNL d   1      23.632 -16.982  -0.817  0.00  0.00     0.104 A 
ATOM     27  C   UNL d   1      24.509 -17.885  -0.180  0.00  0.00     0.133 A 
ATOM     28  C   UNL d   1      25.892 -17.778  -0.372  0.00  0.00     0.104 A 
ATOM     29  C   UNL d   1      26.376 -16.760  -1.216  0.00  0.00     0.048 A 
BRANCH  26  30
ATOM     30  O   UNL d   1      22.256 -16.965  -0.704  0.00  0.00    -0.353 OA
ATOM     31  C   UNL d   1      21.567 -18.200  -0.896  0.00  0.00     0.210 C 
ENDBRANCH  26  30
BRANCH  27  32
ATOM     32  O   UNL d   1      23.904 -18.823   0.603  0.00  0.00    -0.356 OA
ATOM     33  H   UNL d   1      22.952 -18.808   0.654  0.00  0.00     0.218 HD
ENDBRANCH  27  32
BRANCH  28  34
ATOM     34  O   UNL d   1      26.901 -18.543   0.161  0.00  0.00    -0.353 OA
ATOM     35  C   UNL d   1      28.243 -18.213  -0.145  0.00  0.00     0.210 C 
ENDBRANCH  28  34
ENDBRANCH   1  24
TORSDOF 4
ENDMDL
MODEL 3
REMARK VINA RESULT:    -6.582      4.944      7.197
REMARK INTER + INTRA:          -8.835
REMARK INTER:                  -7.776
REMARK INTRA:                  -1.060
REMARK CONF_INDEPENDENT:        1.193
REMARK UNBOUND:                -1.060
REMARK  4 active torsions:
REMARK  status: ('A' for Active; 'I' for Inactive)
REMARK    1  A    between atoms: O_2  and  C_3 
REMARK    2  A    between atoms: C_5  and  C_6 
REMARK    3  A    between atoms: C_28  and  O_29 
REMARK    4  A    between atoms: C_31  and  O_32 
ROOT
ATOM      1  C   UNL d   1      30.250 -17.223  -4.223  0.00  0.00     0.091 C 
ATOM      2  C   UNL d   1      30.059 -15.908  -5.026  0.00  0.00     0.078 C 
ATOM      3  C   UNL d   1      29.465 -14.707  -4.269  0.00  0.00     0.032 C 
ATOM      4  C   UNL d   1      28.213 -14.226  -4.490  0.00  0.00     0.117 C 
ATOM      5  C   UNL d   1      27.244 -14.953  -5.327  0.00  0.00     0.246 C 
ATOM      6  O   UNL d   1      27.405 -15.200  -6.520  0.00  0.00    -0.273 OA
ATOM      7  N   UNL d   1      26.119 -15.281  -4.638  0.00  0.00    -0.175 NA
ATOM      8  C   UNL d   1      25.530 -14.281  -3.916  0.00  0.00     0.310 C 
ATOM      9  O   UNL d   1      24.340 -14.012  -4.043  0.00  0.00    -0.253 OA
ATOM     10  N   UNL d   1      26.400 -13.601  -3.100  0.00  0.00    -0.274 N 
ATOM     11  C   UNL d   1      26.013 -13.315  -1.739  0.00  0.00     0.164 C 
ATOM     12  C   UNL d   1      27.614 -13.181  -3.606  0.00  0.00     0.268 C 
ATOM     13  O   UNL d   1      28.118 -12.082  -3.407  0.00  0.00    -0.267 OA
ATOM     14  N   UNL d   1      30.258 -14.157  -3.260  0.00  0.00    -0.357 N 
ATOM     15  C   UNL d   1      30.299 -14.798  -1.995  0.00  0.00     0.049 A 
ATOM     16  C   UNL d   1      29.779 -14.065  -0.923  0.00  0.00     0.031 A 
ATOM     17  C   UNL d   1      29.624 -14.643   0.334  0.00  0.00     0.002 A 
ATOM     18  C   UNL d   1      30.043 -15.951   0.553  0.00  0.00     0.002 A 
ATOM     19  C   UNL d   1      30.650 -16.666  -0.479  0.00  0.00     0.021 A 
ATOM     20  C   UNL d   1      30.792 -16.095  -1.754  0.00  0.00     0.028 A 
ATOM     21  S   UNL d   1      31.608 -17.082  -2.989  0.00  0.00    -0.118 SA
ATOM     22  H   UNL d   1      25.458 -15.835  -5.161  0.00  0.00     0.141 HD
ATOM     23  H   UNL d   1      31.174 -13.828  -3.562  0.00  0.00     0.166 HD
ENDROOT
BRANCH   1  24
ATOM     24  C   UNL d   1      30.558 -18.400  -5.155  0.00  0.00    -0.038 A 
ATOM     25  C   UNL d   1      30.679 -19.701  -4.650  0.00  0.00     0.048 A 
ATOM     26  C   UNL d   1      30.965 -20.783  -5.497  0.00  0.00     0.104 A 
ATOM     27  C   UNL d   1      31.127 -20.572  -6.883  0.00  0.00     0.133 A 
ATOM     28  C   UNL d   1      31.019 -19.281  -7.416  0.00  0.00     0.104 A 
ATOM     29  C   UNL d   1      30.739 -18.215  -6.541  0.00  0.00     0.048 A 
BRANCH  26  30
ATOM     30  O   UNL d   1      31.060 -21.994  -4.841  0.00  0.00    -0.353 OA
ATOM     31  C   UNL d   1      30.780 -22.006  -3.441  0.00  0.00     0.210 C 
ENDBRANCH  26  30
BRANCH  27  32
ATOM     32  O   UNL d   1      31.387 -21.694  -7.611  0.00  0.00    -0.356 OA
ATOM     33  H   UNL d   1      31.222 -22.537  -7.199  0.00  0.00     0.218 HD
ENDBRANCH  27  32
BRANCH  28  34
ATOM     34  O   UNL d   1      31.152 -18.871  -8.720  0.00  0.00    -0.353 OA
ATOM     35  C   UNL d   1      31.020 -19.827  -9.755  0.00  0.00     0.210 C 
ENDBRANCH  28  34
ENDBRANCH   1  24
TORSDOF 4
ENDMDL
MODEL 4
REMARK VINA RESULT:    -6.555      3.937      6.628
REMARK INTER + INTRA:          -8.934
REMARK INTER:                  -7.748
REMARK INTRA:                  -1.186
REMARK CONF_INDEPENDENT:        1.193
REMARK UNBOUND:                -1.186
REMARK  4 active torsions:
REMARK  status: ('A' for Active; 'I' for Inactive)
REMARK    1  A    between atoms: O_2  and  C_3 
REMARK    2  A    between atoms: C_5  and  C_6 
REMARK    3  A    between atoms: C_28  and  O_29 
REMARK    4  A    between atoms: C_31  and  O_32 
ROOT
ATOM      1  C   UNL d   1      27.282 -13.125   0.182  0.00  0.00     0.091 C 
ATOM      2  C   UNL d   1      28.307 -11.993  -0.097  0.00  0.00     0.078 C 
ATOM      3  C   UNL d   1      28.937 -11.304   1.127  0.00  0.00     0.032 C 
ATOM      4  C   UNL d   1      28.651 -10.028   1.498  0.00  0.00     0.117 C 
ATOM      5  C   UNL d   1      27.551  -9.272   0.877  0.00  0.00     0.246 C 
ATOM      6  O   UNL d   1      27.494  -8.981  -0.316  0.00  0.00    -0.273 OA
ATOM      7  N   UNL d   1      26.619  -8.884   1.788  0.00  0.00    -0.175 NA
ATOM      8  C   UNL d   1      27.086  -8.279   2.922  0.00  0.00     0.310 C 
ATOM      9  O   UNL d   1      26.655  -7.194   3.295  0.00  0.00    -0.253 OA
ATOM     10  N   UNL d   1      28.094  -8.974   3.545  0.00  0.00    -0.274 N 
ATOM     11  C   UNL d   1      28.049  -9.149   4.977  0.00  0.00     0.164 C 
ATOM     12  C   UNL d   1      29.142  -9.466   2.792  0.00  0.00     0.268 C 
ATOM     13  O   UNL d   1      30.324  -9.409   3.109  0.00  0.00    -0.267 OA
ATOM     14  N   UNL d   1      29.784 -12.088   1.912  0.00  0.00    -0.357 N 
ATOM     15  C   UNL d   1      29.211 -12.989   2.847  0.00  0.00     0.049 A 
ATOM     16  C   UNL d   1      29.478 -12.720   4.194  0.00  0.00     0.031 A 
ATOM     17  C   UNL d   1      28.850 -13.439   5.207  0.00  0.00     0.002 A 
ATOM     18  C   UNL d   1      27.987 -14.481   4.887  0.00  0.00     0.002 A 
ATOM     19  C   UNL d   1      27.782 -14.824   3.550  0.00  0.00     0.021 A 
ATOM     20  C   UNL d   1      28.398 -14.091   2.524  0.00  0.00     0.028 A 
ATOM     21  S   UNL d   1      28.092 -14.633   0.856  0.00  0.00    -0.118 SA
ATOM     22  H   UNL d   1      25.818  -8.417   1.392  0.00  0.00     0.141 HD
ATOM     23  H   UNL d   1      30.581 -12.489   1.419  0.00  0.00     0.166 HD
ENDROOT
BRANCH   1  24
ATOM     24  C   UNL d   1      26.522 -13.509  -1.093  0.00  0.00    -0.038 A 
ATOM     25  C   UNL d   1      26.337 -12.577  -2.124  0.00  0.00     0.048 A 
ATOM     26  C   UNL d   1      25.639 -12.920  -3.292  0.00  0.00     0.104 A 
ATOM     27  C   UNL d   1      25.120 -14.223  -3.449  0.00  0.00     0.133 A 
ATOM     28  C   UNL d   1      25.284 -15.174  -2.434  0.00  0.00     0.104 A 
ATOM     29  C   UNL d   1      25.981 -14.799  -1.269  0.00  0.00     0.048 A 
BRANCH  26  30
ATOM     30  O   UNL d   1      25.537 -11.887  -4.202  0.00  0.00    -0.353 OA
ATOM     31  C   UNL d   1      25.894 -10.580  -3.756  0.00  0.00     0.210 C 
ENDBRANCH  26  30
BRANCH  27  32
ATOM     32  O   UNL d   1      24.475 -14.449  -4.628  0.00  0.00    -0.356 OA
ATOM     33  H   UNL d   1      24.244 -13.692  -5.158  0.00  0.00     0.218 HD
ENDBRANCH  27  32
BRANCH  28  34
ATOM     34  O   UNL d   1      24.850 -16.476  -2.389  0.00  0.00    -0.353 OA
ATOM     35  C   UNL d   1      24.724 -17.112  -1.132  0.00  0.00     0.210 C 
ENDBRANCH  28  34
ENDBRANCH   1  24
TORSDOF 4
ENDMDL
MODEL 5
REMARK VINA RESULT:    -6.479      3.974      6.668
REMARK INTER + INTRA:          -8.574
REMARK INTER:                  -7.672
REMARK INTRA:                  -0.902
REMARK CONF_INDEPENDENT:        1.193
REMARK UNBOUND:                -0.902
REMARK  4 active torsions:
REMARK  status: ('A' for Active; 'I' for Inactive)
REMARK    1  A    between atoms: O_2  and  C_3 
REMARK    2  A    between atoms: C_5  and  C_6 
REMARK    3  A    between atoms: C_28  and  O_29 
REMARK    4  A    between atoms: C_31  and  O_32 
ROOT
ATOM      1  C   UNL d   1      27.425 -13.005   0.162  0.00  0.00     0.091 C 
ATOM      2  C   UNL d   1      28.403 -11.827  -0.089  0.00  0.00     0.078 C 
ATOM      3  C   UNL d   1      29.035 -11.167   1.150  0.00  0.00     0.032 C 
ATOM      4  C   UNL d   1      28.712  -9.919   1.581  0.00  0.00     0.117 C 
ATOM      5  C   UNL d   1      27.573  -9.177   1.014  0.00  0.00     0.246 C 
ATOM      6  O   UNL d   1      27.481  -8.840  -0.164  0.00  0.00    -0.273 OA
ATOM      7  N   UNL d   1      26.648  -8.861   1.959  0.00  0.00    -0.175 NA
ATOM      8  C   UNL d   1      27.118  -8.288   3.108  0.00  0.00     0.310 C 
ATOM      9  O   UNL d   1      26.656  -7.236   3.536  0.00  0.00    -0.253 OA
ATOM     10  N   UNL d   1      28.162  -8.972   3.681  0.00  0.00    -0.274 N 
ATOM     11  C   UNL d   1      28.153  -9.208   5.105  0.00  0.00     0.164 C 
ATOM     12  C   UNL d   1      29.210  -9.394   2.888  0.00  0.00     0.268 C 
ATOM     13  O   UNL d   1      30.396  -9.308   3.184  0.00  0.00    -0.267 OA
ATOM     14  N   UNL d   1      29.925 -11.953   1.885  0.00  0.00    -0.357 N 
ATOM     15  C   UNL d   1      29.404 -12.912   2.792  0.00  0.00     0.049 A 
ATOM     16  C   UNL d   1      29.690 -12.690   4.143  0.00  0.00     0.031 A 
ATOM     17  C   UNL d   1      29.109 -13.472   5.137  0.00  0.00     0.002 A 
ATOM     18  C   UNL d   1      28.276 -14.530   4.790  0.00  0.00     0.002 A 
ATOM     19  C   UNL d   1      28.055 -14.825   3.445  0.00  0.00     0.021 A 
ATOM     20  C   UNL d   1      28.623 -14.028   2.438  0.00  0.00     0.028 A 
ATOM     21  S   UNL d   1      28.302 -14.510   0.756  0.00  0.00    -0.118 SA
ATOM     22  H   UNL d   1      25.823  -8.408   1.599  0.00  0.00     0.141 HD
ATOM     23  H   UNL d   1      30.725 -12.303   1.360  0.00  0.00     0.166 HD
ENDROOT
BRANCH   1  24
ATOM     24  C   UNL d   1      26.653 -13.363  -1.114  0.00  0.00    -0.038 A 
ATOM     25  C   UNL d   1      26.175 -14.664  -1.320  0.00  0.00     0.048 A 
ATOM     26  C   UNL d   1      25.471 -14.999  -2.487  0.00  0.00     0.104 A 
ATOM     27  C   UNL d   1      25.225 -14.018  -3.471  0.00  0.00     0.133 A 
ATOM     28  C   UNL d   1      25.696 -12.710  -3.296  0.00  0.00     0.104 A 
ATOM     29  C   UNL d   1      26.406 -12.405  -2.119  0.00  0.00     0.048 A 
BRANCH  26  30
ATOM     30  O   UNL d   1      25.078 -16.321  -2.540  0.00  0.00    -0.353 OA
ATOM     31  C   UNL d   1      24.997 -17.032  -1.305  0.00  0.00     0.210 C 
ENDBRANCH  26  30
BRANCH  27  32
ATOM     32  O   UNL d   1      24.520 -14.450  -4.554  0.00  0.00    -0.356 OA
ATOM     33  H   UNL d   1      24.002 -13.807  -5.030  0.00  0.00     0.218 HD
ENDBRANCH  27  32
BRANCH  28  34
ATOM     34  O   UNL d   1      25.573 -11.627  -4.131  0.00  0.00    -0.353 OA
ATOM     35  C   UNL d   1      26.081 -10.376  -3.707  0.00  0.00     0.210 C 
ENDBRANCH  28  34
ENDBRANCH   1  24
TORSDOF 4
ENDMDL
MODEL 6
REMARK VINA RESULT:    -6.447      4.389      7.168
REMARK INTER + INTRA:          -8.730
REMARK INTER:                  -7.640
REMARK INTRA:                  -1.090
REMARK CONF_INDEPENDENT:        1.193
REMARK UNBOUND:                -1.090
REMARK  4 active torsions:
REMARK  status: ('A' for Active; 'I' for Inactive)
REMARK    1  A    between atoms: O_2  and  C_3 
REMARK    2  A    between atoms: C_5  and  C_6 
REMARK    3  A    between atoms: C_28  and  O_29 
REMARK    4  A    between atoms: C_31  and  O_32 
ROOT
ATOM      1  C   UNL d   1      26.093 -10.206  -3.457  0.00  0.00     0.091 C 
ATOM      2  C   UNL d   1      26.334  -9.164  -4.582  0.00  0.00     0.078 C 
ATOM      3  C   UNL d   1      26.006  -7.696  -4.258  0.00  0.00     0.032 C 
ATOM      4  C   UNL d   1      24.952  -7.027  -4.796  0.00  0.00     0.117 C 
ATOM      5  C   UNL d   1      23.913  -7.722  -5.574  0.00  0.00     0.246 C 
ATOM      6  O   UNL d   1      24.120  -8.326  -6.624  0.00  0.00    -0.273 OA
ATOM      7  N   UNL d   1      22.679  -7.579  -5.022  0.00  0.00    -0.175 NA
ATOM      8  C   UNL d   1      22.305  -6.309  -4.680  0.00  0.00     0.310 C 
ATOM      9  O   UNL d   1      21.247  -5.825  -5.065  0.00  0.00    -0.253 OA
ATOM     10  N   UNL d   1      23.240  -5.641  -3.926  0.00  0.00    -0.274 N 
ATOM     11  C   UNL d   1      22.809  -4.903  -2.763  0.00  0.00     0.164 C 
ATOM     12  C   UNL d   1      24.565  -5.668  -4.312  0.00  0.00     0.268 C 
ATOM     13  O   UNL d   1      25.318  -4.701  -4.312  0.00  0.00    -0.267 OA
ATOM     14  N   UNL d   1      26.812  -7.078  -3.300  0.00  0.00    -0.357 N 
ATOM     15  C   UNL d   1      26.558  -7.327  -1.927  0.00  0.00     0.049 A 
ATOM     16  C   UNL d   1      26.147  -6.223  -1.173  0.00  0.00     0.031 A 
ATOM     17  C   UNL d   1      25.722  -6.372   0.144  0.00  0.00     0.002 A 
ATOM     18  C   UNL d   1      25.760  -7.623   0.749  0.00  0.00     0.002 A 
ATOM     19  C   UNL d   1      26.256  -8.719   0.043  0.00  0.00     0.021 A 
ATOM     20  C   UNL d   1      26.668  -8.579  -1.292  0.00  0.00     0.028 A 
ATOM     21  S   UNL d   1      27.312 -10.033  -2.090  0.00  0.00    -0.118 SA
ATOM     22  H   UNL d   1      21.950  -8.093  -5.492  0.00  0.00     0.141 HD
ATOM     23  H   UNL d   1      27.808  -7.063  -3.519  0.00  0.00     0.166 HD
ENDROOT
BRANCH   1  24
ATOM     24  C   UNL d   1      26.171 -11.636  -4.002  0.00  0.00    -0.038 A 
ATOM     25  C   UNL d   1      25.442 -12.672  -3.403  0.00  0.00     0.048 A 
ATOM     26  C   UNL d   1      25.512 -13.985  -3.894  0.00  0.00     0.104 A 
ATOM     27  C   UNL d   1      26.318 -14.278  -5.015  0.00  0.00     0.133 A 
ATOM     28  C   UNL d   1      27.065 -13.265  -5.631  0.00  0.00     0.104 A 
ATOM     29  C   UNL d   1      26.980 -11.959  -5.111  0.00  0.00     0.048 A 
BRANCH  26  30
ATOM     30  O   UNL d   1      24.742 -14.886  -3.187  0.00  0.00    -0.353 OA
ATOM     31  C   UNL d   1      25.422 -15.795  -2.323  0.00  0.00     0.210 C 
ENDBRANCH  26  30
BRANCH  27  32
ATOM     32  O   UNL d   1      26.300 -15.581  -5.415  0.00  0.00    -0.356 OA
ATOM     33  H   UNL d   1      25.772 -16.192  -4.908  0.00  0.00     0.218 HD
ENDBRANCH  27  32
BRANCH  28  34
ATOM     34  O   UNL d   1      27.908 -13.347  -6.712  0.00  0.00    -0.353 OA
ATOM     35  C   UNL d   1      29.192 -13.915  -6.535  0.00  0.00     0.210 C 
ENDBRANCH  28  34
ENDBRANCH   1  24
TORSDOF 4
ENDMDL
MODEL 7
REMARK VINA RESULT:    -6.440      4.934      7.252
REMARK INTER + INTRA:          -8.428
REMARK INTER:                  -7.633
REMARK INTRA:                  -0.795
REMARK CONF_INDEPENDENT:        1.193
REMARK UNBOUND:                -0.795
REMARK  4 active torsions:
REMARK  status: ('A' for Active; 'I' for Inactive)
REMARK    1  A    between atoms: O_2  and  C_3 
REMARK    2  A    between atoms: C_5  and  C_6 
REMARK    3  A    between atoms: C_28  and  O_29 
REMARK    4  A    between atoms: C_31  and  O_32 
ROOT
ATOM      1  C   UNL d   1      30.200 -17.313  -4.118  0.00  0.00     0.091 C 
ATOM      2  C   UNL d   1      30.055 -16.021  -4.967  0.00  0.00     0.078 C 
ATOM      3  C   UNL d   1      29.449 -14.790  -4.271  0.00  0.00     0.032 C 
ATOM      4  C   UNL d   1      28.212 -14.303  -4.553  0.00  0.00     0.117 C 
ATOM      5  C   UNL d   1      27.266 -15.044  -5.403  0.00  0.00     0.246 C 
ATOM      6  O   UNL d   1      27.468 -15.330  -6.581  0.00  0.00    -0.273 OA
ATOM      7  N   UNL d   1      26.112 -15.338  -4.747  0.00  0.00    -0.175 NA
ATOM      8  C   UNL d   1      25.509 -14.308  -4.079  0.00  0.00     0.310 C 
ATOM      9  O   UNL d   1      24.328 -14.030  -4.259  0.00  0.00    -0.253 OA
ATOM     10  N   UNL d   1      26.357 -13.613  -3.252  0.00  0.00    -0.274 N 
ATOM     11  C   UNL d   1      25.923 -13.281  -1.916  0.00  0.00     0.164 C 
ATOM     12  C   UNL d   1      27.594 -13.224  -3.725  0.00  0.00     0.268 C 
ATOM     13  O   UNL d   1      28.104 -12.125  -3.541  0.00  0.00    -0.267 OA
ATOM     14  N   UNL d   1      30.211 -14.219  -3.250  0.00  0.00    -0.357 N 
ATOM     15  C   UNL d   1      30.196 -14.820  -1.965  0.00  0.00     0.049 A 
ATOM     16  C   UNL d   1      29.647 -14.048  -0.936  0.00  0.00     0.031 A 
ATOM     17  C   UNL d   1      29.437 -14.585   0.331  0.00  0.00     0.002 A 
ATOM     18  C   UNL d   1      29.832 -15.890   0.606  0.00  0.00     0.002 A 
ATOM     19  C   UNL d   1      30.468 -16.643  -0.381  0.00  0.00     0.021 A 
ATOM     20  C   UNL d   1      30.664 -16.114  -1.666  0.00  0.00     0.028 A 
ATOM     21  S   UNL d   1      31.513 -17.149  -2.839  0.00  0.00    -0.118 SA
ATOM     22  H   UNL d   1      25.464 -15.900  -5.277  0.00  0.00     0.141 HD
ATOM     23  H   UNL d   1      31.142 -13.909  -3.527  0.00  0.00     0.166 HD
ENDROOT
BRANCH   1  24
ATOM     24  C   UNL d   1      30.528 -18.521  -5.002  0.00  0.00    -0.038 A 
ATOM     25  C   UNL d   1      30.514 -18.411  -6.399  0.00  0.00     0.048 A 
ATOM     26  C   UNL d   1      30.809 -19.515  -7.214  0.00  0.00     0.104 A 
ATOM     27  C   UNL d   1      31.137 -20.758  -6.631  0.00  0.00     0.133 A 
ATOM     28  C   UNL d   1      31.152 -20.900  -5.237  0.00  0.00     0.104 A 
ATOM     29  C   UNL d   1      30.844 -19.777  -4.445  0.00  0.00     0.048 A 
BRANCH  26  30
ATOM     30  O   UNL d   1      30.742 -19.242  -8.565  0.00  0.00    -0.353 OA
ATOM     31  C   UNL d   1      31.924 -19.452  -9.337  0.00  0.00     0.210 C 
ENDBRANCH  26  30
BRANCH  27  32
ATOM     32  O   UNL d   1      31.420 -21.754  -7.516  0.00  0.00    -0.356 OA
ATOM     33  H   UNL d   1      31.130 -22.636  -7.297  0.00  0.00     0.218 HD
ENDBRANCH  27  32
BRANCH  28  34
ATOM     34  O   UNL d   1      31.432 -22.014  -4.484  0.00  0.00    -0.353 OA
ATOM     35  C   UNL d   1      30.456 -22.487  -3.576  0.00  0.00     0.210 C 
ENDBRANCH  28  34
ENDBRANCH   1  24
TORSDOF 4
ENDMDL
MODEL 8
REMARK VINA RESULT:    -6.428      4.424      6.991
REMARK INTER + INTRA:          -8.709
REMARK INTER:                  -7.621
REMARK INTRA:                  -1.088
REMARK CONF_INDEPENDENT:        1.193
REMARK UNBOUND:                -1.088
REMARK  4 active torsions:
REMARK  status: ('A' for Active; 'I' for Inactive)
REMARK    1  A    between atoms: O_2  and  C_3 
REMARK    2  A    between atoms: C_5  and  C_6 
REMARK    3  A    between atoms: C_28  and  O_29 
REMARK    4  A    between atoms: C_31  and  O_32 
ROOT
ATOM      1  C   UNL d   1      26.028 -10.188  -3.417  0.00  0.00     0.091 C 
ATOM      2  C   UNL d   1      26.266  -9.176  -4.570  0.00  0.00     0.078 C 
ATOM      3  C   UNL d   1      25.950  -7.698  -4.279  0.00  0.00     0.032 C 
ATOM      4  C   UNL d   1      24.895  -7.037  -4.826  0.00  0.00     0.117 C 
ATOM      5  C   UNL d   1      23.846  -7.744  -5.578  0.00  0.00     0.246 C 
ATOM      6  O   UNL d   1      24.041  -8.375  -6.614  0.00  0.00    -0.273 OA
ATOM      7  N   UNL d   1      22.618  -7.579  -5.019  0.00  0.00    -0.175 NA
ATOM      8  C   UNL d   1      22.255  -6.299  -4.706  0.00  0.00     0.310 C 
ATOM      9  O   UNL d   1      21.196  -5.818  -5.095  0.00  0.00    -0.253 OA
ATOM     10  N   UNL d   1      23.199  -5.618  -3.977  0.00  0.00    -0.274 N 
ATOM     11  C   UNL d   1      22.782  -4.848  -2.829  0.00  0.00     0.164 C 
ATOM     12  C   UNL d   1      24.521  -5.663  -4.373  0.00  0.00     0.268 C 
ATOM     13  O   UNL d   1      25.280  -4.701  -4.403  0.00  0.00    -0.267 OA
ATOM     14  N   UNL d   1      26.768  -7.062  -3.344  0.00  0.00    -0.357 N 
ATOM     15  C   UNL d   1      26.524  -7.275  -1.963  0.00  0.00     0.049 A 
ATOM     16  C   UNL d   1      26.125  -6.150  -1.233  0.00  0.00     0.031 A 
ATOM     17  C   UNL d   1      25.711  -6.263   0.091  0.00  0.00     0.002 A 
ATOM     18  C   UNL d   1      25.746  -7.499   0.726  0.00  0.00     0.002 A 
ATOM     19  C   UNL d   1      26.230  -8.615   0.043  0.00  0.00     0.021 A 
ATOM     20  C   UNL d   1      26.631  -8.511  -1.298  0.00  0.00     0.028 A 
ATOM     21  S   UNL d   1      27.260  -9.989  -2.064  0.00  0.00    -0.118 SA
ATOM     22  H   UNL d   1      21.882  -8.100  -5.470  0.00  0.00     0.141 HD
ATOM     23  H   UNL d   1      27.761  -7.059  -3.571  0.00  0.00     0.166 HD
ENDROOT
BRANCH   1  24
ATOM     24  C   UNL d   1      26.094 -11.632  -3.927  0.00  0.00    -0.038 A 
ATOM     25  C   UNL d   1      26.959 -11.983  -4.972  0.00  0.00     0.048 A 
ATOM     26  C   UNL d   1      27.022 -13.303  -5.447  0.00  0.00     0.104 A 
ATOM     27  C   UNL d   1      26.213 -14.303  -4.865  0.00  0.00     0.133 A 
ATOM     28  C   UNL d   1      25.333 -13.980  -3.824  0.00  0.00     0.104 A 
ATOM     29  C   UNL d   1      25.286 -12.646  -3.374  0.00  0.00     0.048 A 
BRANCH  26  30
ATOM     30  O   UNL d   1      27.916 -13.479  -6.483  0.00  0.00    -0.353 OA
ATOM     31  C   UNL d   1      29.173 -14.078  -6.171  0.00  0.00     0.210 C 
ENDBRANCH  26  30
BRANCH  27  32
ATOM     32  O   UNL d   1      26.366 -15.549  -5.394  0.00  0.00    -0.356 OA
ATOM     33  H   UNL d   1      27.036 -15.667  -6.061  0.00  0.00     0.218 HD
ENDBRANCH  27  32
BRANCH  28  34
ATOM     34  O   UNL d   1      24.464 -14.796  -3.141  0.00  0.00    -0.353 OA
ATOM     35  C   UNL d   1      24.976 -15.651  -2.137  0.00  0.00     0.210 C 
ENDBRANCH  28  34
ENDBRANCH   1  24
TORSDOF 4
ENDMDL
MODEL 9
REMARK VINA RESULT:    -6.109      4.175      6.522
REMARK INTER + INTRA:          -8.430
REMARK INTER:                  -7.302
REMARK INTRA:                  -1.128
REMARK CONF_INDEPENDENT:        1.193
REMARK UNBOUND:                -1.128
REMARK  4 active torsions:
REMARK  status: ('A' for Active; 'I' for Inactive)
REMARK    1  A    between atoms: O_2  and  C_3 
REMARK    2  A    between atoms: C_5  and  C_6 
REMARK    3  A    between atoms: C_28  and  O_29 
REMARK    4  A    between atoms: C_31  and  O_32 
ROOT
ATOM      1  C   UNL d   1      28.880 -15.138  -0.891  0.00  0.00     0.091 C 
ATOM      2  C   UNL d   1      28.992 -13.687  -0.353  0.00  0.00     0.078 C 
ATOM      3  C   UNL d   1      29.755 -13.488   0.969  0.00  0.00     0.032 C 
ATOM      4  C   UNL d   1      29.151 -13.154   2.140  0.00  0.00     0.117 C 
ATOM      5  C   UNL d   1      27.686 -13.161   2.281  0.00  0.00     0.246 C 
ATOM      6  O   UNL d   1      26.922 -12.447   1.635  0.00  0.00    -0.273 OA
ATOM      7  N   UNL d   1      27.270 -14.019   3.251  0.00  0.00    -0.175 NA
ATOM      8  C   UNL d   1      27.906 -13.932   4.459  0.00  0.00     0.310 C 
ATOM      9  O   UNL d   1      27.281 -13.802   5.505  0.00  0.00    -0.253 OA
ATOM     10  N   UNL d   1      29.276 -13.953   4.366  0.00  0.00    -0.274 N 
ATOM     11  C   UNL d   1      30.030 -14.790   5.269  0.00  0.00     0.164 C 
ATOM     12  C   UNL d   1      29.903 -13.154   3.430  0.00  0.00     0.268 C 
ATOM     13  O   UNL d   1      30.912 -12.490   3.635  0.00  0.00    -0.267 OA
ATOM     14  N   UNL d   1      31.127 -13.748   0.938  0.00  0.00    -0.357 N 
ATOM     15  C   UNL d   1      31.571 -15.093   1.006  0.00  0.00     0.049 A 
ATOM     16  C   UNL d   1      32.315 -15.432   2.141  0.00  0.00     0.031 A 
ATOM     17  C   UNL d   1      32.674 -16.753   2.396  0.00  0.00     0.002 A 
ATOM     18  C   UNL d   1      32.345 -17.750   1.484  0.00  0.00     0.002 A 
ATOM     19  C   UNL d   1      31.686 -17.416   0.301  0.00  0.00     0.021 A 
ATOM     20  C   UNL d   1      31.304 -16.089   0.048  0.00  0.00     0.028 A 
ATOM     21  S   UNL d   1      30.496 -15.769  -1.505  0.00  0.00    -0.118 SA
ATOM     22  H   UNL d   1      26.268 -14.098   3.336  0.00  0.00     0.141 HD
ATOM     23  H   UNL d   1      31.655 -13.194   0.265  0.00  0.00     0.166 HD
ENDROOT
BRANCH   1  24
ATOM     24  C   UNL d   1      27.858 -15.227  -2.030  0.00  0.00    -0.038 A 
ATOM     25  C   UNL d   1      28.272 -15.186  -3.369  0.00  0.00     0.048 A 
ATOM     26  C   UNL d   1      27.342 -15.263  -4.417  0.00  0.00     0.104 A 
ATOM     27  C   UNL d   1      25.966 -15.394  -4.132  0.00  0.00     0.133 A 
ATOM     28  C   UNL d   1      25.521 -15.431  -2.804  0.00  0.00     0.104 A 
ATOM     29  C   UNL d   1      26.477 -15.343  -1.774  0.00  0.00     0.048 A 
BRANCH  26  30
ATOM     30  O   UNL d   1      27.912 -15.200  -5.672  0.00  0.00    -0.353 OA
ATOM     31  C   UNL d   1      29.319 -14.979  -5.744  0.00  0.00     0.210 C 
ENDBRANCH  26  30
BRANCH  27  32
ATOM     32  O   UNL d   1      25.155 -15.475  -5.225  0.00  0.00    -0.356 OA
ATOM     33  H   UNL d   1      25.570 -15.574  -6.077  0.00  0.00     0.218 HD
ENDBRANCH  27  32
BRANCH  28  34
ATOM     34  O   UNL d   1      24.239 -15.541  -2.324  0.00  0.00    -0.353 OA
ATOM     35  C   UNL d   1      24.006 -16.326  -1.170  0.00  0.00     0.210 C 
ENDBRANCH  28  34
ENDBRANCH   1  24
TORSDOF 4
ENDMDL
