MODEL 1
REMARK VINA RESULT:    -8.410      0.000      0.000
REMARK INTER + INTRA:         -10.789
REMARK INTER:                  -9.603
REMARK INTRA:                  -1.186
REMARK CONF_INDEPENDENT:        1.193
REMARK UNBOUND:                -1.186
REMARK  4 active torsions:
REMARK  status: ('A' for Active; 'I' for Inactive)
REMARK       I    between atoms: C_2  and  N_3 
REMARK    1  A    between atoms: C_2  and  C_14 
REMARK    2  A    between atoms: N_3  and  N_4 
REMARK       I    between atoms: N_4  and  C_5 
REMARK    3  A    between atoms: C_5  and  C_7 
REMARK    4  A    between atoms: C_11  and  O_12 
ROOT
ATOM      1  N   UNL d   1      22.453 -18.699  -0.053  0.00  0.00    -0.263 N 
ATOM      2  C   UNL d   1      21.099 -18.675  -0.367  0.00  0.00     0.270 C 
ATOM      3  O   UNL d   1      20.639 -17.974  -1.270  0.00  0.00    -0.266 OA
ATOM      4  H   UNL d   1      22.870 -19.352   0.608  0.00  0.00     0.190 HD
ENDROOT
BRANCH   1   5
ATOM      5  N   UNL d   1      23.362 -17.892  -0.801  0.00  0.00    -0.263 N 
ATOM      6  C   UNL d   1      24.707 -17.871  -0.455  0.00  0.00     0.270 C 
ATOM      7  O   UNL d   1      25.165 -18.524   0.484  0.00  0.00    -0.266 OA
ATOM      8  H   UNL d   1      22.984 -17.454  -1.641  0.00  0.00     0.190 HD
BRANCH   6   9
ATOM      9  C   UNL d   1      25.625 -17.015  -1.279  0.00  0.00     0.033 A 
ATOM     10  C   UNL d   1      25.119 -16.321  -2.395  0.00  0.00     0.020 A 
ATOM     11  C   UNL d   1      25.967 -15.545  -3.202  0.00  0.00     0.043 A 
ATOM     12  C   UNL d   1      27.322 -15.479  -2.906  0.00  0.00     0.116 A 
ATOM     13  F   UNL d   1      28.135 -14.742  -3.676  0.00  0.00    -0.206 F 
ATOM     14  C   UNL d   1      27.845 -16.178  -1.824  0.00  0.00     0.043 A 
ATOM     15  C   UNL d   1      27.000 -16.949  -1.009  0.00  0.00     0.020 A 
ENDBRANCH   6   9
ENDBRANCH   1   5
BRANCH   2  16
ATOM     16  C   UNL d   1      20.185 -19.553   0.435  0.00  0.00     0.036 A 
ATOM     17  C   UNL d   1      20.301 -19.648   1.829  0.00  0.00     0.017 A 
ATOM     18  C   UNL d   1      19.409 -20.450   2.561  0.00  0.00     0.004 A 
ATOM     19  C   UNL d   1      18.393 -21.158   1.913  0.00  0.00     0.036 A 
ATOM     20  C   UNL d   1      18.264 -21.043   0.533  0.00  0.00     0.066 A 
ATOM     21  C   UNL d   1      19.142 -20.242  -0.205  0.00  0.00     0.053 A 
BRANCH  20  22
ATOM     22  O   UNL d   1      17.280 -21.702  -0.145  0.00  0.00    -0.361 OA
ATOM     23  H   UNL d   1      17.162 -22.592   0.229  0.00  0.00     0.217 HD
ENDBRANCH  20  22
ENDBRANCH   2  16
TORSDOF 4
ENDMDL
MODEL 2
REMARK VINA RESULT:    -8.122      3.457      8.580
REMARK INTER + INTRA:         -10.333
REMARK INTER:                  -9.315
REMARK INTRA:                  -1.017
REMARK CONF_INDEPENDENT:        1.193
REMARK UNBOUND:                -1.017
REMARK  4 active torsions:
REMARK  status: ('A' for Active; 'I' for Inactive)
REMARK       I    between atoms: C_2  and  N_3 
REMARK    1  A    between atoms: C_2  and  C_14 
REMARK    2  A    between atoms: N_3  and  N_4 
REMARK       I    between atoms: N_4  and  C_5 
REMARK    3  A    between atoms: C_5  and  C_7 
REMARK    4  A    between atoms: C_11  and  O_12 
ROOT
ATOM      1  N   UNL d   1      23.477 -18.037  -0.689  0.00  0.00    -0.263 N 
ATOM      2  C   UNL d   1      24.707 -17.964  -0.046  0.00  0.00     0.270 C 
ATOM      3  O   UNL d   1      24.950 -18.575   0.994  0.00  0.00    -0.266 OA
ATOM      4  H   UNL d   1      23.291 -17.635  -1.606  0.00  0.00     0.190 HD
ENDROOT
BRANCH   1   5
ATOM      5  N   UNL d   1      22.445 -18.856  -0.138  0.00  0.00    -0.263 N 
ATOM      6  C   UNL d   1      21.120 -18.617  -0.484  0.00  0.00     0.270 C 
ATOM      7  O   UNL d   1      20.784 -17.718  -1.256  0.00  0.00    -0.266 OA
ATOM      8  H   UNL d   1      22.755 -19.663   0.402  0.00  0.00     0.190 HD
BRANCH   6   9
ATOM      9  C   UNL d   1      20.074 -19.512   0.113  0.00  0.00     0.033 A 
ATOM     10  C   UNL d   1      19.039 -20.017  -0.699  0.00  0.00     0.020 A 
ATOM     11  C   UNL d   1      18.028 -20.824  -0.153  0.00  0.00     0.043 A 
ATOM     12  C   UNL d   1      18.040 -21.112   1.206  0.00  0.00     0.116 A 
ATOM     13  F   UNL d   1      17.075 -21.880   1.731  0.00  0.00    -0.206 F 
ATOM     14  C   UNL d   1      19.038 -20.601   2.028  0.00  0.00     0.043 A 
ATOM     15  C   UNL d   1      20.055 -19.800   1.486  0.00  0.00     0.020 A 
ENDBRANCH   6   9
ENDBRANCH   1   5
BRANCH   2  16
ATOM     16  C   UNL d   1      25.766 -17.104  -0.672  0.00  0.00     0.036 A 
ATOM     17  C   UNL d   1      25.520 -16.382  -1.848  0.00  0.00     0.017 A 
ATOM     18  C   UNL d   1      26.517 -15.556  -2.394  0.00  0.00     0.004 A 
ATOM     19  C   UNL d   1      27.763 -15.439  -1.772  0.00  0.00     0.036 A 
ATOM     20  C   UNL d   1      27.997 -16.138  -0.592  0.00  0.00     0.066 A 
ATOM     21  C   UNL d   1      27.010 -16.957  -0.036  0.00  0.00     0.053 A 
BRANCH  20  22
ATOM     22  O   UNL d   1      29.192 -16.046   0.062  0.00  0.00    -0.361 OA
ATOM     23  H   UNL d   1      29.104 -16.409   0.960  0.00  0.00     0.217 HD
ENDBRANCH  20  22
ENDBRANCH   2  16
TORSDOF 4
ENDMDL
MODEL 3
REMARK VINA RESULT:    -7.974      1.078      1.866
REMARK INTER + INTRA:         -10.254
REMARK INTER:                  -9.167
REMARK INTRA:                  -1.087
REMARK CONF_INDEPENDENT:        1.193
REMARK UNBOUND:                -1.087
REMARK  4 active torsions:
REMARK  status: ('A' for Active; 'I' for Inactive)
REMARK       I    between atoms: C_2  and  N_3 
REMARK    1  A    between atoms: C_2  and  C_14 
REMARK    2  A    between atoms: N_3  and  N_4 
REMARK       I    between atoms: N_4  and  C_5 
REMARK    3  A    between atoms: C_5  and  C_7 
REMARK    4  A    between atoms: C_11  and  O_12 
ROOT
ATOM      1  N   UNL d   1      22.455 -18.763  -0.145  0.00  0.00    -0.263 N 
ATOM      2  C   UNL d   1      21.108 -18.578  -0.436  0.00  0.00     0.270 C 
ATOM      3  O   UNL d   1      20.715 -17.763  -1.270  0.00  0.00    -0.266 OA
ATOM      4  H   UNL d   1      22.809 -19.507   0.454  0.00  0.00     0.190 HD
ENDROOT
BRANCH   1   5
ATOM      5  N   UNL d   1      23.435 -17.990  -0.837  0.00  0.00    -0.263 N 
ATOM      6  C   UNL d   1      24.741 -17.953  -0.364  0.00  0.00     0.270 C 
ATOM      7  O   UNL d   1      25.104 -18.566   0.641  0.00  0.00    -0.266 OA
ATOM      8  H   UNL d   1      23.141 -17.589  -1.727  0.00  0.00     0.190 HD
BRANCH   6   9
ATOM      9  C   UNL d   1      25.737 -17.135  -1.133  0.00  0.00     0.033 A 
ATOM     10  C   UNL d   1      27.089 -17.127  -0.739  0.00  0.00     0.020 A 
ATOM     11  C   UNL d   1      28.030 -16.339  -1.421  0.00  0.00     0.043 A 
ATOM     12  C   UNL d   1      27.618 -15.544  -2.483  0.00  0.00     0.116 A 
ATOM     13  F   UNL d   1      28.513 -14.789  -3.135  0.00  0.00    -0.206 F 
ATOM     14  C   UNL d   1      26.282 -15.519  -2.871  0.00  0.00     0.043 A 
ATOM     15  C   UNL d   1      25.339 -16.311  -2.197  0.00  0.00     0.020 A 
ENDBRANCH   6   9
ENDBRANCH   1   5
BRANCH   2  16
ATOM     16  C   UNL d   1      20.117 -19.426   0.305  0.00  0.00     0.036 A 
ATOM     17  C   UNL d   1      19.068 -20.075  -0.361  0.00  0.00     0.017 A 
ATOM     18  C   UNL d   1      18.174 -20.892   0.351  0.00  0.00     0.004 A 
ATOM     19  C   UNL d   1      18.320 -21.074   1.729  0.00  0.00     0.036 A 
ATOM     20  C   UNL d   1      19.376 -20.450   2.384  0.00  0.00     0.066 A 
ATOM     21  C   UNL d   1      20.276 -19.640   1.685  0.00  0.00     0.053 A 
BRANCH  20  22
ATOM     22  O   UNL d   1      19.572 -20.608   3.726  0.00  0.00    -0.361 OA
ATOM     23  H   UNL d   1      20.215 -21.320   3.883  0.00  0.00     0.217 HD
ENDBRANCH  20  22
ENDBRANCH   2  16
TORSDOF 4
ENDMDL
MODEL 4
REMARK VINA RESULT:    -7.937      3.612      8.293
REMARK INTER + INTRA:          -9.556
REMARK INTER:                  -9.130
REMARK INTRA:                  -0.426
REMARK CONF_INDEPENDENT:        1.193
REMARK UNBOUND:                -0.426
REMARK  4 active torsions:
REMARK  status: ('A' for Active; 'I' for Inactive)
REMARK       I    between atoms: C_2  and  N_3 
REMARK    1  A    between atoms: C_2  and  C_14 
REMARK    2  A    between atoms: N_3  and  N_4 
REMARK       I    between atoms: N_4  and  C_5 
REMARK    3  A    between atoms: C_5  and  C_7 
REMARK    4  A    between atoms: C_11  and  O_12 
ROOT
ATOM      1  N   UNL d   1      23.649 -18.453  -0.747  0.00  0.00    -0.263 N 
ATOM      2  C   UNL d   1      23.673 -17.072  -0.582  0.00  0.00     0.270 C 
ATOM      3  O   UNL d   1      22.790 -16.460   0.018  0.00  0.00    -0.266 OA
ATOM      4  H   UNL d   1      24.421 -18.991  -1.137  0.00  0.00     0.190 HD
ENDROOT
BRANCH   1   5
ATOM      5  N   UNL d   1      22.568 -19.206  -0.199  0.00  0.00    -0.263 N 
ATOM      6  C   UNL d   1      21.259 -18.822  -0.462  0.00  0.00     0.270 C 
ATOM      7  O   UNL d   1      20.978 -17.844  -1.157  0.00  0.00    -0.266 OA
ATOM      8  H   UNL d   1      22.822 -20.074   0.272  0.00  0.00     0.190 HD
BRANCH   6   9
ATOM      9  C   UNL d   1      20.158 -19.653   0.128  0.00  0.00     0.033 A 
ATOM     10  C   UNL d   1      19.088 -20.075  -0.685  0.00  0.00     0.020 A 
ATOM     11  C   UNL d   1      18.028 -20.822  -0.145  0.00  0.00     0.043 A 
ATOM     12  C   UNL d   1      18.026 -21.129   1.210  0.00  0.00     0.116 A 
ATOM     13  F   UNL d   1      17.015 -21.839   1.729  0.00  0.00    -0.206 F 
ATOM     14  C   UNL d   1      19.061 -20.699   2.034  0.00  0.00     0.043 A 
ATOM     15  C   UNL d   1      20.127 -19.959   1.497  0.00  0.00     0.020 A 
ENDBRANCH   6   9
ENDBRANCH   1   5
BRANCH   2  16
ATOM     16  C   UNL d   1      24.839 -16.326  -1.160  0.00  0.00     0.036 A 
ATOM     17  C   UNL d   1      26.091 -16.325  -0.532  0.00  0.00     0.017 A 
ATOM     18  C   UNL d   1      27.176 -15.647  -1.113  0.00  0.00     0.004 A 
ATOM     19  C   UNL d   1      27.024 -14.969  -2.326  0.00  0.00     0.036 A 
ATOM     20  C   UNL d   1      25.787 -14.992  -2.961  0.00  0.00     0.066 A 
ATOM     21  C   UNL d   1      24.702 -15.669  -2.395  0.00  0.00     0.053 A 
BRANCH  20  22
ATOM     22  O   UNL d   1      25.590 -14.359  -4.155  0.00  0.00    -0.361 OA
ATOM     23  H   UNL d   1      24.644 -14.168  -4.273  0.00  0.00     0.217 HD
ENDBRANCH  20  22
ENDBRANCH   2  16
TORSDOF 4
ENDMDL
MODEL 5
REMARK VINA RESULT:    -7.690      3.466      8.359
REMARK INTER + INTRA:          -9.467
REMARK INTER:                  -8.883
REMARK INTRA:                  -0.584
REMARK CONF_INDEPENDENT:        1.193
REMARK UNBOUND:                -0.584
REMARK  4 active torsions:
REMARK  status: ('A' for Active; 'I' for Inactive)
REMARK       I    between atoms: C_2  and  N_3 
REMARK    1  A    between atoms: C_2  and  C_14 
REMARK    2  A    between atoms: N_3  and  N_4 
REMARK       I    between atoms: N_4  and  C_5 
REMARK    3  A    between atoms: C_5  and  C_7 
REMARK    4  A    between atoms: C_11  and  O_12 
ROOT
ATOM      1  N   UNL d   1      23.304 -16.772  -0.503  0.00  0.00    -0.263 N 
ATOM      2  C   UNL d   1      24.536 -17.405  -0.616  0.00  0.00     0.270 C 
ATOM      3  O   UNL d   1      24.721 -18.568  -0.256  0.00  0.00    -0.266 OA
ATOM      4  H   UNL d   1      23.099 -15.856  -0.897  0.00  0.00     0.190 HD
ENDROOT
BRANCH   1   5
ATOM      5  N   UNL d   1      22.195 -17.486   0.043  0.00  0.00    -0.263 N 
ATOM      6  C   UNL d   1      21.686 -18.588  -0.634  0.00  0.00     0.270 C 
ATOM      7  O   UNL d   1      22.152 -18.988  -1.702  0.00  0.00    -0.266 OA
ATOM      8  H   UNL d   1      21.903 -17.211   0.980  0.00  0.00     0.190 HD
BRANCH   6   9
ATOM      9  C   UNL d   1      20.527 -19.311  -0.014  0.00  0.00     0.033 A 
ATOM     10  C   UNL d   1      20.563 -19.647   1.354  0.00  0.00     0.020 A 
ATOM     11  C   UNL d   1      19.506 -20.358   1.946  0.00  0.00     0.043 A 
ATOM     12  C   UNL d   1      18.424 -20.750   1.169  0.00  0.00     0.116 A 
ATOM     13  F   UNL d   1      17.414 -21.430   1.730  0.00  0.00    -0.206 F 
ATOM     14  C   UNL d   1      18.382 -20.450  -0.189  0.00  0.00     0.043 A 
ATOM     15  C   UNL d   1      19.433 -19.733  -0.783  0.00  0.00     0.020 A 
ENDBRANCH   6   9
ENDBRANCH   1   5
BRANCH   2  16
ATOM     16  C   UNL d   1      25.667 -16.620  -1.212  0.00  0.00     0.036 A 
ATOM     17  C   UNL d   1      26.881 -16.455  -0.532  0.00  0.00     0.017 A 
ATOM     18  C   UNL d   1      27.937 -15.745  -1.128  0.00  0.00     0.004 A 
ATOM     19  C   UNL d   1      27.794 -15.199  -2.406  0.00  0.00     0.036 A 
ATOM     20  C   UNL d   1      26.598 -15.385  -3.090  0.00  0.00     0.066 A 
ATOM     21  C   UNL d   1      25.542 -16.095  -2.510  0.00  0.00     0.053 A 
BRANCH  20  22
ATOM     22  O   UNL d   1      26.413 -14.884  -4.347  0.00  0.00    -0.361 OA
ATOM     23  H   UNL d   1      26.216 -15.609  -4.964  0.00  0.00     0.217 HD
ENDBRANCH  20  22
ENDBRANCH   2  16
TORSDOF 4
ENDMDL
MODEL 6
REMARK VINA RESULT:    -6.393      1.957      2.545
REMARK INTER + INTRA:          -8.321
REMARK INTER:                  -7.586
REMARK INTRA:                  -0.735
REMARK CONF_INDEPENDENT:        1.193
REMARK UNBOUND:                -0.735
REMARK  4 active torsions:
REMARK  status: ('A' for Active; 'I' for Inactive)
REMARK       I    between atoms: C_2  and  N_3 
REMARK    1  A    between atoms: C_2  and  C_14 
REMARK    2  A    between atoms: N_3  and  N_4 
REMARK       I    between atoms: N_4  and  C_5 
REMARK    3  A    between atoms: C_5  and  C_7 
REMARK    4  A    between atoms: C_11  and  O_12 
ROOT
ATOM      1  N   UNL d   1      23.927 -18.310  -0.577  0.00  0.00    -0.263 N 
ATOM      2  C   UNL d   1      22.684 -17.691  -0.654  0.00  0.00     0.270 C 
ATOM      3  O   UNL d   1      22.546 -16.521  -1.012  0.00  0.00    -0.266 OA
ATOM      4  H   UNL d   1      24.055 -19.304  -0.396  0.00  0.00     0.190 HD
ENDROOT
BRANCH   1   5
ATOM      5  N   UNL d   1      25.100 -17.576  -0.929  0.00  0.00    -0.263 N 
ATOM      6  C   UNL d   1      26.205 -17.600  -0.086  0.00  0.00     0.270 C 
ATOM      7  O   UNL d   1      26.225 -18.235   0.969  0.00  0.00    -0.266 OA
ATOM      8  H   UNL d   1      25.102 -17.156  -1.858  0.00  0.00     0.190 HD
BRANCH   6   9
ATOM      9  C   UNL d   1      27.417 -16.822  -0.506  0.00  0.00     0.033 A 
ATOM     10  C   UNL d   1      27.307 -15.442  -0.767  0.00  0.00     0.020 A 
ATOM     11  C   UNL d   1      28.419 -14.702  -1.198  0.00  0.00     0.043 A 
ATOM     12  C   UNL d   1      29.637 -15.343  -1.387  0.00  0.00     0.116 A 
ATOM     13  F   UNL d   1      30.701 -14.641  -1.801  0.00  0.00    -0.206 F 
ATOM     14  C   UNL d   1      29.759 -16.710  -1.160  0.00  0.00     0.043 A 
ATOM     15  C   UNL d   1      28.652 -17.452  -0.721  0.00  0.00     0.020 A 
ENDBRANCH   6   9
ENDBRANCH   1   5
BRANCH   2  16
ATOM     16  C   UNL d   1      21.480 -18.508  -0.291  0.00  0.00     0.036 A 
ATOM     17  C   UNL d   1      20.546 -18.905  -1.258  0.00  0.00     0.017 A 
ATOM     18  C   UNL d   1      19.446 -19.700  -0.897  0.00  0.00     0.004 A 
ATOM     19  C   UNL d   1      19.268 -20.110   0.427  0.00  0.00     0.036 A 
ATOM     20  C   UNL d   1      20.208 -19.736   1.380  0.00  0.00     0.066 A 
ATOM     21  C   UNL d   1      21.312 -18.951   1.032  0.00  0.00     0.053 A 
BRANCH  20  22
ATOM     22  O   UNL d   1      20.089 -20.123   2.685  0.00  0.00    -0.361 OA
ATOM     23  H   UNL d   1      20.953 -20.417   3.021  0.00  0.00     0.217 HD
ENDBRANCH  20  22
ENDBRANCH   2  16
TORSDOF 4
ENDMDL
MODEL 7
REMARK VINA RESULT:    -6.132     11.807     14.496
REMARK INTER + INTRA:          -8.449
REMARK INTER:                  -7.325
REMARK INTRA:                  -1.124
REMARK CONF_INDEPENDENT:        1.193
REMARK UNBOUND:                -1.124
REMARK  4 active torsions:
REMARK  status: ('A' for Active; 'I' for Inactive)
REMARK       I    between atoms: C_2  and  N_3 
REMARK    1  A    between atoms: C_2  and  C_14 
REMARK    2  A    between atoms: N_3  and  N_4 
REMARK       I    between atoms: N_4  and  C_5 
REMARK    3  A    between atoms: C_5  and  C_7 
REMARK    4  A    between atoms: C_11  and  O_12 
ROOT
ATOM      1  N   UNL d   1      33.364 -21.846   7.149  0.00  0.00    -0.263 N 
ATOM      2  C   UNL d   1      34.583 -22.477   7.371  0.00  0.00     0.270 C 
ATOM      3  O   UNL d   1      35.156 -23.137   6.504  0.00  0.00    -0.266 OA
ATOM      4  H   UNL d   1      32.929 -21.204   7.810  0.00  0.00     0.190 HD
ENDROOT
BRANCH   1   5
ATOM      5  N   UNL d   1      32.742 -21.950   5.869  0.00  0.00    -0.263 N 
ATOM      6  C   UNL d   1      31.446 -21.481   5.694  0.00  0.00     0.270 C 
ATOM      7  O   UNL d   1      30.793 -20.970   6.605  0.00  0.00    -0.266 OA
ATOM      8  H   UNL d   1      33.340 -22.267   5.106  0.00  0.00     0.190 HD
BRANCH   6   9
ATOM      9  C   UNL d   1      30.840 -21.603   4.326  0.00  0.00     0.033 A 
ATOM     10  C   UNL d   1      29.482 -21.950   4.191  0.00  0.00     0.020 A 
ATOM     11  C   UNL d   1      28.905 -22.107   2.920  0.00  0.00     0.043 A 
ATOM     12  C   UNL d   1      29.688 -21.937   1.786  0.00  0.00     0.116 A 
ATOM     13  F   UNL d   1      29.142 -22.089   0.572  0.00  0.00    -0.206 F 
ATOM     14  C   UNL d   1      31.038 -21.620   1.900  0.00  0.00     0.043 A 
ATOM     15  C   UNL d   1      31.617 -21.454   3.167  0.00  0.00     0.020 A 
ENDBRANCH   6   9
ENDBRANCH   1   5
BRANCH   2  16
ATOM     16  C   UNL d   1      35.205 -22.325   8.727  0.00  0.00     0.036 A 
ATOM     17  C   UNL d   1      35.773 -23.416   9.398  0.00  0.00     0.017 A 
ATOM     18  C   UNL d   1      36.383 -23.239  10.652  0.00  0.00     0.004 A 
ATOM     19  C   UNL d   1      36.435 -21.975  11.245  0.00  0.00     0.036 A 
ATOM     20  C   UNL d   1      35.894 -20.889  10.567  0.00  0.00     0.066 A 
ATOM     21  C   UNL d   1      35.291 -21.051   9.315  0.00  0.00     0.053 A 
BRANCH  20  22
ATOM     22  O   UNL d   1      35.933 -19.630  11.096  0.00  0.00    -0.361 OA
ATOM     23  H   UNL d   1      35.363 -19.037  10.576  0.00  0.00     0.217 HD
ENDBRANCH  20  22
ENDBRANCH   2  16
TORSDOF 4
ENDMDL
MODEL 8
REMARK VINA RESULT:    -5.957      6.024     10.045
REMARK INTER + INTRA:          -8.327
REMARK INTER:                  -7.150
REMARK INTRA:                  -1.177
REMARK CONF_INDEPENDENT:        1.193
REMARK UNBOUND:                -1.177
REMARK  4 active torsions:
REMARK  status: ('A' for Active; 'I' for Inactive)
REMARK       I    between atoms: C_2  and  N_3 
REMARK    1  A    between atoms: C_2  and  C_14 
REMARK    2  A    between atoms: N_3  and  N_4 
REMARK       I    between atoms: N_4  and  C_5 
REMARK    3  A    between atoms: C_5  and  C_7 
REMARK    4  A    between atoms: C_11  and  O_12 
ROOT
ATOM      1  N   UNL d   1      25.279 -12.099  -3.568  0.00  0.00    -0.263 N 
ATOM      2  C   UNL d   1      25.892 -10.880  -3.302  0.00  0.00     0.270 C 
ATOM      3  O   UNL d   1      26.638 -10.709  -2.338  0.00  0.00    -0.266 OA
ATOM      4  H   UNL d   1      24.753 -12.295  -4.418  0.00  0.00     0.190 HD
ENDROOT
BRANCH   1   5
ATOM      5  N   UNL d   1      25.518 -13.209  -2.703  0.00  0.00    -0.263 N 
ATOM      6  C   UNL d   1      25.235 -14.496  -3.143  0.00  0.00     0.270 C 
ATOM      7  O   UNL d   1      24.780 -14.734  -4.263  0.00  0.00    -0.266 OA
ATOM      8  H   UNL d   1      26.002 -13.000  -1.831  0.00  0.00     0.190 HD
BRANCH   6   9
ATOM      9  C   UNL d   1      25.515 -15.630  -2.201  0.00  0.00     0.033 A 
ATOM     10  C   UNL d   1      24.445 -16.356  -1.642  0.00  0.00     0.020 A 
ATOM     11  C   UNL d   1      24.682 -17.396  -0.729  0.00  0.00     0.043 A 
ATOM     12  C   UNL d   1      25.986 -17.698  -0.358  0.00  0.00     0.116 A 
ATOM     13  F   UNL d   1      26.217 -18.688   0.515  0.00  0.00    -0.206 F 
ATOM     14  C   UNL d   1      27.055 -16.976  -0.879  0.00  0.00     0.043 A 
ATOM     15  C   UNL d   1      26.823 -15.941  -1.798  0.00  0.00     0.020 A 
ENDBRANCH   6   9
ENDBRANCH   1   5
BRANCH   2  16
ATOM     16  C   UNL d   1      25.624  -9.748  -4.249  0.00  0.00     0.036 A 
ATOM     17  C   UNL d   1      25.759  -9.906  -5.635  0.00  0.00     0.017 A 
ATOM     18  C   UNL d   1      25.467  -8.840  -6.503  0.00  0.00     0.004 A 
ATOM     19  C   UNL d   1      25.033  -7.611  -5.998  0.00  0.00     0.036 A 
ATOM     20  C   UNL d   1      24.875  -7.464  -4.625  0.00  0.00     0.066 A 
ATOM     21  C   UNL d   1      25.156  -8.519  -3.752  0.00  0.00     0.053 A 
BRANCH  20  22
ATOM     22  O   UNL d   1      24.440  -6.288  -4.082  0.00  0.00    -0.361 OA
ATOM     23  H   UNL d   1      23.995  -6.462  -3.235  0.00  0.00     0.217 HD
ENDBRANCH  20  22
ENDBRANCH   2  16
TORSDOF 4
ENDMDL
MODEL 9
REMARK VINA RESULT:    -5.926      3.559      5.139
REMARK INTER + INTRA:          -8.322
REMARK INTER:                  -7.119
REMARK INTRA:                  -1.203
REMARK CONF_INDEPENDENT:        1.193
REMARK UNBOUND:                -1.203
REMARK  4 active torsions:
REMARK  status: ('A' for Active; 'I' for Inactive)
REMARK       I    between atoms: C_2  and  N_3 
REMARK    1  A    between atoms: C_2  and  C_14 
REMARK    2  A    between atoms: N_3  and  N_4 
REMARK       I    between atoms: N_4  and  C_5 
REMARK    3  A    between atoms: C_5  and  C_7 
REMARK    4  A    between atoms: C_11  and  O_12 
ROOT
ATOM      1  N   UNL d   1      24.694 -15.519  -2.284  0.00  0.00    -0.263 N 
ATOM      2  C   UNL d   1      24.575 -16.042  -1.001  0.00  0.00     0.270 C 
ATOM      3  O   UNL d   1      25.178 -15.574  -0.035  0.00  0.00    -0.266 OA
ATOM      4  H   UNL d   1      24.121 -15.814  -3.072  0.00  0.00     0.190 HD
ENDROOT
BRANCH   1   5
ATOM      5  N   UNL d   1      25.539 -14.390  -2.506  0.00  0.00    -0.263 N 
ATOM      6  C   UNL d   1      25.497 -13.730  -3.728  0.00  0.00     0.270 C 
ATOM      7  O   UNL d   1      24.754 -14.075  -4.647  0.00  0.00    -0.266 OA
ATOM      8  H   UNL d   1      26.057 -14.053  -1.695  0.00  0.00     0.190 HD
BRANCH   6   9
ATOM      9  C   UNL d   1      26.397 -12.542  -3.908  0.00  0.00     0.033 A 
ATOM     10  C   UNL d   1      26.623 -11.665  -2.829  0.00  0.00     0.020 A 
ATOM     11  C   UNL d   1      27.431 -10.527  -2.986  0.00  0.00     0.043 A 
ATOM     12  C   UNL d   1      27.996 -10.254  -4.225  0.00  0.00     0.116 A 
ATOM     13  F   UNL d   1      28.765  -9.168  -4.380  0.00  0.00    -0.206 F 
ATOM     14  C   UNL d   1      27.763 -11.094  -5.309  0.00  0.00     0.043 A 
ATOM     15  C   UNL d   1      26.963 -12.237  -5.155  0.00  0.00     0.020 A 
ENDBRANCH   6   9
ENDBRANCH   1   5
BRANCH   2  16
ATOM     16  C   UNL d   1      23.662 -17.217  -0.814  0.00  0.00     0.036 A 
ATOM     17  C   UNL d   1      24.155 -18.475  -0.443  0.00  0.00     0.017 A 
ATOM     18  C   UNL d   1      23.275 -19.551  -0.240  0.00  0.00     0.004 A 
ATOM     19  C   UNL d   1      21.897 -19.382  -0.399  0.00  0.00     0.036 A 
ATOM     20  C   UNL d   1      21.406 -18.127  -0.742  0.00  0.00     0.066 A 
ATOM     21  C   UNL d   1      22.272 -17.047  -0.941  0.00  0.00     0.053 A 
BRANCH  20  22
ATOM     22  O   UNL d   1      20.068 -17.905  -0.895  0.00  0.00    -0.361 OA
ATOM     23  H   UNL d   1      19.924 -17.189  -1.537  0.00  0.00     0.217 HD
ENDBRANCH  20  22
ENDBRANCH   2  16
TORSDOF 4
ENDMDL
