MODEL 1
REMARK VINA RESULT:   -10.181      0.000      0.000
REMARK INTER + INTRA:         -13.094
REMARK INTER:                 -11.971
REMARK INTRA:                  -1.123
REMARK CONF_INDEPENDENT:        1.790
REMARK UNBOUND:                -1.123
REMARK  6 active torsions:
REMARK  status: ('A' for Active; 'I' for Inactive)
REMARK    1  A    between atoms: S_2  and  C_3 
REMARK    2  A    between atoms: C_6  and  N_7 
REMARK       I    between atoms: N_7  and  C_8 
REMARK    3  A    between atoms: C_8  and  C_10 
REMARK    4  A    between atoms: C_14  and  S_15 
REMARK    5  A    between atoms: S_15  and  N_18 
REMARK    6  A    between atoms: N_18  and  C_19 
ROOT
ATOM      1  C   UNL d   1      25.343 -17.391  -1.226  0.00  0.00     0.033 A 
ATOM      2  C   UNL d   1      26.607 -17.346  -0.614  0.00  0.00     0.017 A 
ATOM      3  C   UNL d   1      27.629 -16.571  -1.156  0.00  0.00     0.003 A 
ATOM      4  C   UNL d   1      27.403 -15.870  -2.335  0.00  0.00     0.025 A 
ATOM      5  C   UNL d   1      26.129 -15.893  -2.927  0.00  0.00     0.080 A 
ATOM      6  C   UNL d   1      25.098 -16.664  -2.386  0.00  0.00     0.042 A 
ENDROOT
BRANCH   5   7
ATOM      7  S   UNL d   1      25.902 -14.872  -4.359  0.00  0.00     0.263 S 
ATOM      8  O   UNL d   1      25.990 -15.731  -5.518  0.00  0.00    -0.200 OA
ATOM      9  O   UNL d   1      24.695 -14.130  -4.063  0.00  0.00    -0.200 OA
BRANCH   7  10
ATOM     10  N   UNL d   1      27.252 -13.841  -4.424  0.00  0.00    -0.281 N 
ATOM     11  H   UNL d   1      27.124 -12.845  -4.312  0.00  0.00     0.179 HD
BRANCH  10  12
ATOM     12  C   UNL d   1      28.309 -14.174  -5.313  0.00  0.00     0.044 C 
ATOM     13  C   UNL d   1      28.532 -13.471  -6.488  0.00  0.00     0.029 C 
ATOM     14  C   UNL d   1      29.650 -13.840  -7.268  0.00  0.00     0.024 C 
ATOM     15  C   UNL d   1      30.333 -15.029  -6.944  0.00  0.00     0.171 C 
ATOM     16  C   UNL d   1      29.656 -15.952  -6.213  0.00  0.00     0.093 C 
ATOM     17  O   UNL d   1      31.645 -15.100  -6.331  0.00  0.00    -0.341 OA
ATOM     18  C   UNL d   1      28.905 -15.414  -5.191  0.00  0.00     0.066 C 
ATOM     19  O   UNL d   1      30.413 -17.068  -5.952  0.00  0.00    -0.327 OA
ATOM     20  C   UNL d   1      31.533 -16.323  -5.498  0.00  0.00     0.346 C 
ENDBRANCH  10  12
ENDBRANCH   7  10
ENDBRANCH   5   7
BRANCH   1  21
ATOM     21  C   UNL d   1      24.236 -18.005  -0.450  0.00  0.00     0.256 C 
ATOM     22  N   UNL d   1      22.995 -18.163  -1.086  0.00  0.00    -0.323 N 
ATOM     23  H   UNL d   1      22.895 -17.889  -2.053  0.00  0.00     0.169 HD
ATOM     24  O   UNL d   1      24.516 -18.288   0.688  0.00  0.00    -0.267 OA
BRANCH  22  25
ATOM     25  C   UNL d   1      21.837 -18.684  -0.439  0.00  0.00     0.035 A 
ATOM     26  C   UNL d   1      21.751 -18.697   0.958  0.00  0.00     0.031 A 
ATOM     27  C   UNL d   1      20.653 -19.319   1.598  0.00  0.00     0.021 A 
ATOM     28  C   UNL d   1      19.583 -19.852   0.862  0.00  0.00    -0.000 A 
ATOM     29  C   UNL d   1      19.668 -19.806  -0.521  0.00  0.00     0.021 A 
ATOM     30  C   UNL d   1      20.770 -19.227  -1.152  0.00  0.00     0.031 A 
BRANCH  28  31
ATOM     31  S   UNL d   1      18.169 -20.535   1.719  0.00  0.00    -0.134 SA
ATOM     32  C   UNL d   1      17.655 -21.926   0.651  0.00  0.00     0.095 C 
ENDBRANCH  28  31
ENDBRANCH  22  25
ENDBRANCH   1  21
TORSDOF 6
ENDMDL
MODEL 2
REMARK VINA RESULT:   -10.013      2.512      3.731
REMARK INTER + INTRA:         -12.914
REMARK INTER:                 -11.803
REMARK INTRA:                  -1.111
REMARK CONF_INDEPENDENT:        1.790
REMARK UNBOUND:                -1.111
REMARK  6 active torsions:
REMARK  status: ('A' for Active; 'I' for Inactive)
REMARK    1  A    between atoms: S_2  and  C_3 
REMARK    2  A    between atoms: C_6  and  N_7 
REMARK       I    between atoms: N_7  and  C_8 
REMARK    3  A    between atoms: C_8  and  C_10 
REMARK    4  A    between atoms: C_14  and  S_15 
REMARK    5  A    between atoms: S_15  and  N_18 
REMARK    6  A    between atoms: N_18  and  C_19 
ROOT
ATOM      1  C   UNL d   1      25.248 -17.007  -1.153  0.00  0.00     0.033 A 
ATOM      2  C   UNL d   1      26.384 -16.623  -0.423  0.00  0.00     0.017 A 
ATOM      3  C   UNL d   1      27.305 -15.728  -0.962  0.00  0.00     0.003 A 
ATOM      4  C   UNL d   1      27.112 -15.243  -2.251  0.00  0.00     0.025 A 
ATOM      5  C   UNL d   1      25.958 -15.605  -2.967  0.00  0.00     0.080 A 
ATOM      6  C   UNL d   1      25.029 -16.498  -2.429  0.00  0.00     0.042 A 
ENDROOT
BRANCH   5   7
ATOM      7  S   UNL d   1      25.738 -14.843  -4.553  0.00  0.00     0.263 S 
ATOM      8  O   UNL d   1      26.015 -15.848  -5.554  0.00  0.00    -0.200 OA
ATOM      9  O   UNL d   1      24.436 -14.219  -4.455  0.00  0.00    -0.200 OA
BRANCH   7  10
ATOM     10  N   UNL d   1      26.967 -13.676  -4.692  0.00  0.00    -0.281 N 
ATOM     11  H   UNL d   1      27.898 -13.892  -4.362  0.00  0.00     0.179 HD
BRANCH  10  12
ATOM     12  C   UNL d   1      26.616 -12.310  -4.527  0.00  0.00     0.044 C 
ATOM     13  C   UNL d   1      26.204 -11.797  -3.305  0.00  0.00     0.029 C 
ATOM     14  C   UNL d   1      25.943 -10.411  -3.233  0.00  0.00     0.024 C 
ATOM     15  C   UNL d   1      25.888  -9.674  -4.432  0.00  0.00     0.171 C 
ATOM     16  C   UNL d   1      25.658 -10.369  -5.575  0.00  0.00     0.093 C 
ATOM     17  O   UNL d   1      26.892  -8.729  -4.881  0.00  0.00    -0.341 OA
ATOM     18  C   UNL d   1      26.347 -11.559  -5.654  0.00  0.00     0.066 C 
ATOM     19  O   UNL d   1      25.625  -9.557  -6.683  0.00  0.00    -0.327 OA
ATOM     20  C   UNL d   1      26.839  -8.896  -6.355  0.00  0.00     0.346 C 
ENDBRANCH  10  12
ENDBRANCH   7  10
ENDBRANCH   5   7
BRANCH   1  21
ATOM     21  C   UNL d   1      24.182 -17.734  -0.418  0.00  0.00     0.256 C 
ATOM     22  N   UNL d   1      22.950 -17.923  -1.061  0.00  0.00    -0.323 N 
ATOM     23  H   UNL d   1      22.829 -17.593  -2.008  0.00  0.00     0.169 HD
ATOM     24  O   UNL d   1      24.485 -18.072   0.700  0.00  0.00    -0.267 OA
BRANCH  22  25
ATOM     25  C   UNL d   1      21.828 -18.552  -0.448  0.00  0.00     0.035 A 
ATOM     26  C   UNL d   1      21.717 -18.601   0.947  0.00  0.00     0.031 A 
ATOM     27  C   UNL d   1      20.664 -19.326   1.553  0.00  0.00     0.021 A 
ATOM     28  C   UNL d   1      19.656 -19.932   0.785  0.00  0.00    -0.000 A 
ATOM     29  C   UNL d   1      19.763 -19.850  -0.595  0.00  0.00     0.021 A 
ATOM     30  C   UNL d   1      20.824 -19.168  -1.192  0.00  0.00     0.031 A 
BRANCH  28  31
ATOM     31  S   UNL d   1      18.289 -20.749   1.600  0.00  0.00    -0.134 SA
ATOM     32  C   UNL d   1      17.408 -21.575   0.229  0.00  0.00     0.095 C 
ENDBRANCH  28  31
ENDBRANCH  22  25
ENDBRANCH   1  21
TORSDOF 6
ENDMDL
MODEL 3
REMARK VINA RESULT:    -9.865      1.885      2.501
REMARK INTER + INTRA:         -12.659
REMARK INTER:                 -11.655
REMARK INTRA:                  -1.004
REMARK CONF_INDEPENDENT:        1.790
REMARK UNBOUND:                -1.004
REMARK  6 active torsions:
REMARK  status: ('A' for Active; 'I' for Inactive)
REMARK    1  A    between atoms: S_2  and  C_3 
REMARK    2  A    between atoms: C_6  and  N_7 
REMARK       I    between atoms: N_7  and  C_8 
REMARK    3  A    between atoms: C_8  and  C_10 
REMARK    4  A    between atoms: C_14  and  S_15 
REMARK    5  A    between atoms: S_15  and  N_18 
REMARK    6  A    between atoms: N_18  and  C_19 
ROOT
ATOM      1  C   UNL d   1      25.344 -17.368  -1.270  0.00  0.00     0.033 A 
ATOM      2  C   UNL d   1      26.610 -17.324  -0.663  0.00  0.00     0.017 A 
ATOM      3  C   UNL d   1      27.625 -16.533  -1.194  0.00  0.00     0.003 A 
ATOM      4  C   UNL d   1      27.389 -15.812  -2.360  0.00  0.00     0.025 A 
ATOM      5  C   UNL d   1      26.113 -15.834  -2.947  0.00  0.00     0.080 A 
ATOM      6  C   UNL d   1      25.090 -16.621  -2.416  0.00  0.00     0.042 A 
ENDROOT
BRANCH   5   7
ATOM      7  S   UNL d   1      25.874 -14.789  -4.360  0.00  0.00     0.263 S 
ATOM      8  O   UNL d   1      26.428 -15.478  -5.503  0.00  0.00    -0.200 OA
ATOM      9  O   UNL d   1      24.469 -14.445  -4.297  0.00  0.00    -0.200 OA
BRANCH   7  10
ATOM     10  N   UNL d   1      26.850 -13.420  -4.107  0.00  0.00    -0.281 N 
ATOM     11  H   UNL d   1      26.859 -12.976  -3.199  0.00  0.00     0.179 HD
BRANCH  10  12
ATOM     12  C   UNL d   1      27.015 -12.505  -5.181  0.00  0.00     0.044 C 
ATOM     13  C   UNL d   1      26.116 -11.473  -5.414  0.00  0.00     0.029 C 
ATOM     14  C   UNL d   1      26.408 -10.579  -6.467  0.00  0.00     0.024 C 
ATOM     15  C   UNL d   1      27.448 -10.906  -7.359  0.00  0.00     0.171 C 
ATOM     16  C   UNL d   1      27.814 -12.212  -7.430  0.00  0.00     0.093 C 
ATOM     17  O   UNL d   1      28.742 -10.253  -7.411  0.00  0.00    -0.341 OA
ATOM     18  C   UNL d   1      27.874 -12.843  -6.207  0.00  0.00     0.066 C 
ATOM     19  O   UNL d   1      28.835 -12.420  -8.326  0.00  0.00    -0.327 OA
ATOM     20  C   UNL d   1      29.637 -11.370  -7.804  0.00  0.00     0.346 C 
ENDBRANCH  10  12
ENDBRANCH   7  10
ENDBRANCH   5   7
BRANCH   1  21
ATOM     21  C   UNL d   1      24.244 -18.004  -0.502  0.00  0.00     0.256 C 
ATOM     22  N   UNL d   1      22.971 -18.049  -1.091  0.00  0.00    -0.323 N 
ATOM     23  H   UNL d   1      22.842 -17.683  -2.024  0.00  0.00     0.169 HD
ATOM     24  O   UNL d   1      24.559 -18.401   0.592  0.00  0.00    -0.267 OA
BRANCH  22  25
ATOM     25  C   UNL d   1      21.819 -18.579  -0.440  0.00  0.00     0.035 A 
ATOM     26  C   UNL d   1      21.748 -18.613   0.958  0.00  0.00     0.031 A 
ATOM     27  C   UNL d   1      20.656 -19.244   1.600  0.00  0.00     0.021 A 
ATOM     28  C   UNL d   1      19.577 -19.763   0.867  0.00  0.00    -0.000 A 
ATOM     29  C   UNL d   1      19.647 -19.696  -0.516  0.00  0.00     0.021 A 
ATOM     30  C   UNL d   1      20.743 -19.109  -1.150  0.00  0.00     0.031 A 
BRANCH  28  31
ATOM     31  S   UNL d   1      18.171 -20.458   1.729  0.00  0.00    -0.134 SA
ATOM     32  C   UNL d   1      17.753 -21.936   0.738  0.00  0.00     0.095 C 
ENDBRANCH  28  31
ENDBRANCH  22  25
ENDBRANCH   1  21
TORSDOF 6
ENDMDL
MODEL 4
REMARK VINA RESULT:    -9.367      2.789     10.610
REMARK INTER + INTRA:         -12.154
REMARK INTER:                 -11.157
REMARK INTRA:                  -0.997
REMARK CONF_INDEPENDENT:        1.790
REMARK UNBOUND:                -0.997
REMARK  6 active torsions:
REMARK  status: ('A' for Active; 'I' for Inactive)
REMARK    1  A    between atoms: S_2  and  C_3 
REMARK    2  A    between atoms: C_6  and  N_7 
REMARK       I    between atoms: N_7  and  C_8 
REMARK    3  A    between atoms: C_8  and  C_10 
REMARK    4  A    between atoms: C_14  and  S_15 
REMARK    5  A    between atoms: S_15  and  N_18 
REMARK    6  A    between atoms: N_18  and  C_19 
ROOT
ATOM      1  C   UNL d   1      27.199 -16.692  -1.124  0.00  0.00     0.033 A 
ATOM      2  C   UNL d   1      27.695 -17.370   0.002  0.00  0.00     0.017 A 
ATOM      3  C   UNL d   1      26.846 -18.130   0.803  0.00  0.00     0.003 A 
ATOM      4  C   UNL d   1      25.489 -18.181   0.503  0.00  0.00     0.025 A 
ATOM      5  C   UNL d   1      25.002 -17.527  -0.641  0.00  0.00     0.080 A 
ATOM      6  C   UNL d   1      25.849 -16.768  -1.451  0.00  0.00     0.042 A 
ENDROOT
BRANCH   5   7
ATOM      7  S   UNL d   1      23.281 -17.750  -1.008  0.00  0.00     0.263 S 
ATOM      8  O   UNL d   1      22.647 -16.457  -0.898  0.00  0.00    -0.200 OA
ATOM      9  O   UNL d   1      23.291 -18.478  -2.260  0.00  0.00    -0.200 OA
BRANCH   7  10
ATOM     10  N   UNL d   1      22.648 -18.704   0.249  0.00  0.00    -0.281 N 
ATOM     11  H   UNL d   1      23.255 -19.346   0.740  0.00  0.00     0.179 HD
BRANCH  10  12
ATOM     12  C   UNL d   1      21.313 -19.173   0.128  0.00  0.00     0.044 C 
ATOM     13  C   UNL d   1      20.629 -19.147  -1.079  0.00  0.00     0.029 C 
ATOM     14  C   UNL d   1      19.330 -19.700  -1.105  0.00  0.00     0.024 C 
ATOM     15  C   UNL d   1      18.714 -20.029   0.118  0.00  0.00     0.171 C 
ATOM     16  C   UNL d   1      19.192 -19.422   1.235  0.00  0.00     0.093 C 
ATOM     17  O   UNL d   1      18.495 -21.376   0.609  0.00  0.00    -0.341 OA
ATOM     18  C   UNL d   1      20.566 -19.334   1.279  0.00  0.00     0.066 C 
ATOM     19  O   UNL d   1      18.525 -19.815   2.370  0.00  0.00    -0.327 OA
ATOM     20  C   UNL d   1      18.640 -21.200   2.076  0.00  0.00     0.346 C 
ENDBRANCH  10  12
ENDBRANCH   7  10
ENDBRANCH   5   7
BRANCH   1  21
ATOM     21  C   UNL d   1      28.195 -16.139  -2.076  0.00  0.00     0.256 C 
ATOM     22  N   UNL d   1      27.796 -15.950  -3.408  0.00  0.00    -0.323 N 
ATOM     23  H   UNL d   1      26.846 -16.160  -3.677  0.00  0.00     0.169 HD
ATOM     24  O   UNL d   1      29.283 -15.931  -1.600  0.00  0.00    -0.267 OA
BRANCH  22  25
ATOM     25  C   UNL d   1      28.669 -15.482  -4.433  0.00  0.00     0.035 A 
ATOM     26  C   UNL d   1      29.966 -15.996  -4.551  0.00  0.00     0.031 A 
ATOM     27  C   UNL d   1      30.867 -15.448  -5.494  0.00  0.00     0.021 A 
ATOM     28  C   UNL d   1      30.465 -14.450  -6.395  0.00  0.00    -0.000 A 
ATOM     29  C   UNL d   1      29.168 -13.970  -6.287  0.00  0.00     0.021 A 
ATOM     30  C   UNL d   1      28.292 -14.484  -5.330  0.00  0.00     0.031 A 
BRANCH  28  31
ATOM     31  S   UNL d   1      31.610 -13.863  -7.638  0.00  0.00    -0.134 SA
ATOM     32  C   UNL d   1      32.278 -15.402  -8.362  0.00  0.00     0.095 C 
ENDBRANCH  28  31
ENDBRANCH  22  25
ENDBRANCH   1  21
TORSDOF 6
ENDMDL
MODEL 5
REMARK VINA RESULT:    -9.352      5.380      9.215
REMARK INTER + INTRA:         -12.156
REMARK INTER:                 -11.142
REMARK INTRA:                  -1.014
REMARK CONF_INDEPENDENT:        1.790
REMARK UNBOUND:                -1.014
REMARK  6 active torsions:
REMARK  status: ('A' for Active; 'I' for Inactive)
REMARK    1  A    between atoms: S_2  and  C_3 
REMARK    2  A    between atoms: C_6  and  N_7 
REMARK       I    between atoms: N_7  and  C_8 
REMARK    3  A    between atoms: C_8  and  C_10 
REMARK    4  A    between atoms: C_14  and  S_15 
REMARK    5  A    between atoms: S_15  and  N_18 
REMARK    6  A    between atoms: N_18  and  C_19 
ROOT
ATOM      1  C   UNL d   1      27.461 -14.856   0.812  0.00  0.00     0.033 A 
ATOM      2  C   UNL d   1      28.677 -14.985   0.121  0.00  0.00     0.017 A 
ATOM      3  C   UNL d   1      28.696 -15.375  -1.216  0.00  0.00     0.003 A 
ATOM      4  C   UNL d   1      27.498 -15.676  -1.856  0.00  0.00     0.025 A 
ATOM      5  C   UNL d   1      26.282 -15.516  -1.171  0.00  0.00     0.080 A 
ATOM      6  C   UNL d   1      26.256 -15.121   0.168  0.00  0.00     0.042 A 
ENDROOT
BRANCH   5   7
ATOM      7  S   UNL d   1      24.803 -15.807  -2.106  0.00  0.00     0.263 S 
ATOM      8  O   UNL d   1      24.528 -14.605  -2.860  0.00  0.00    -0.200 OA
ATOM      9  O   UNL d   1      25.060 -17.068  -2.769  0.00  0.00    -0.200 OA
BRANCH   7  10
ATOM     10  N   UNL d   1      23.548 -15.958  -0.970  0.00  0.00    -0.281 N 
ATOM     11  H   UNL d   1      23.526 -15.345  -0.167  0.00  0.00     0.179 HD
BRANCH  10  12
ATOM     12  C   UNL d   1      23.042 -17.257  -0.697  0.00  0.00     0.044 C 
ATOM     13  C   UNL d   1      23.879 -18.341  -0.475  0.00  0.00     0.029 C 
ATOM     14  C   UNL d   1      23.275 -19.575  -0.145  0.00  0.00     0.024 C 
ATOM     15  C   UNL d   1      21.879 -19.700  -0.286  0.00  0.00     0.171 C 
ATOM     16  C   UNL d   1      21.259 -18.817  -1.112  0.00  0.00     0.093 C 
ATOM     17  O   UNL d   1      20.930 -19.767   0.809  0.00  0.00    -0.341 OA
ATOM     18  C   UNL d   1      21.720 -17.525  -0.996  0.00  0.00     0.066 C 
ATOM     19  O   UNL d   1      19.903 -19.026  -1.175  0.00  0.00    -0.327 OA
ATOM     20  C   UNL d   1      19.746 -19.078   0.236  0.00  0.00     0.346 C 
ENDBRANCH  10  12
ENDBRANCH   7  10
ENDBRANCH   5   7
BRANCH   1  21
ATOM     21  C   UNL d   1      27.499 -14.177   2.131  0.00  0.00     0.256 C 
ATOM     22  N   UNL d   1      28.365 -14.687   3.109  0.00  0.00    -0.323 N 
ATOM     23  H   UNL d   1      28.959 -15.473   2.886  0.00  0.00     0.169 HD
ATOM     24  O   UNL d   1      26.738 -13.247   2.239  0.00  0.00    -0.267 OA
BRANCH  22  25
ATOM     25  C   UNL d   1      28.456 -14.164   4.432  0.00  0.00     0.035 A 
ATOM     26  C   UNL d   1      29.214 -14.825   5.406  0.00  0.00     0.031 A 
ATOM     27  C   UNL d   1      29.209 -14.369   6.745  0.00  0.00     0.021 A 
ATOM     28  C   UNL d   1      28.529 -13.198   7.116  0.00  0.00    -0.000 A 
ATOM     29  C   UNL d   1      27.806 -12.536   6.135  0.00  0.00     0.021 A 
ATOM     30  C   UNL d   1      27.780 -13.010   4.823  0.00  0.00     0.031 A 
BRANCH  28  31
ATOM     31  S   UNL d   1      28.638 -12.604   8.800  0.00  0.00    -0.134 SA
ATOM     32  C   UNL d   1      28.617 -14.138   9.794  0.00  0.00     0.095 C 
ENDBRANCH  28  31
ENDBRANCH  22  25
ENDBRANCH   1  21
TORSDOF 6
ENDMDL
MODEL 6
REMARK VINA RESULT:    -9.093      4.988      8.655
REMARK INTER + INTRA:         -12.093
REMARK INTER:                 -10.883
REMARK INTRA:                  -1.210
REMARK CONF_INDEPENDENT:        1.790
REMARK UNBOUND:                -1.210
REMARK  6 active torsions:
REMARK  status: ('A' for Active; 'I' for Inactive)
REMARK    1  A    between atoms: S_2  and  C_3 
REMARK    2  A    between atoms: C_6  and  N_7 
REMARK       I    between atoms: N_7  and  C_8 
REMARK    3  A    between atoms: C_8  and  C_10 
REMARK    4  A    between atoms: C_14  and  S_15 
REMARK    5  A    between atoms: S_15  and  N_18 
REMARK    6  A    between atoms: N_18  and  C_19 
ROOT
ATOM      1  C   UNL d   1      27.194 -12.713  -0.300  0.00  0.00     0.033 A 
ATOM      2  C   UNL d   1      27.412 -11.527  -1.021  0.00  0.00     0.017 A 
ATOM      3  C   UNL d   1      26.953 -11.398  -2.329  0.00  0.00     0.003 A 
ATOM      4  C   UNL d   1      26.309 -12.471  -2.936  0.00  0.00     0.025 A 
ATOM      5  C   UNL d   1      26.066 -13.644  -2.203  0.00  0.00     0.080 A 
ATOM      6  C   UNL d   1      26.518 -13.778  -0.888  0.00  0.00     0.042 A 
ENDROOT
BRANCH   5   7
ATOM      7  S   UNL d   1      25.131 -14.910  -3.021  0.00  0.00     0.263 S 
ATOM      8  O   UNL d   1      23.774 -14.827  -2.531  0.00  0.00    -0.200 OA
ATOM      9  O   UNL d   1      25.438 -14.710  -4.421  0.00  0.00    -0.200 OA
BRANCH   7  10
ATOM     10  N   UNL d   1      25.752 -16.391  -2.464  0.00  0.00    -0.281 N 
ATOM     11  H   UNL d   1      26.287 -16.975  -3.093  0.00  0.00     0.179 HD
BRANCH  10  12
ATOM     12  C   UNL d   1      24.982 -17.132  -1.528  0.00  0.00     0.044 C 
ATOM     13  C   UNL d   1      25.473 -17.473  -0.276  0.00  0.00     0.029 C 
ATOM     14  C   UNL d   1      24.602 -18.153   0.604  0.00  0.00     0.024 C 
ATOM     15  C   UNL d   1      23.386 -18.649   0.096  0.00  0.00     0.171 C 
ATOM     16  C   UNL d   1      23.305 -18.832  -1.247  0.00  0.00     0.093 C 
ATOM     17  O   UNL d   1      22.074 -18.097   0.379  0.00  0.00    -0.341 OA
ATOM     18  C   UNL d   1      23.875 -17.818  -1.985  0.00  0.00     0.066 C 
ATOM     19  O   UNL d   1      22.078 -19.315  -1.635  0.00  0.00    -0.327 OA
ATOM     20  C   UNL d   1      21.352 -18.345  -0.895  0.00  0.00     0.346 C 
ENDBRANCH  10  12
ENDBRANCH   7  10
ENDBRANCH   5   7
BRANCH   1  21
ATOM     21  C   UNL d   1      27.459 -12.679   1.160  0.00  0.00     0.256 C 
ATOM     22  N   UNL d   1      28.143 -13.762   1.731  0.00  0.00    -0.323 N 
ATOM     23  H   UNL d   1      28.464 -14.515   1.138  0.00  0.00     0.169 HD
ATOM     24  O   UNL d   1      27.021 -11.708   1.727  0.00  0.00    -0.267 OA
BRANCH  22  25
ATOM     25  C   UNL d   1      28.411 -13.880   3.126  0.00  0.00     0.035 A 
ATOM     26  C   UNL d   1      27.404 -13.627   4.065  0.00  0.00     0.031 A 
ATOM     27  C   UNL d   1      27.702 -13.632   5.447  0.00  0.00     0.021 A 
ATOM     28  C   UNL d   1      28.978 -13.980   5.920  0.00  0.00    -0.000 A 
ATOM     29  C   UNL d   1      29.958 -14.256   4.979  0.00  0.00     0.021 A 
ATOM     30  C   UNL d   1      29.673 -14.213   3.614  0.00  0.00     0.031 A 
BRANCH  28  31
ATOM     31  S   UNL d   1      29.278 -14.072   7.681  0.00  0.00    -0.134 SA
ATOM     32  C   UNL d   1      28.573 -12.510   8.315  0.00  0.00     0.095 C 
ENDBRANCH  28  31
ENDBRANCH  22  25
ENDBRANCH   1  21
TORSDOF 6
ENDMDL
MODEL 7
REMARK VINA RESULT:    -8.867      5.418      7.321
REMARK INTER + INTRA:         -12.107
REMARK INTER:                 -10.657
REMARK INTRA:                  -1.450
REMARK CONF_INDEPENDENT:        1.790
REMARK UNBOUND:                -1.450
REMARK  6 active torsions:
REMARK  status: ('A' for Active; 'I' for Inactive)
REMARK    1  A    between atoms: S_2  and  C_3 
REMARK    2  A    between atoms: C_6  and  N_7 
REMARK       I    between atoms: N_7  and  C_8 
REMARK    3  A    between atoms: C_8  and  C_10 
REMARK    4  A    between atoms: C_14  and  S_15 
REMARK    5  A    between atoms: S_15  and  N_18 
REMARK    6  A    between atoms: N_18  and  C_19 
ROOT
ATOM      1  C   UNL d   1      27.512 -15.091   0.865  0.00  0.00     0.033 A 
ATOM      2  C   UNL d   1      28.674 -15.411   0.142  0.00  0.00     0.017 A 
ATOM      3  C   UNL d   1      28.585 -15.987  -1.122  0.00  0.00     0.003 A 
ATOM      4  C   UNL d   1      27.334 -16.283  -1.653  0.00  0.00     0.025 A 
ATOM      5  C   UNL d   1      26.175 -15.933  -0.940  0.00  0.00     0.080 A 
ATOM      6  C   UNL d   1      26.256 -15.351   0.326  0.00  0.00     0.042 A 
ENDROOT
BRANCH   5   7
ATOM      7  S   UNL d   1      24.626 -16.238  -1.749  0.00  0.00     0.263 S 
ATOM      8  O   UNL d   1      24.851 -17.275  -2.730  0.00  0.00    -0.200 OA
ATOM      9  O   UNL d   1      23.700 -16.429  -0.653  0.00  0.00    -0.200 OA
BRANCH   7  10
ATOM     10  N   UNL d   1      24.261 -14.825  -2.620  0.00  0.00    -0.281 N 
ATOM     11  H   UNL d   1      23.343 -14.717  -3.031  0.00  0.00     0.179 HD
BRANCH  10  12
ATOM     12  C   UNL d   1      25.294 -14.223  -3.387  0.00  0.00     0.044 C 
ATOM     13  C   UNL d   1      25.456 -12.846  -3.451  0.00  0.00     0.029 C 
ATOM     14  C   UNL d   1      26.556 -12.353  -4.188  0.00  0.00     0.024 C 
ATOM     15  C   UNL d   1      27.281 -13.250  -4.996  0.00  0.00     0.171 C 
ATOM     16  C   UNL d   1      26.655 -14.398  -5.361  0.00  0.00     0.093 C 
ATOM     17  O   UNL d   1      28.616 -13.741  -4.712  0.00  0.00    -0.341 OA
ATOM     18  C   UNL d   1      25.927 -14.984  -4.350  0.00  0.00     0.066 C 
ATOM     19  O   UNL d   1      27.450 -15.200  -6.145  0.00  0.00    -0.327 OA
ATOM     20  C   UNL d   1      28.566 -15.116  -5.270  0.00  0.00     0.346 C 
ENDBRANCH  10  12
ENDBRANCH   7  10
ENDBRANCH   5   7
BRANCH   1  21
ATOM     21  C   UNL d   1      27.676 -14.236   2.068  0.00  0.00     0.256 C 
ATOM     22  N   UNL d   1      28.201 -14.825   3.228  0.00  0.00    -0.323 N 
ATOM     23  H   UNL d   1      28.482 -15.795   3.209  0.00  0.00     0.169 HD
ATOM     24  O   UNL d   1      27.303 -13.098   1.929  0.00  0.00    -0.267 OA
BRANCH  22  25
ATOM     25  C   UNL d   1      28.355 -14.132   4.463  0.00  0.00     0.035 A 
ATOM     26  C   UNL d   1      29.074 -14.710   5.516  0.00  0.00     0.031 A 
ATOM     27  C   UNL d   1      29.128 -14.072   6.777  0.00  0.00     0.021 A 
ATOM     28  C   UNL d   1      28.550 -12.810   6.984  0.00  0.00    -0.000 A 
ATOM     29  C   UNL d   1      27.866 -12.235   5.924  0.00  0.00     0.021 A 
ATOM     30  C   UNL d   1      27.780 -12.883   4.691  0.00  0.00     0.031 A 
BRANCH  28  31
ATOM     31  S   UNL d   1      28.734 -11.997   8.567  0.00  0.00    -0.134 SA
ATOM     32  C   UNL d   1      28.292 -13.302   9.769  0.00  0.00     0.095 C 
ENDBRANCH  28  31
ENDBRANCH  22  25
ENDBRANCH   1  21
TORSDOF 6
ENDMDL
MODEL 8
REMARK VINA RESULT:    -8.365      2.260      4.083
REMARK INTER + INTRA:         -12.749
REMARK INTER:                 -10.155
REMARK INTRA:                  -2.593
REMARK CONF_INDEPENDENT:        1.790
REMARK UNBOUND:                -2.593
REMARK  6 active torsions:
REMARK  status: ('A' for Active; 'I' for Inactive)
REMARK    1  A    between atoms: S_2  and  C_3 
REMARK    2  A    between atoms: C_6  and  N_7 
REMARK       I    between atoms: N_7  and  C_8 
REMARK    3  A    between atoms: C_8  and  C_10 
REMARK    4  A    between atoms: C_14  and  S_15 
REMARK    5  A    between atoms: S_15  and  N_18 
REMARK    6  A    between atoms: N_18  and  C_19 
ROOT
ATOM      1  C   UNL d   1      27.935 -16.770  -0.368  0.00  0.00     0.033 A 
ATOM      2  C   UNL d   1      28.268 -15.786   0.577  0.00  0.00     0.017 A 
ATOM      3  C   UNL d   1      29.338 -14.923   0.356  0.00  0.00     0.003 A 
ATOM      4  C   UNL d   1      30.106 -15.068  -0.795  0.00  0.00     0.025 A 
ATOM      5  C   UNL d   1      29.752 -16.033  -1.752  0.00  0.00     0.080 A 
ATOM      6  C   UNL d   1      28.676 -16.898  -1.538  0.00  0.00     0.042 A 
ENDROOT
BRANCH   5   7
ATOM      7  S   UNL d   1      30.715 -16.063  -3.241  0.00  0.00     0.263 S 
ATOM      8  O   UNL d   1      32.044 -15.608  -2.902  0.00  0.00    -0.200 OA
ATOM      9  O   UNL d   1      30.487 -17.391  -3.770  0.00  0.00    -0.200 OA
BRANCH   7  10
ATOM     10  N   UNL d   1      30.047 -14.877  -4.260  0.00  0.00    -0.281 N 
ATOM     11  H   UNL d   1      30.516 -13.987  -4.361  0.00  0.00     0.179 HD
BRANCH  10  12
ATOM     12  C   UNL d   1      28.632 -14.777  -4.337  0.00  0.00     0.044 C 
ATOM     13  C   UNL d   1      27.924 -15.200  -5.453  0.00  0.00     0.029 C 
ATOM     14  C   UNL d   1      26.515 -15.120  -5.401  0.00  0.00     0.024 C 
ATOM     15  C   UNL d   1      25.920 -14.412  -4.338  0.00  0.00     0.171 C 
ATOM     16  C   UNL d   1      26.697 -13.507  -3.687  0.00  0.00     0.093 C 
ATOM     17  O   UNL d   1      25.206 -15.013  -3.228  0.00  0.00    -0.341 OA
ATOM     18  C   UNL d   1      27.983 -13.941  -3.451  0.00  0.00     0.066 C 
ATOM     19  O   UNL d   1      26.022 -12.877  -2.670  0.00  0.00    -0.327 OA
ATOM     20  C   UNL d   1      25.530 -14.087  -2.113  0.00  0.00     0.346 C 
ENDBRANCH  10  12
ENDBRANCH   7  10
ENDBRANCH   5   7
BRANCH   1  21
ATOM     21  C   UNL d   1      26.631 -17.460  -0.200  0.00  0.00     0.256 C 
ATOM     22  N   UNL d   1      25.523 -16.949  -0.892  0.00  0.00    -0.323 N 
ATOM     23  H   UNL d   1      25.643 -16.155  -1.505  0.00  0.00     0.169 HD
ATOM     24  O   UNL d   1      26.653 -18.397   0.559  0.00  0.00    -0.267 OA
BRANCH  22  25
ATOM     25  C   UNL d   1      24.206 -17.480  -0.774  0.00  0.00     0.035 A 
ATOM     26  C   UNL d   1      24.011 -18.843  -0.521  0.00  0.00     0.031 A 
ATOM     27  C   UNL d   1      22.705 -19.387  -0.519  0.00  0.00     0.021 A 
ATOM     28  C   UNL d   1      21.572 -18.573  -0.674  0.00  0.00    -0.000 A 
ATOM     29  C   UNL d   1      21.779 -17.219  -0.895  0.00  0.00     0.021 A 
ATOM     30  C   UNL d   1      23.069 -16.690  -0.935  0.00  0.00     0.031 A 
BRANCH  28  31
ATOM     31  S   UNL d   1      19.939 -19.293  -0.561  0.00  0.00    -0.134 SA
ATOM     32  C   UNL d   1      20.043 -20.353   0.924  0.00  0.00     0.095 C 
ENDBRANCH  28  31
ENDBRANCH  22  25
ENDBRANCH   1  21
TORSDOF 6
ENDMDL
MODEL 9
REMARK VINA RESULT:    -7.397      2.336      4.426
REMARK INTER + INTRA:         -12.111
REMARK INTER:                  -9.186
REMARK INTRA:                  -2.925
REMARK CONF_INDEPENDENT:        1.790
REMARK UNBOUND:                -2.925
REMARK  6 active torsions:
REMARK  status: ('A' for Active; 'I' for Inactive)
REMARK    1  A    between atoms: S_2  and  C_3 
REMARK    2  A    between atoms: C_6  and  N_7 
REMARK       I    between atoms: N_7  and  C_8 
REMARK    3  A    between atoms: C_8  and  C_10 
REMARK    4  A    between atoms: C_14  and  S_15 
REMARK    5  A    between atoms: S_15  and  N_18 
REMARK    6  A    between atoms: N_18  and  C_19 
ROOT
ATOM      1  C   UNL d   1      28.554 -15.970  -1.594  0.00  0.00     0.033 A 
ATOM      2  C   UNL d   1      29.115 -14.956  -0.800  0.00  0.00     0.017 A 
ATOM      3  C   UNL d   1      30.015 -14.044  -1.346  0.00  0.00     0.003 A 
ATOM      4  C   UNL d   1      30.388 -14.168  -2.680  0.00  0.00     0.025 A 
ATOM      5  C   UNL d   1      29.802 -15.165  -3.478  0.00  0.00     0.080 A 
ATOM      6  C   UNL d   1      28.895 -16.079  -2.938  0.00  0.00     0.042 A 
ENDROOT
BRANCH   5   7
ATOM      7  S   UNL d   1      30.248 -15.168  -5.195  0.00  0.00     0.263 S 
ATOM      8  O   UNL d   1      31.292 -14.185  -5.369  0.00  0.00    -0.200 OA
ATOM      9  O   UNL d   1      30.477 -16.568  -5.485  0.00  0.00    -0.200 OA
BRANCH   7  10
ATOM     10  N   UNL d   1      28.892 -14.583  -6.037  0.00  0.00    -0.281 N 
ATOM     11  H   UNL d   1      29.023 -13.932  -6.800  0.00  0.00     0.179 HD
BRANCH  10  12
ATOM     12  C   UNL d   1      27.694 -14.359  -5.308  0.00  0.00     0.044 C 
ATOM     13  C   UNL d   1      26.596 -15.200  -5.421  0.00  0.00     0.029 C 
ATOM     14  C   UNL d   1      25.478 -14.927  -4.601  0.00  0.00     0.024 C 
ATOM     15  C   UNL d   1      25.441 -13.707  -3.898  0.00  0.00     0.171 C 
ATOM     16  C   UNL d   1      26.231 -12.703  -4.359  0.00  0.00     0.093 C 
ATOM     17  O   UNL d   1      25.618 -13.561  -2.466  0.00  0.00    -0.341 OA
ATOM     18  C   UNL d   1      27.487 -13.114  -4.749  0.00  0.00     0.066 C 
ATOM     19  O   UNL d   1      26.122 -11.562  -3.601  0.00  0.00    -0.327 OA
ATOM     20  C   UNL d   1      26.300 -12.246  -2.369  0.00  0.00     0.346 C 
ENDBRANCH  10  12
ENDBRANCH   7  10
ENDBRANCH   5   7
BRANCH   1  21
ATOM     21  C   UNL d   1      27.407 -16.722  -1.024  0.00  0.00     0.256 C 
ATOM     22  N   UNL d   1      26.118 -16.389  -1.467  0.00  0.00    -0.323 N 
ATOM     23  H   UNL d   1      26.004 -15.680  -2.177  0.00  0.00     0.169 HD
ATOM     24  O   UNL d   1      27.707 -17.544  -0.194  0.00  0.00    -0.267 OA
BRANCH  22  25
ATOM     25  C   UNL d   1      24.930 -16.992  -0.961  0.00  0.00     0.035 A 
ATOM     26  C   UNL d   1      24.942 -18.320  -0.518  0.00  0.00     0.031 A 
ATOM     27  C   UNL d   1      23.738 -18.951  -0.125  0.00  0.00     0.021 A 
ATOM     28  C   UNL d   1      22.525 -18.245  -0.076  0.00  0.00    -0.000 A 
ATOM     29  C   UNL d   1      22.533 -16.922  -0.489  0.00  0.00     0.021 A 
ATOM     30  C   UNL d   1      23.714 -16.312  -0.914  0.00  0.00     0.031 A 
BRANCH  28  31
ATOM     31  S   UNL d   1      21.049 -19.058   0.527  0.00  0.00    -0.134 SA
ATOM     32  C   UNL d   1      19.907 -18.977  -0.897  0.00  0.00     0.095 C 
ENDBRANCH  28  31
ENDBRANCH  22  25
ENDBRANCH   1  21
TORSDOF 6
ENDMDL
