MODEL 1
REMARK VINA RESULT:    -8.157      0.000      0.000
REMARK INTER + INTRA:         -12.425
REMARK INTER:                 -10.842
REMARK INTRA:                  -1.583
REMARK CONF_INDEPENDENT:        2.685
REMARK UNBOUND:                -1.583
REMARK  9 active torsions:
REMARK  status: ('A' for Active; 'I' for Inactive)
REMARK       I    between atoms: C_2  and  N_3 
REMARK       I    between atoms: C_2  and  N_12 
REMARK    1  A    between atoms: N_3  and  C_4 
REMARK    2  A    between atoms: C_4  and  C_5 
REMARK    3  A    between atoms: C_5  and  C_6 
REMARK    4  A    between atoms: C_6  and  N_7 
REMARK    5  A    between atoms: N_12  and  N_13 
REMARK       I    between atoms: N_13  and  C_14 
REMARK    6  A    between atoms: C_14  and  C_16 
REMARK    7  A    between atoms: C_20  and  C_21 
REMARK    8  A    between atoms: C_21  and  O_22 
REMARK    9  A    between atoms: O_22  and  C_23 
ROOT
ATOM      1  N   UNL d   1      25.603 -15.488  -3.033  0.00  0.00    -0.260 N 
ATOM      2  C   UNL d   1      25.643 -14.738  -4.208  0.00  0.00     0.294 C 
ATOM      3  O   UNL d   1      24.617 -14.187  -4.627  0.00  0.00    -0.264 OA
ATOM      4  H   UNL d   1      26.455 -15.877  -2.663  0.00  0.00     0.190 HD
ENDROOT
BRANCH   1   5
ATOM      5  N   UNL d   1      24.432 -15.410  -2.232  0.00  0.00    -0.249 N 
ATOM      6  C   UNL d   1      23.987 -16.338  -1.326  0.00  0.00     0.334 C 
ATOM      7  O   UNL d   1      22.913 -16.207  -0.744  0.00  0.00    -0.246 OA
ATOM      8  N   UNL d   1      24.807 -17.412  -1.099  0.00  0.00    -0.342 N 
ATOM      9  H   UNL d   1      25.679 -17.447  -1.595  0.00  0.00     0.164 HD
ATOM     10  H   UNL d   1      23.820 -14.608  -2.417  0.00  0.00     0.192 HD
BRANCH   8  11
ATOM     11  C   UNL d   1      24.445 -18.458  -0.158  0.00  0.00     0.126 C 
BRANCH  11  12
ATOM     12  C   UNL d   1      23.084 -19.073  -0.480  0.00  0.00     0.040 C 
BRANCH  12  13
ATOM     13  C   UNL d   1      21.996 -18.574   0.467  0.00  0.00     0.130 C 
BRANCH  13  14
ATOM     14  N   UNL d   1      20.699 -19.213   0.178  0.00  0.00    -0.352 N 
ATOM     15  C   UNL d   1      20.053 -20.150   0.980  0.00  0.00     0.108 A 
ATOM     16  C   UNL d   1      18.873 -20.457   0.361  0.00  0.00     0.106 A 
ATOM     17  N   UNL d   1      18.835 -19.705  -0.789  0.00  0.00    -0.361 N 
ATOM     18  C   UNL d   1      19.933 -18.950  -0.895  0.00  0.00     0.182 A 
ATOM     19  H   UNL d   1      18.077 -19.710  -1.468  0.00  0.00     0.166 HD
ENDBRANCH  13  14
ENDBRANCH  12  13
ENDBRANCH  11  12
ENDBRANCH   8  11
ENDBRANCH   1   5
BRANCH   2  20
ATOM     20  C   UNL d   1      26.948 -14.619  -4.856  0.00  0.00     0.152 A 
ATOM     21  O   UNL d   1      27.366 -15.571  -5.757  0.00  0.00    -0.316 OA
ATOM     22  C   UNL d   1      28.549 -15.140  -6.282  0.00  0.00     0.143 A 
ATOM     23  C   UNL d   1      28.942 -13.964  -5.697  0.00  0.00     0.037 A 
ATOM     24  C   UNL d   1      27.924 -13.629  -4.764  0.00  0.00     0.007 A 
BRANCH  24  25
ATOM     25  C   UNL d   1      27.930 -12.436  -3.870  0.00  0.00     0.217 C 
BRANCH  25  26
ATOM     26  O   UNL d   1      26.602 -12.067  -3.548  0.00  0.00    -0.347 OA
BRANCH  26  27
ATOM     27  C   UNL d   1      26.087 -10.938  -4.097  0.00  0.00     0.069 A 
ATOM     28  C   UNL d   1      25.904 -11.018  -5.478  0.00  0.00     0.037 A 
ATOM     29  C   UNL d   1      25.434  -9.918  -6.188  0.00  0.00     0.003 A 
ATOM     30  C   UNL d   1      25.094  -8.753  -5.505  0.00  0.00     0.000 A 
ATOM     31  C   UNL d   1      25.284  -8.668  -4.126  0.00  0.00     0.003 A 
ATOM     32  C   UNL d   1      25.798  -9.756  -3.423  0.00  0.00     0.037 A 
ENDBRANCH  26  27
ENDBRANCH  25  26
ENDBRANCH  24  25
ENDBRANCH   2  20
TORSDOF 9
ENDMDL
MODEL 2
REMARK VINA RESULT:    -7.916      3.716      9.420
REMARK INTER + INTRA:         -12.381
REMARK INTER:                 -10.601
REMARK INTRA:                  -1.780
REMARK CONF_INDEPENDENT:        2.685
REMARK UNBOUND:                -1.780
REMARK  9 active torsions:
REMARK  status: ('A' for Active; 'I' for Inactive)
REMARK       I    between atoms: C_2  and  N_3 
REMARK       I    between atoms: C_2  and  N_12 
REMARK    1  A    between atoms: N_3  and  C_4 
REMARK    2  A    between atoms: C_4  and  C_5 
REMARK    3  A    between atoms: C_5  and  C_6 
REMARK    4  A    between atoms: C_6  and  N_7 
REMARK    5  A    between atoms: N_12  and  N_13 
REMARK       I    between atoms: N_13  and  C_14 
REMARK    6  A    between atoms: C_14  and  C_16 
REMARK    7  A    between atoms: C_20  and  C_21 
REMARK    8  A    between atoms: C_21  and  O_22 
REMARK    9  A    between atoms: O_22  and  C_23 
ROOT
ATOM      1  N   UNL d   1      26.622 -15.518  -3.036  0.00  0.00    -0.260 N 
ATOM      2  C   UNL d   1      25.416 -15.729  -2.369  0.00  0.00     0.294 C 
ATOM      3  O   UNL d   1      24.408 -15.086  -2.692  0.00  0.00    -0.264 OA
ATOM      4  H   UNL d   1      27.419 -16.091  -2.813  0.00  0.00     0.190 HD
ENDROOT
BRANCH   1   5
ATOM      5  N   UNL d   1      26.600 -14.730  -4.218  0.00  0.00    -0.249 N 
ATOM      6  C   UNL d   1      27.532 -14.724  -5.225  0.00  0.00     0.334 C 
ATOM      7  O   UNL d   1      27.457 -13.940  -6.167  0.00  0.00    -0.246 OA
ATOM      8  N   UNL d   1      28.542 -15.645  -5.127  0.00  0.00    -0.342 N 
ATOM      9  H   UNL d   1      28.532 -16.268  -4.341  0.00  0.00     0.164 HD
ATOM     10  H   UNL d   1      25.847 -14.037  -4.277  0.00  0.00     0.192 HD
BRANCH   8  11
ATOM     11  C   UNL d   1      29.583 -15.738  -6.136  0.00  0.00     0.126 C 
BRANCH  11  12
ATOM     12  C   UNL d   1      30.726 -16.652  -5.698  0.00  0.00     0.040 C 
BRANCH  12  13
ATOM     13  C   UNL d   1      31.144 -17.612  -6.808  0.00  0.00     0.130 C 
BRANCH  13  14
ATOM     14  N   UNL d   1      31.045 -19.016  -6.369  0.00  0.00    -0.352 N 
ATOM     15  C   UNL d   1      30.675 -19.451  -5.099  0.00  0.00     0.108 A 
ATOM     16  C   UNL d   1      30.684 -20.818  -5.129  0.00  0.00     0.106 A 
ATOM     17  N   UNL d   1      31.055 -21.172  -6.404  0.00  0.00    -0.361 N 
ATOM     18  C   UNL d   1      31.266 -20.085  -7.153  0.00  0.00     0.182 A 
ATOM     19  H   UNL d   1      31.151 -22.127  -6.743  0.00  0.00     0.166 HD
ENDBRANCH  13  14
ENDBRANCH  12  13
ENDBRANCH  11  12
ENDBRANCH   8  11
ENDBRANCH   1   5
BRANCH   2  20
ATOM     20  C   UNL d   1      25.421 -16.760  -1.333  0.00  0.00     0.152 A 
ATOM     21  O   UNL d   1      26.609 -17.297  -0.892  0.00  0.00    -0.316 OA
ATOM     22  C   UNL d   1      26.316 -18.131   0.145  0.00  0.00     0.143 A 
ATOM     23  C   UNL d   1      24.962 -18.200   0.349  0.00  0.00     0.037 A 
ATOM     24  C   UNL d   1      24.375 -17.332  -0.611  0.00  0.00     0.007 A 
BRANCH  24  25
ATOM     25  C   UNL d   1      22.914 -17.100  -0.786  0.00  0.00     0.217 C 
BRANCH  25  26
ATOM     26  O   UNL d   1      22.288 -18.283  -1.248  0.00  0.00    -0.347 OA
BRANCH  26  27
ATOM     27  C   UNL d   1      21.333 -18.859  -0.476  0.00  0.00     0.069 A 
ATOM     28  C   UNL d   1      20.240 -19.340  -1.199  0.00  0.00     0.037 A 
ATOM     29  C   UNL d   1      19.157 -19.910  -0.539  0.00  0.00     0.003 A 
ATOM     30  C   UNL d   1      19.192 -20.048   0.847  0.00  0.00     0.000 A 
ATOM     31  C   UNL d   1      20.279 -19.561   1.572  0.00  0.00     0.003 A 
ATOM     32  C   UNL d   1      21.344 -18.950   0.912  0.00  0.00     0.037 A 
ENDBRANCH  26  27
ENDBRANCH  25  26
ENDBRANCH  24  25
ENDBRANCH   2  20
TORSDOF 9
ENDMDL
MODEL 3
REMARK VINA RESULT:    -7.627      2.531      3.593
REMARK INTER + INTRA:         -13.020
REMARK INTER:                 -10.311
REMARK INTRA:                  -2.708
REMARK CONF_INDEPENDENT:        2.685
REMARK UNBOUND:                -2.708
REMARK  9 active torsions:
REMARK  status: ('A' for Active; 'I' for Inactive)
REMARK       I    between atoms: C_2  and  N_3 
REMARK       I    between atoms: C_2  and  N_12 
REMARK    1  A    between atoms: N_3  and  C_4 
REMARK    2  A    between atoms: C_4  and  C_5 
REMARK    3  A    between atoms: C_5  and  C_6 
REMARK    4  A    between atoms: C_6  and  N_7 
REMARK    5  A    between atoms: N_12  and  N_13 
REMARK       I    between atoms: N_13  and  C_14 
REMARK    6  A    between atoms: C_14  and  C_16 
REMARK    7  A    between atoms: C_20  and  C_21 
REMARK    8  A    between atoms: C_21  and  O_22 
REMARK    9  A    between atoms: O_22  and  C_23 
ROOT
ATOM      1  N   UNL d   1      25.659 -15.610  -3.030  0.00  0.00    -0.260 N 
ATOM      2  C   UNL d   1      25.769 -14.859  -4.200  0.00  0.00     0.294 C 
ATOM      3  O   UNL d   1      24.788 -14.238  -4.632  0.00  0.00    -0.264 OA
ATOM      4  H   UNL d   1      26.477 -16.058  -2.649  0.00  0.00     0.190 HD
ENDROOT
BRANCH   1   5
ATOM      5  N   UNL d   1      24.484 -15.456  -2.247  0.00  0.00    -0.249 N 
ATOM      6  C   UNL d   1      24.006 -16.319  -1.294  0.00  0.00     0.334 C 
ATOM      7  O   UNL d   1      22.931 -16.128  -0.732  0.00  0.00    -0.246 OA
ATOM      8  N   UNL d   1      24.797 -17.399  -0.997  0.00  0.00    -0.342 N 
ATOM      9  H   UNL d   1      25.672 -17.484  -1.481  0.00  0.00     0.164 HD
ATOM     10  H   UNL d   1      23.894 -14.651  -2.484  0.00  0.00     0.192 HD
BRANCH   8  11
ATOM     11  C   UNL d   1      24.399 -18.379  -0.001  0.00  0.00     0.126 C 
BRANCH  11  12
ATOM     12  C   UNL d   1      23.064 -19.037  -0.345  0.00  0.00     0.040 C 
BRANCH  12  13
ATOM     13  C   UNL d   1      21.948 -18.581   0.589  0.00  0.00     0.130 C 
BRANCH  13  14
ATOM     14  N   UNL d   1      20.660 -19.205   0.231  0.00  0.00    -0.352 N 
ATOM     15  C   UNL d   1      19.974 -20.153   0.986  0.00  0.00     0.108 A 
ATOM     16  C   UNL d   1      18.820 -20.439   0.311  0.00  0.00     0.106 A 
ATOM     17  N   UNL d   1      18.837 -19.665  -0.825  0.00  0.00    -0.361 N 
ATOM     18  C   UNL d   1      19.944 -18.916  -0.868  0.00  0.00     0.182 A 
ATOM     19  H   UNL d   1      18.109 -19.651  -1.536  0.00  0.00     0.166 HD
ENDBRANCH  13  14
ENDBRANCH  12  13
ENDBRANCH  11  12
ENDBRANCH   8  11
ENDBRANCH   1   5
BRANCH   2  20
ATOM     20  C   UNL d   1      27.089 -14.826  -4.827  0.00  0.00     0.152 A 
ATOM     21  O   UNL d   1      27.235 -15.148  -6.156  0.00  0.00    -0.316 OA
ATOM     22  C   UNL d   1      28.537 -14.914  -6.488  0.00  0.00     0.143 A 
ATOM     23  C   UNL d   1      29.255 -14.510  -5.392  0.00  0.00     0.037 A 
ATOM     24  C   UNL d   1      28.333 -14.466  -4.312  0.00  0.00     0.007 A 
BRANCH  24  25
ATOM     25  C   UNL d   1      28.666 -14.101  -2.906  0.00  0.00     0.217 C 
BRANCH  25  26
ATOM     26  O   UNL d   1      28.327 -15.166  -2.037  0.00  0.00    -0.347 OA
BRANCH  26  27
ATOM     27  C   UNL d   1      27.944 -14.875  -0.768  0.00  0.00     0.069 A 
ATOM     28  C   UNL d   1      27.074 -13.788  -0.680  0.00  0.00     0.037 A 
ATOM     29  C   UNL d   1      26.637 -13.338   0.562  0.00  0.00     0.003 A 
ATOM     30  C   UNL d   1      27.028 -14.014   1.715  0.00  0.00     0.000 A 
ATOM     31  C   UNL d   1      27.904 -15.096   1.629  0.00  0.00     0.003 A 
ATOM     32  C   UNL d   1      28.376 -15.517   0.388  0.00  0.00     0.037 A 
ENDBRANCH  26  27
ENDBRANCH  25  26
ENDBRANCH  24  25
ENDBRANCH   2  20
TORSDOF 9
ENDMDL
MODEL 4
REMARK VINA RESULT:    -6.841      3.752      9.008
REMARK INTER + INTRA:         -12.492
REMARK INTER:                  -9.525
REMARK INTRA:                  -2.967
REMARK CONF_INDEPENDENT:        2.685
REMARK UNBOUND:                -2.967
REMARK  9 active torsions:
REMARK  status: ('A' for Active; 'I' for Inactive)
REMARK       I    between atoms: C_2  and  N_3 
REMARK       I    between atoms: C_2  and  N_12 
REMARK    1  A    between atoms: N_3  and  C_4 
REMARK    2  A    between atoms: C_4  and  C_5 
REMARK    3  A    between atoms: C_5  and  C_6 
REMARK    4  A    between atoms: C_6  and  N_7 
REMARK    5  A    between atoms: N_12  and  N_13 
REMARK       I    between atoms: N_13  and  C_14 
REMARK    6  A    between atoms: C_14  and  C_16 
REMARK    7  A    between atoms: C_20  and  C_21 
REMARK    8  A    between atoms: C_21  and  O_22 
REMARK    9  A    between atoms: O_22  and  C_23 
ROOT
ATOM      1  N   UNL d   1      26.214 -15.956  -3.000  0.00  0.00    -0.260 N 
ATOM      2  C   UNL d   1      25.030 -15.944  -2.263  0.00  0.00     0.294 C 
ATOM      3  O   UNL d   1      24.099 -15.200  -2.598  0.00  0.00    -0.264 OA
ATOM      4  H   UNL d   1      26.940 -16.611  -2.761  0.00  0.00     0.190 HD
ENDROOT
BRANCH   1   5
ATOM      5  N   UNL d   1      26.229 -15.277  -4.247  0.00  0.00    -0.249 N 
ATOM      6  C   UNL d   1      27.277 -15.186  -5.127  0.00  0.00     0.334 C 
ATOM      7  O   UNL d   1      27.207 -14.502  -6.144  0.00  0.00    -0.246 OA
ATOM      8  N   UNL d   1      28.401 -15.906  -4.813  0.00  0.00    -0.342 N 
ATOM      9  H   UNL d   1      28.383 -16.459  -3.976  0.00  0.00     0.164 HD
ATOM     10  H   UNL d   1      25.388 -14.733  -4.467  0.00  0.00     0.192 HD
BRANCH   8  11
ATOM     11  C   UNL d   1      29.573 -15.893  -5.671  0.00  0.00     0.126 C 
BRANCH  11  12
ATOM     12  C   UNL d   1      30.838 -16.307  -4.921  0.00  0.00     0.040 C 
BRANCH  12  13
ATOM     13  C   UNL d   1      31.007 -15.530  -3.619  0.00  0.00     0.130 C 
BRANCH  13  14
ATOM     14  N   UNL d   1      30.173 -16.096  -2.543  0.00  0.00    -0.352 N 
ATOM     15  C   UNL d   1      30.319 -17.359  -1.974  0.00  0.00     0.108 A 
ATOM     16  C   UNL d   1      29.367 -17.468  -1.000  0.00  0.00     0.106 A 
ATOM     17  N   UNL d   1      28.675 -16.281  -1.004  0.00  0.00    -0.361 N 
ATOM     18  C   UNL d   1      29.166 -15.452  -1.929  0.00  0.00     0.182 A 
ATOM     19  H   UNL d   1      27.899 -16.053  -0.386  0.00  0.00     0.166 HD
ENDBRANCH  13  14
ENDBRANCH  12  13
ENDBRANCH  11  12
ENDBRANCH   8  11
ENDBRANCH   1   5
BRANCH   2  20
ATOM     20  C   UNL d   1      24.960 -16.873  -1.136  0.00  0.00     0.152 A 
ATOM     21  O   UNL d   1      26.107 -17.266  -0.486  0.00  0.00    -0.316 OA
ATOM     22  C   UNL d   1      25.727 -18.025   0.581  0.00  0.00     0.143 A 
ATOM     23  C   UNL d   1      24.366 -18.189   0.604  0.00  0.00     0.037 A 
ATOM     24  C   UNL d   1      23.864 -17.464  -0.510  0.00  0.00     0.007 A 
BRANCH  24  25
ATOM     25  C   UNL d   1      22.430 -17.372  -0.905  0.00  0.00     0.217 C 
BRANCH  25  26
ATOM     26  O   UNL d   1      21.933 -18.660  -1.223  0.00  0.00    -0.347 OA
BRANCH  26  27
ATOM     27  C   UNL d   1      20.954 -19.190  -0.449  0.00  0.00     0.069 A 
ATOM     28  C   UNL d   1      19.814 -19.565  -1.162  0.00  0.00     0.037 A 
ATOM     29  C   UNL d   1      18.705 -20.075  -0.496  0.00  0.00     0.003 A 
ATOM     30  C   UNL d   1      18.758 -20.262   0.884  0.00  0.00     0.000 A 
ATOM     31  C   UNL d   1      19.892 -19.880   1.599  0.00  0.00     0.003 A 
ATOM     32  C   UNL d   1      20.986 -19.328   0.935  0.00  0.00     0.037 A 
ENDBRANCH  26  27
ENDBRANCH  25  26
ENDBRANCH  24  25
ENDBRANCH   2  20
TORSDOF 9
ENDMDL
MODEL 5
REMARK VINA RESULT:    -6.742      3.681      7.599
REMARK INTER + INTRA:         -12.405
REMARK INTER:                  -9.427
REMARK INTRA:                  -2.979
REMARK CONF_INDEPENDENT:        2.685
REMARK UNBOUND:                -2.979
REMARK  9 active torsions:
REMARK  status: ('A' for Active; 'I' for Inactive)
REMARK       I    between atoms: C_2  and  N_3 
REMARK       I    between atoms: C_2  and  N_12 
REMARK    1  A    between atoms: N_3  and  C_4 
REMARK    2  A    between atoms: C_4  and  C_5 
REMARK    3  A    between atoms: C_5  and  C_6 
REMARK    4  A    between atoms: C_6  and  N_7 
REMARK    5  A    between atoms: N_12  and  N_13 
REMARK       I    between atoms: N_13  and  C_14 
REMARK    6  A    between atoms: C_14  and  C_16 
REMARK    7  A    between atoms: C_20  and  C_21 
REMARK    8  A    between atoms: C_21  and  O_22 
REMARK    9  A    between atoms: O_22  and  C_23 
ROOT
ATOM      1  N   UNL d   1      28.447 -13.751  -6.518  0.00  0.00    -0.260 N 
ATOM      2  C   UNL d   1      27.501 -14.356  -5.691  0.00  0.00     0.294 C 
ATOM      3  O   UNL d   1      27.298 -15.575  -5.770  0.00  0.00    -0.264 OA
ATOM      4  H   UNL d   1      28.654 -12.772  -6.401  0.00  0.00     0.190 HD
ENDROOT
BRANCH   1   5
ATOM      5  N   UNL d   1      29.310 -14.592  -7.270  0.00  0.00    -0.249 N 
ATOM      6  C   UNL d   1      30.098 -15.608  -6.791  0.00  0.00     0.334 C 
ATOM      7  O   UNL d   1      30.871 -16.222  -7.521  0.00  0.00    -0.246 OA
ATOM      8  N   UNL d   1      29.967 -15.906  -5.460  0.00  0.00    -0.342 N 
ATOM      9  H   UNL d   1      29.302 -15.377  -4.926  0.00  0.00     0.164 HD
ATOM     10  H   UNL d   1      29.408 -14.354  -8.262  0.00  0.00     0.192 HD
BRANCH   8  11
ATOM     11  C   UNL d   1      30.745 -16.965  -4.841  0.00  0.00     0.126 C 
BRANCH  11  12
ATOM     12  C   UNL d   1      30.193 -17.357  -3.471  0.00  0.00     0.040 C 
BRANCH  12  13
ATOM     13  C   UNL d   1      28.924 -16.584  -3.127  0.00  0.00     0.130 C 
BRANCH  13  14
ATOM     14  N   UNL d   1      28.949 -16.103  -1.733  0.00  0.00    -0.352 N 
ATOM     15  C   UNL d   1      28.418 -14.900  -1.274  0.00  0.00     0.108 A 
ATOM     16  C   UNL d   1      28.629 -14.862   0.076  0.00  0.00     0.106 A 
ATOM     17  N   UNL d   1      29.276 -16.031   0.397  0.00  0.00    -0.361 N 
ATOM     18  C   UNL d   1      29.463 -16.782  -0.693  0.00  0.00     0.182 A 
ATOM     19  H   UNL d   1      29.570 -16.300   1.333  0.00  0.00     0.166 HD
ENDBRANCH  13  14
ENDBRANCH  12  13
ENDBRANCH  11  12
ENDBRANCH   8  11
ENDBRANCH   1   5
BRANCH   2  20
ATOM     20  C   UNL d   1      26.827 -13.483  -4.731  0.00  0.00     0.152 A 
ATOM     21  O   UNL d   1      26.997 -12.119  -4.793  0.00  0.00    -0.316 OA
ATOM     22  C   UNL d   1      26.165 -11.565  -3.866  0.00  0.00     0.143 A 
ATOM     23  C   UNL d   1      25.507 -12.538  -3.158  0.00  0.00     0.037 A 
ATOM     24  C   UNL d   1      25.940 -13.779  -3.698  0.00  0.00     0.007 A 
BRANCH  24  25
ATOM     25  C   UNL d   1      25.508 -15.124  -3.225  0.00  0.00     0.217 C 
BRANCH  25  26
ATOM     26  O   UNL d   1      25.228 -15.082  -1.838  0.00  0.00    -0.347 OA
BRANCH  26  27
ATOM     27  C   UNL d   1      24.973 -16.246  -1.189  0.00  0.00     0.069 A 
ATOM     28  C   UNL d   1      23.624 -16.606  -1.188  0.00  0.00     0.037 A 
ATOM     29  C   UNL d   1      23.203 -17.748  -0.515  0.00  0.00     0.003 A 
ATOM     30  C   UNL d   1      24.142 -18.562   0.112  0.00  0.00     0.000 A 
ATOM     31  C   UNL d   1      25.489 -18.200   0.120  0.00  0.00     0.003 A 
ATOM     32  C   UNL d   1      25.904 -17.032  -0.517  0.00  0.00     0.037 A 
ENDBRANCH  26  27
ENDBRANCH  25  26
ENDBRANCH  24  25
ENDBRANCH   2  20
TORSDOF 9
ENDMDL
MODEL 6
REMARK VINA RESULT:    -6.345      3.624      7.121
REMARK INTER + INTRA:         -12.621
REMARK INTER:                  -9.029
REMARK INTRA:                  -3.592
REMARK CONF_INDEPENDENT:        2.685
REMARK UNBOUND:                -3.592
REMARK  9 active torsions:
REMARK  status: ('A' for Active; 'I' for Inactive)
REMARK       I    between atoms: C_2  and  N_3 
REMARK       I    between atoms: C_2  and  N_12 
REMARK    1  A    between atoms: N_3  and  C_4 
REMARK    2  A    between atoms: C_4  and  C_5 
REMARK    3  A    between atoms: C_5  and  C_6 
REMARK    4  A    between atoms: C_6  and  N_7 
REMARK    5  A    between atoms: N_12  and  N_13 
REMARK       I    between atoms: N_13  and  C_14 
REMARK    6  A    between atoms: C_14  and  C_16 
REMARK    7  A    between atoms: C_20  and  C_21 
REMARK    8  A    between atoms: C_21  and  O_22 
REMARK    9  A    between atoms: O_22  and  C_23 
ROOT
ATOM      1  N   UNL d   1      26.829 -17.801  -0.722  0.00  0.00    -0.260 N 
ATOM      2  C   UNL d   1      25.901 -18.224   0.229  0.00  0.00     0.294 C 
ATOM      3  O   UNL d   1      26.278 -18.544   1.364  0.00  0.00    -0.264 OA
ATOM      4  H   UNL d   1      26.507 -17.479  -1.620  0.00  0.00     0.190 HD
ENDROOT
BRANCH   1   5
ATOM      5  N   UNL d   1      28.154 -17.535  -0.287  0.00  0.00    -0.249 N 
ATOM      6  C   UNL d   1      28.890 -16.402  -0.523  0.00  0.00     0.334 C 
ATOM      7  O   UNL d   1      30.062 -16.309  -0.168  0.00  0.00    -0.246 OA
ATOM      8  N   UNL d   1      28.245 -15.378  -1.166  0.00  0.00    -0.342 N 
ATOM      9  H   UNL d   1      27.281 -15.513  -1.411  0.00  0.00     0.164 HD
ATOM     10  H   UNL d   1      28.632 -18.310   0.184  0.00  0.00     0.192 HD
BRANCH   8  11
ATOM     11  C   UNL d   1      28.919 -14.127  -1.466  0.00  0.00     0.126 C 
BRANCH  11  12
ATOM     12  C   UNL d   1      28.582 -13.035  -0.453  0.00  0.00     0.040 C 
BRANCH  12  13
ATOM     13  C   UNL d   1      27.265 -13.313   0.266  0.00  0.00     0.130 C 
BRANCH  13  14
ATOM     14  N   UNL d   1      27.490 -13.705   1.669  0.00  0.00    -0.352 N 
ATOM     15  C   UNL d   1      27.030 -13.023   2.792  0.00  0.00     0.108 A 
ATOM     16  C   UNL d   1      27.433 -13.738   3.884  0.00  0.00     0.106 A 
ATOM     17  N   UNL d   1      28.121 -14.825   3.400  0.00  0.00    -0.361 N 
ATOM     18  C   UNL d   1      28.148 -14.808   2.064  0.00  0.00     0.182 A 
ATOM     19  H   UNL d   1      28.547 -15.552   3.971  0.00  0.00     0.166 HD
ENDBRANCH  13  14
ENDBRANCH  12  13
ENDBRANCH  11  12
ENDBRANCH   8  11
ENDBRANCH   1   5
BRANCH   2  20
ATOM     20  C   UNL d   1      24.499 -18.218  -0.186  0.00  0.00     0.152 A 
ATOM     21  O   UNL d   1      23.680 -19.283   0.113  0.00  0.00    -0.316 OA
ATOM     22  C   UNL d   1      22.420 -18.949  -0.285  0.00  0.00     0.143 A 
ATOM     23  C   UNL d   1      22.411 -17.720  -0.895  0.00  0.00     0.037 A 
ATOM     24  C   UNL d   1      23.750 -17.249  -0.851  0.00  0.00     0.007 A 
BRANCH  24  25
ATOM     25  C   UNL d   1      24.230 -15.957  -1.418  0.00  0.00     0.217 C 
BRANCH  25  26
ATOM     26  O   UNL d   1      25.373 -16.177  -2.223  0.00  0.00    -0.347 OA
BRANCH  26  27
ATOM     27  C   UNL d   1      25.717 -15.237  -3.140  0.00  0.00     0.069 A 
ATOM     28  C   UNL d   1      24.952 -14.072  -3.063  0.00  0.00     0.037 A 
ATOM     29  C   UNL d   1      25.153 -13.040  -3.973  0.00  0.00     0.003 A 
ATOM     30  C   UNL d   1      26.160 -13.152  -4.928  0.00  0.00     0.000 A 
ATOM     31  C   UNL d   1      26.919 -14.319  -5.012  0.00  0.00     0.003 A 
ATOM     32  C   UNL d   1      26.687 -15.370  -4.128  0.00  0.00     0.037 A 
ENDBRANCH  26  27
ENDBRANCH  25  26
ENDBRANCH  24  25
ENDBRANCH   2  20
TORSDOF 9
ENDMDL
MODEL 7
REMARK VINA RESULT:    -6.164      3.367      7.628
REMARK INTER + INTRA:         -12.398
REMARK INTER:                  -8.848
REMARK INTRA:                  -3.549
REMARK CONF_INDEPENDENT:        2.685
REMARK UNBOUND:                -3.549
REMARK  9 active torsions:
REMARK  status: ('A' for Active; 'I' for Inactive)
REMARK       I    between atoms: C_2  and  N_3 
REMARK       I    between atoms: C_2  and  N_12 
REMARK    1  A    between atoms: N_3  and  C_4 
REMARK    2  A    between atoms: C_4  and  C_5 
REMARK    3  A    between atoms: C_5  and  C_6 
REMARK    4  A    between atoms: C_6  and  N_7 
REMARK    5  A    between atoms: N_12  and  N_13 
REMARK       I    between atoms: N_13  and  C_14 
REMARK    6  A    between atoms: C_14  and  C_16 
REMARK    7  A    between atoms: C_20  and  C_21 
REMARK    8  A    between atoms: C_21  and  O_22 
REMARK    9  A    between atoms: O_22  and  C_23 
ROOT
ATOM      1  N   UNL d   1      27.178 -17.733  -0.577  0.00  0.00    -0.260 N 
ATOM      2  C   UNL d   1      26.242 -18.164   0.362  0.00  0.00     0.294 C 
ATOM      3  O   UNL d   1      26.618 -18.575   1.469  0.00  0.00    -0.264 OA
ATOM      4  H   UNL d   1      26.862 -17.339  -1.448  0.00  0.00     0.190 HD
ENDROOT
BRANCH   1   5
ATOM      5  N   UNL d   1      28.523 -17.569  -0.150  0.00  0.00    -0.249 N 
ATOM      6  C   UNL d   1      29.471 -16.745  -0.702  0.00  0.00     0.334 C 
ATOM      7  O   UNL d   1      30.632 -16.741  -0.303  0.00  0.00    -0.246 OA
ATOM      8  N   UNL d   1      29.050 -15.923  -1.715  0.00  0.00    -0.342 N 
ATOM      9  H   UNL d   1      28.082 -15.965  -1.979  0.00  0.00     0.164 HD
ATOM     10  H   UNL d   1      28.831 -18.195   0.601  0.00  0.00     0.192 HD
BRANCH   8  11
ATOM     11  C   UNL d   1      29.961 -15.004  -2.374  0.00  0.00     0.126 C 
BRANCH  11  12
ATOM     12  C   UNL d   1      30.952 -15.730  -3.282  0.00  0.00     0.040 C 
BRANCH  12  13
ATOM     13  C   UNL d   1      30.245 -16.623  -4.297  0.00  0.00     0.130 C 
BRANCH  13  14
ATOM     14  N   UNL d   1      29.464 -15.827  -5.261  0.00  0.00    -0.352 N 
ATOM     15  C   UNL d   1      28.247 -15.200  -5.006  0.00  0.00     0.108 A 
ATOM     16  C   UNL d   1      27.886 -14.551  -6.154  0.00  0.00     0.106 A 
ATOM     17  N   UNL d   1      28.884 -14.801  -7.066  0.00  0.00    -0.361 N 
ATOM     18  C   UNL d   1      29.838 -15.565  -6.525  0.00  0.00     0.182 A 
ATOM     19  H   UNL d   1      28.906 -14.451  -8.022  0.00  0.00     0.166 HD
ENDBRANCH  13  14
ENDBRANCH  12  13
ENDBRANCH  11  12
ENDBRANCH   8  11
ENDBRANCH   1   5
BRANCH   2  20
ATOM     20  C   UNL d   1      24.837 -18.055  -0.027  0.00  0.00     0.152 A 
ATOM     21  O   UNL d   1      23.850 -18.575   0.779  0.00  0.00    -0.316 OA
ATOM     22  C   UNL d   1      22.653 -18.222   0.231  0.00  0.00     0.143 A 
ATOM     23  C   UNL d   1      22.836 -17.542  -0.945  0.00  0.00     0.037 A 
ATOM     24  C   UNL d   1      24.242 -17.444  -1.128  0.00  0.00     0.007 A 
BRANCH  24  25
ATOM     25  C   UNL d   1      24.919 -16.803  -2.291  0.00  0.00     0.217 C 
BRANCH  25  26
ATOM     26  O   UNL d   1      25.898 -15.887  -1.835  0.00  0.00    -0.347 OA
BRANCH  26  27
ATOM     27  C   UNL d   1      25.944 -14.651  -2.393  0.00  0.00     0.069 A 
ATOM     28  C   UNL d   1      25.167 -14.526  -3.546  0.00  0.00     0.037 A 
ATOM     29  C   UNL d   1      25.157 -13.331  -4.259  0.00  0.00     0.003 A 
ATOM     30  C   UNL d   1      25.883 -12.241  -3.784  0.00  0.00     0.000 A 
ATOM     31  C   UNL d   1      26.666 -12.367  -2.637  0.00  0.00     0.003 A 
ATOM     32  C   UNL d   1      26.711 -13.578  -1.950  0.00  0.00     0.037 A 
ENDBRANCH  26  27
ENDBRANCH  25  26
ENDBRANCH  24  25
ENDBRANCH   2  20
TORSDOF 9
ENDMDL
MODEL 8
REMARK VINA RESULT:    -5.837      3.329      7.419
REMARK INTER + INTRA:         -12.307
REMARK INTER:                  -8.521
REMARK INTRA:                  -3.786
REMARK CONF_INDEPENDENT:        2.685
REMARK UNBOUND:                -3.786
REMARK  9 active torsions:
REMARK  status: ('A' for Active; 'I' for Inactive)
REMARK       I    between atoms: C_2  and  N_3 
REMARK       I    between atoms: C_2  and  N_12 
REMARK    1  A    between atoms: N_3  and  C_4 
REMARK    2  A    between atoms: C_4  and  C_5 
REMARK    3  A    between atoms: C_5  and  C_6 
REMARK    4  A    between atoms: C_6  and  N_7 
REMARK    5  A    between atoms: N_12  and  N_13 
REMARK       I    between atoms: N_13  and  C_14 
REMARK    6  A    between atoms: C_14  and  C_16 
REMARK    7  A    between atoms: C_20  and  C_21 
REMARK    8  A    between atoms: C_21  and  O_22 
REMARK    9  A    between atoms: O_22  and  C_23 
ROOT
ATOM      1  N   UNL d   1      26.879 -17.924  -0.853  0.00  0.00    -0.260 N 
ATOM      2  C   UNL d   1      25.965 -18.066   0.190  0.00  0.00     0.294 C 
ATOM      3  O   UNL d   1      26.367 -18.195   1.354  0.00  0.00    -0.264 OA
ATOM      4  H   UNL d   1      26.544 -17.753  -1.787  0.00  0.00     0.190 HD
ENDROOT
BRANCH   1   5
ATOM      5  N   UNL d   1      28.242 -17.706  -0.519  0.00  0.00    -0.249 N 
ATOM      6  C   UNL d   1      29.162 -16.979  -1.231  0.00  0.00     0.334 C 
ATOM      7  O   UNL d   1      30.341 -16.922  -0.891  0.00  0.00    -0.246 OA
ATOM      8  N   UNL d   1      28.693 -16.313  -2.333  0.00  0.00    -0.342 N 
ATOM      9  H   UNL d   1      27.714 -16.387  -2.542  0.00  0.00     0.164 HD
ATOM     10  H   UNL d   1      28.586 -18.217   0.301  0.00  0.00     0.192 HD
BRANCH   8  11
ATOM     11  C   UNL d   1      29.571 -15.506  -3.162  0.00  0.00     0.126 C 
BRANCH  11  12
ATOM     12  C   UNL d   1      29.192 -15.579  -4.640  0.00  0.00     0.040 C 
BRANCH  12  13
ATOM     13  C   UNL d   1      28.769 -14.219  -5.187  0.00  0.00     0.130 C 
BRANCH  13  14
ATOM     14  N   UNL d   1      27.334 -13.971  -4.957  0.00  0.00    -0.352 N 
ATOM     15  C   UNL d   1      26.375 -14.936  -4.660  0.00  0.00     0.108 A 
ATOM     16  C   UNL d   1      25.187 -14.279  -4.497  0.00  0.00     0.106 A 
ATOM     17  N   UNL d   1      25.454 -12.946  -4.698  0.00  0.00    -0.361 N 
ATOM     18  C   UNL d   1      26.750 -12.760  -4.969  0.00  0.00     0.182 A 
ATOM     19  H   UNL d   1      24.769 -12.196  -4.643  0.00  0.00     0.166 HD
ENDBRANCH  13  14
ENDBRANCH  12  13
ENDBRANCH  11  12
ENDBRANCH   8  11
ENDBRANCH   1   5
BRANCH   2  20
ATOM     20  C   UNL d   1      24.551 -18.008  -0.176  0.00  0.00     0.152 A 
ATOM     21  O   UNL d   1      23.670 -18.951   0.300  0.00  0.00    -0.316 OA
ATOM     22  C   UNL d   1      22.421 -18.578  -0.101  0.00  0.00     0.143 A 
ATOM     23  C   UNL d   1      22.476 -17.451  -0.880  0.00  0.00     0.037 A 
ATOM     24  C   UNL d   1      23.847 -17.085  -0.948  0.00  0.00     0.007 A 
BRANCH  24  25
ATOM     25  C   UNL d   1      24.396 -15.929  -1.711  0.00  0.00     0.217 C 
BRANCH  25  26
ATOM     26  O   UNL d   1      25.804 -15.880  -1.568  0.00  0.00    -0.347 OA
BRANCH  26  27
ATOM     27  C   UNL d   1      26.364 -14.786  -0.994  0.00  0.00     0.069 A 
ATOM     28  C   UNL d   1      26.662 -14.952   0.359  0.00  0.00     0.037 A 
ATOM     29  C   UNL d   1      27.190 -13.897   1.096  0.00  0.00     0.003 A 
ATOM     30  C   UNL d   1      27.474 -12.690   0.462  0.00  0.00     0.000 A 
ATOM     31  C   UNL d   1      27.169 -12.519  -0.888  0.00  0.00     0.003 A 
ATOM     32  C   UNL d   1      26.598 -13.562  -1.614  0.00  0.00     0.037 A 
ENDBRANCH  26  27
ENDBRANCH  25  26
ENDBRANCH  24  25
ENDBRANCH   2  20
TORSDOF 9
ENDMDL
MODEL 9
REMARK VINA RESULT:    -5.663      3.373      7.195
REMARK INTER + INTRA:         -12.624
REMARK INTER:                  -8.348
REMARK INTRA:                  -4.276
REMARK CONF_INDEPENDENT:        2.685
REMARK UNBOUND:                -4.276
REMARK  9 active torsions:
REMARK  status: ('A' for Active; 'I' for Inactive)
REMARK       I    between atoms: C_2  and  N_3 
REMARK       I    between atoms: C_2  and  N_12 
REMARK    1  A    between atoms: N_3  and  C_4 
REMARK    2  A    between atoms: C_4  and  C_5 
REMARK    3  A    between atoms: C_5  and  C_6 
REMARK    4  A    between atoms: C_6  and  N_7 
REMARK    5  A    between atoms: N_12  and  N_13 
REMARK       I    between atoms: N_13  and  C_14 
REMARK    6  A    between atoms: C_14  and  C_16 
REMARK    7  A    between atoms: C_20  and  C_21 
REMARK    8  A    between atoms: C_21  and  O_22 
REMARK    9  A    between atoms: O_22  and  C_23 
ROOT
ATOM      1  N   UNL d   1      26.928 -17.820  -0.884  0.00  0.00    -0.260 N 
ATOM      2  C   UNL d   1      26.048 -18.200   0.129  0.00  0.00     0.294 C 
ATOM      3  O   UNL d   1      26.488 -18.573   1.225  0.00  0.00    -0.264 OA
ATOM      4  H   UNL d   1      26.562 -17.454  -1.748  0.00  0.00     0.190 HD
ENDROOT
BRANCH   1   5
ATOM      5  N   UNL d   1      28.299 -17.659  -0.549  0.00  0.00    -0.249 N 
ATOM      6  C   UNL d   1      29.230 -16.907  -1.219  0.00  0.00     0.334 C 
ATOM      7  O   UNL d   1      30.413 -16.902  -0.888  0.00  0.00    -0.246 OA
ATOM      8  N   UNL d   1      28.769 -16.155  -2.268  0.00  0.00    -0.342 N 
ATOM      9  H   UNL d   1      27.787 -16.191  -2.471  0.00  0.00     0.164 HD
ATOM     10  H   UNL d   1      28.637 -18.232   0.230  0.00  0.00     0.192 HD
BRANCH   8  11
ATOM     11  C   UNL d   1      29.660 -15.315  -3.048  0.00  0.00     0.126 C 
BRANCH  11  12
ATOM     12  C   UNL d   1      30.001 -14.013  -2.326  0.00  0.00     0.040 C 
BRANCH  12  13
ATOM     13  C   UNL d   1      28.771 -13.379  -1.684  0.00  0.00     0.130 C 
BRANCH  13  14
ATOM     14  N   UNL d   1      28.482 -13.979  -0.369  0.00  0.00    -0.352 N 
ATOM     15  C   UNL d   1      27.221 -14.312   0.118  0.00  0.00     0.108 A 
ATOM     16  C   UNL d   1      27.405 -14.865   1.354  0.00  0.00     0.106 A 
ATOM     17  N   UNL d   1      28.760 -14.851   1.584  0.00  0.00    -0.361 N 
ATOM     18  C   UNL d   1      29.409 -14.323   0.542  0.00  0.00     0.182 A 
ATOM     19  H   UNL d   1      29.215 -15.199   2.424  0.00  0.00     0.166 HD
ENDBRANCH  13  14
ENDBRANCH  12  13
ENDBRANCH  11  12
ENDBRANCH   8  11
ENDBRANCH   1   5
BRANCH   2  20
ATOM     20  C   UNL d   1      24.623 -18.085  -0.175  0.00  0.00     0.152 A 
ATOM     21  O   UNL d   1      23.744 -19.064   0.230  0.00  0.00    -0.316 OA
ATOM     22  C   UNL d   1      22.488 -18.634  -0.081  0.00  0.00     0.143 A 
ATOM     23  C   UNL d   1      22.533 -17.431  -0.736  0.00  0.00     0.037 A 
ATOM     24  C   UNL d   1      23.906 -17.076  -0.816  0.00  0.00     0.007 A 
BRANCH  24  25
ATOM     25  C   UNL d   1      24.446 -15.851  -1.470  0.00  0.00     0.217 C 
BRANCH  25  26
ATOM     26  O   UNL d   1      25.474 -16.200  -2.379  0.00  0.00    -0.347 OA
BRANCH  26  27
ATOM     27  C   UNL d   1      25.872 -15.284  -3.297  0.00  0.00     0.069 A 
ATOM     28  C   UNL d   1      25.525 -13.973  -2.969  0.00  0.00     0.037 A 
ATOM     29  C   UNL d   1      25.820 -12.930  -3.842  0.00  0.00     0.003 A 
ATOM     30  C   UNL d   1      26.513 -13.195  -5.020  0.00  0.00     0.000 A 
ATOM     31  C   UNL d   1      26.853 -14.506  -5.353  0.00  0.00     0.003 A 
ATOM     32  C   UNL d   1      26.517 -15.555  -4.500  0.00  0.00     0.037 A 
ENDBRANCH  26  27
ENDBRANCH  25  26
ENDBRANCH  24  25
ENDBRANCH   2  20
TORSDOF 9
ENDMDL
