MODEL 1
REMARK VINA RESULT:    -8.425      0.000      0.000
REMARK INTER + INTRA:         -11.858
REMARK INTER:                  -9.917
REMARK INTRA:                  -1.942
REMARK CONF_INDEPENDENT:        1.492
REMARK UNBOUND:                -1.942
REMARK  5 active torsions:
REMARK  status: ('A' for Active; 'I' for Inactive)
REMARK    1  A    between atoms: CA_2  and  N_5 
REMARK    2  A    between atoms: CA_2  and  C_3 
REMARK    3  A    between atoms: C_3  and  O_4 
REMARK       I    between atoms: N_5  and  C_6 
REMARK    4  A    between atoms: C_6  and  C_8 
REMARK       I    between atoms: C_8  and  N_10 
REMARK    5  A    between atoms: N_10  and  C_11 
ROOT
ATOM      1  C   UNK d   0      23.030 -18.620  -0.529  0.00  0.00     0.314 C 
ATOM      2  O   UNK d   0      23.565 -19.720  -0.423  0.00  0.00    -0.262 OA
ATOM      3  N   UNK d   0      23.668 -17.386  -0.676  0.00  0.00    -0.318 N 
ATOM      4  H   UNK d   0      23.109 -16.559  -0.494  0.00  0.00     0.169 HD
ENDROOT
BRANCH   3   5
ATOM      5  C   UNK d   0      25.086 -17.291  -0.733  0.00  0.00     0.046 A 
ATOM      6  C   UNK d   0      25.814 -17.986   0.241  0.00  0.00     0.030 A 
ATOM      7  C   UNK d   0      27.190 -17.836   0.354  0.00  0.00     0.003 A 
ATOM      8  C   UNK d   0      27.864 -16.991  -0.517  0.00  0.00     0.012 A 
ATOM      9  C   UNK d   0      27.183 -16.343  -1.557  0.00  0.00    -0.024 A 
ATOM     10  C   UNK d   0      27.908 -15.521  -2.439  0.00  0.00     0.012 A 
ATOM     11  C   UNK d   0      25.774 -16.501  -1.702  0.00  0.00     0.001 A 
ATOM     12  C   UNK d   0      27.269 -14.853  -3.479  0.00  0.00     0.001 A 
ATOM     13  C   UNK d   0      25.897 -14.998  -3.645  0.00  0.00     0.001 A 
ATOM     14  C   UNK d   0      25.157 -15.804  -2.767  0.00  0.00     0.014 A 
ENDBRANCH   3   5
BRANCH   1  15
ATOM     15  C   UNK d   0      21.490 -18.561  -0.414  0.00  0.00     0.310 C 
ATOM     16  N   ALA d   1      20.947 -19.443   0.505  0.00  0.00    -0.347 N 
ATOM     17  H   ALA d   1      21.581 -20.162   0.863  0.00  0.00     0.163 HD
ATOM     18  O   UNK d   0      20.862 -17.759  -1.098  0.00  0.00    -0.262 OA
BRANCH  16  19
ATOM     19  CA  ALA d   1      19.512 -19.573   0.792  0.00  0.00     0.104 C 
ATOM     20  CB  ALA d   1      19.282 -20.450   2.023  0.00  0.00     0.034 C 
BRANCH  19  21
ATOM     21  C   ALA d   1      18.732 -20.198  -0.394  0.00  0.00     0.189 C 
BRANCH  21  22
ATOM     22  O   ALA d   1      19.231 -19.699  -1.634  0.00  0.00    -0.399 OA
ATOM     23  H   ALA d   1      19.004 -18.751  -1.646  0.00  0.00     0.209 HD
ENDBRANCH  21  22
ENDBRANCH  19  21
ENDBRANCH  16  19
ENDBRANCH   1  15
TORSDOF 5
ENDMDL
MODEL 2
REMARK VINA RESULT:    -8.021      1.168      2.792
REMARK INTER + INTRA:         -10.984
REMARK INTER:                  -9.513
REMARK INTRA:                  -1.471
REMARK CONF_INDEPENDENT:        1.492
REMARK UNBOUND:                -1.471
REMARK  5 active torsions:
REMARK  status: ('A' for Active; 'I' for Inactive)
REMARK    1  A    between atoms: CA_2  and  N_5 
REMARK    2  A    between atoms: CA_2  and  C_3 
REMARK    3  A    between atoms: C_3  and  O_4 
REMARK       I    between atoms: N_5  and  C_6 
REMARK    4  A    between atoms: C_6  and  C_8 
REMARK       I    between atoms: C_8  and  N_10 
REMARK    5  A    between atoms: N_10  and  C_11 
ROOT
ATOM      1  C   UNK d   0      22.760 -18.160  -0.996  0.00  0.00     0.314 C 
ATOM      2  O   UNK d   0      23.583 -19.063  -1.119  0.00  0.00    -0.262 OA
ATOM      3  N   UNK d   0      22.994 -16.787  -1.113  0.00  0.00    -0.318 N 
ATOM      4  H   UNK d   0      22.283 -16.169  -0.737  0.00  0.00     0.169 HD
ENDROOT
BRANCH   3   5
ATOM      5  C   UNK d   0      24.288 -16.284  -1.419  0.00  0.00     0.046 A 
ATOM      6  C   UNK d   0      24.374 -15.287  -2.400  0.00  0.00     0.030 A 
ATOM      7  C   UNK d   0      25.602 -14.841  -2.868  0.00  0.00     0.003 A 
ATOM      8  C   UNK d   0      26.773 -15.381  -2.352  0.00  0.00     0.012 A 
ATOM      9  C   UNK d   0      26.731 -16.321  -1.313  0.00  0.00    -0.024 A 
ATOM     10  C   UNK d   0      27.940 -16.820  -0.796  0.00  0.00     0.012 A 
ATOM     11  C   UNK d   0      25.479 -16.775  -0.805  0.00  0.00     0.001 A 
ATOM     12  C   UNK d   0      27.943 -17.759   0.231  0.00  0.00     0.001 A 
ATOM     13  C   UNK d   0      26.735 -18.212   0.748  0.00  0.00     0.001 A 
ATOM     14  C   UNK d   0      25.520 -17.734   0.235  0.00  0.00     0.014 A 
ENDBRANCH   3   5
BRANCH   1  15
ATOM     15  C   UNK d   0      21.321 -18.555  -0.594  0.00  0.00     0.310 C 
ATOM     16  N   ALA d   1      21.226 -19.741   0.116  0.00  0.00    -0.347 N 
ATOM     17  H   ALA d   1      22.070 -20.319   0.133  0.00  0.00     0.163 HD
ATOM     18  O   UNK d   0      20.385 -17.821  -0.896  0.00  0.00    -0.262 OA
BRANCH  16  19
ATOM     19  CA  ALA d   1      19.970 -20.323   0.607  0.00  0.00     0.104 C 
ATOM     20  CB  ALA d   1      18.834 -20.077  -0.386  0.00  0.00     0.034 C 
BRANCH  19  21
ATOM     21  C   ALA d   1      19.546 -19.730   1.976  0.00  0.00     0.189 C 
BRANCH  21  22
ATOM     22  O   ALA d   1      20.658 -19.098   2.608  0.00  0.00    -0.399 OA
ATOM     23  H   ALA d   1      21.398 -19.728   2.529  0.00  0.00     0.209 HD
ENDBRANCH  21  22
ENDBRANCH  19  21
ENDBRANCH  16  19
ENDBRANCH   1  15
TORSDOF 5
ENDMDL
MODEL 3
REMARK VINA RESULT:    -6.337      3.913      7.384
REMARK INTER + INTRA:         -10.043
REMARK INTER:                  -7.828
REMARK INTRA:                  -2.215
REMARK CONF_INDEPENDENT:        1.492
REMARK UNBOUND:                -2.215
REMARK  5 active torsions:
REMARK  status: ('A' for Active; 'I' for Inactive)
REMARK    1  A    between atoms: CA_2  and  N_5 
REMARK    2  A    between atoms: CA_2  and  C_3 
REMARK    3  A    between atoms: C_3  and  O_4 
REMARK       I    between atoms: N_5  and  C_6 
REMARK    4  A    between atoms: C_6  and  C_8 
REMARK       I    between atoms: C_8  and  N_10 
REMARK    5  A    between atoms: N_10  and  C_11 
ROOT
ATOM      1  C   UNK d   0      25.765 -14.555  -3.012  0.00  0.00     0.314 C 
ATOM      2  O   UNK d   0      25.680 -15.466  -3.831  0.00  0.00    -0.262 OA
ATOM      3  N   UNK d   0      25.824 -14.678  -1.621  0.00  0.00    -0.318 N 
ATOM      4  H   UNK d   0      25.635 -13.840  -1.081  0.00  0.00     0.169 HD
ENDROOT
BRANCH   3   5
ATOM      5  C   UNK d   0      25.802 -15.954  -0.993  0.00  0.00     0.046 A 
ATOM      6  C   UNK d   0      27.034 -16.500  -0.608  0.00  0.00     0.030 A 
ATOM      7  C   UNK d   0      27.126 -17.797  -0.123  0.00  0.00     0.003 A 
ATOM      8  C   UNK d   0      25.979 -18.571  -0.006  0.00  0.00     0.012 A 
ATOM      9  C   UNK d   0      24.719 -18.035  -0.304  0.00  0.00    -0.024 A 
ATOM     10  C   UNK d   0      23.579 -18.841  -0.141  0.00  0.00     0.012 A 
ATOM     11  C   UNK d   0      24.603 -16.697  -0.782  0.00  0.00     0.001 A 
ATOM     12  C   UNK d   0      22.310 -18.349  -0.432  0.00  0.00     0.001 A 
ATOM     13  C   UNK d   0      22.170 -17.046  -0.893  0.00  0.00     0.001 A 
ATOM     14  C   UNK d   0      23.298 -16.232  -1.073  0.00  0.00     0.014 A 
ENDBRANCH   3   5
BRANCH   1  15
ATOM     15  C   UNK d   0      25.729 -13.106  -3.549  0.00  0.00     0.310 C 
ATOM     16  N   ALA d   1      25.984 -12.987  -4.905  0.00  0.00    -0.347 N 
ATOM     17  H   ALA d   1      26.353 -13.824  -5.364  0.00  0.00     0.163 HD
ATOM     18  O   UNK d   0      25.470 -12.183  -2.782  0.00  0.00    -0.262 OA
BRANCH  16  19
ATOM     19  CA  ALA d   1      26.005 -11.717  -5.643  0.00  0.00     0.104 C 
ATOM     20  CB  ALA d   1      27.033 -11.765  -6.773  0.00  0.00     0.034 C 
BRANCH  19  21
ATOM     21  C   ALA d   1      26.353 -10.514  -4.728  0.00  0.00     0.189 C 
BRANCH  21  22
ATOM     22  O   ALA d   1      25.169  -9.981  -4.138  0.00  0.00    -0.399 OA
ATOM     23  H   ALA d   1      24.537 -10.723  -4.101  0.00  0.00     0.209 HD
ENDBRANCH  21  22
ENDBRANCH  19  21
ENDBRANCH  16  19
ENDBRANCH   1  15
TORSDOF 5
ENDMDL
MODEL 4
REMARK VINA RESULT:    -5.709      2.761      5.005
REMARK INTER + INTRA:          -9.532
REMARK INTER:                  -7.200
REMARK INTRA:                  -2.332
REMARK CONF_INDEPENDENT:        1.492
REMARK UNBOUND:                -2.332
REMARK  5 active torsions:
REMARK  status: ('A' for Active; 'I' for Inactive)
REMARK    1  A    between atoms: CA_2  and  N_5 
REMARK    2  A    between atoms: CA_2  and  C_3 
REMARK    3  A    between atoms: C_3  and  O_4 
REMARK       I    between atoms: N_5  and  C_6 
REMARK    4  A    between atoms: C_6  and  C_8 
REMARK       I    between atoms: C_8  and  N_10 
REMARK    5  A    between atoms: N_10  and  C_11 
ROOT
ATOM      1  C   UNK d   0      24.872 -15.040  -2.405  0.00  0.00     0.314 C 
ATOM      2  O   UNK d   0      23.868 -14.584  -2.945  0.00  0.00    -0.262 OA
ATOM      3  N   UNK d   0      26.197 -14.662  -2.637  0.00  0.00    -0.318 N 
ATOM      4  H   UNK d   0      26.917 -15.298  -2.309  0.00  0.00     0.169 HD
ENDROOT
BRANCH   3   5
ATOM      5  C   UNK d   0      26.518 -13.639  -3.571  0.00  0.00     0.046 A 
ATOM      6  C   UNK d   0      25.932 -12.383  -3.372  0.00  0.00     0.030 A 
ATOM      7  C   UNK d   0      26.069 -11.367  -4.309  0.00  0.00     0.003 A 
ATOM      8  C   UNK d   0      26.807 -11.592  -5.463  0.00  0.00     0.012 A 
ATOM      9  C   UNK d   0      27.477 -12.807  -5.661  0.00  0.00    -0.024 A 
ATOM     10  C   UNK d   0      28.241 -12.983  -6.828  0.00  0.00     0.012 A 
ATOM     11  C   UNK d   0      27.365 -13.853  -4.699  0.00  0.00     0.001 A 
ATOM     12  C   UNK d   0      28.915 -14.177  -7.066  0.00  0.00     0.001 A 
ATOM     13  C   UNK d   0      28.828 -15.209  -6.139  0.00  0.00     0.001 A 
ATOM     14  C   UNK d   0      28.060 -15.055  -4.976  0.00  0.00     0.014 A 
ENDBRANCH   3   5
BRANCH   1  15
ATOM     15  C   UNK d   0      24.680 -16.211  -1.414  0.00  0.00     0.310 C 
ATOM     16  N   ALA d   1      23.369 -16.630  -1.265  0.00  0.00    -0.347 N 
ATOM     17  H   ALA d   1      22.655 -16.014  -1.663  0.00  0.00     0.163 HD
ATOM     18  O   UNK d   0      25.658 -16.696  -0.853  0.00  0.00    -0.262 OA
BRANCH  16  19
ATOM     19  CA  ALA d   1      22.936 -17.723  -0.383  0.00  0.00     0.104 C 
ATOM     20  CB  ALA d   1      23.866 -18.928  -0.517  0.00  0.00     0.034 C 
BRANCH  19  21
ATOM     21  C   ALA d   1      21.492 -18.194  -0.700  0.00  0.00     0.189 C 
BRANCH  21  22
ATOM     22  O   ALA d   1      20.737 -17.127  -1.270  0.00  0.00    -0.399 OA
ATOM     23  H   ALA d   1      20.129 -17.546  -1.907  0.00  0.00     0.209 HD
ENDBRANCH  21  22
ENDBRANCH  19  21
ENDBRANCH  16  19
ENDBRANCH   1  15
TORSDOF 5
ENDMDL
MODEL 5
REMARK VINA RESULT:    -5.456      4.818      7.698
REMARK INTER + INTRA:          -9.345
REMARK INTER:                  -6.947
REMARK INTRA:                  -2.397
REMARK CONF_INDEPENDENT:        1.492
REMARK UNBOUND:                -2.397
REMARK  5 active torsions:
REMARK  status: ('A' for Active; 'I' for Inactive)
REMARK    1  A    between atoms: CA_2  and  N_5 
REMARK    2  A    between atoms: CA_2  and  C_3 
REMARK    3  A    between atoms: C_3  and  O_4 
REMARK       I    between atoms: N_5  and  C_6 
REMARK    4  A    between atoms: C_6  and  C_8 
REMARK       I    between atoms: C_8  and  N_10 
REMARK    5  A    between atoms: N_10  and  C_11 
ROOT
ATOM      1  C   UNK d   0      27.312 -14.072   1.569  0.00  0.00     0.314 C 
ATOM      2  O   UNK d   0      26.307 -13.366   1.555  0.00  0.00    -0.262 OA
ATOM      3  N   UNK d   0      27.677 -15.031   0.621  0.00  0.00    -0.318 N 
ATOM      4  H   UNK d   0      28.388 -15.700   0.900  0.00  0.00     0.169 HD
ENDROOT
BRANCH   3   5
ATOM      5  C   UNK d   0      26.872 -15.280  -0.524  0.00  0.00     0.046 A 
ATOM      6  C   UNK d   0      26.964 -14.367  -1.583  0.00  0.00     0.030 A 
ATOM      7  C   UNK d   0      26.112 -14.446  -2.677  0.00  0.00     0.003 A 
ATOM      8  C   UNK d   0      25.155 -15.450  -2.733  0.00  0.00     0.012 A 
ATOM      9  C   UNK d   0      25.086 -16.431  -1.734  0.00  0.00    -0.024 A 
ATOM     10  C   UNK d   0      24.124 -17.450  -1.844  0.00  0.00     0.012 A 
ATOM     11  C   UNK d   0      25.966 -16.379  -0.614  0.00  0.00     0.001 A 
ATOM     12  C   UNK d   0      24.016 -18.438  -0.870  0.00  0.00     0.001 A 
ATOM     13  C   UNK d   0      24.869 -18.414   0.227  0.00  0.00     0.001 A 
ATOM     14  C   UNK d   0      25.826 -17.397   0.359  0.00  0.00     0.014 A 
ENDBRANCH   3   5
BRANCH   1  15
ATOM     15  C   UNK d   0      28.248 -13.958   2.794  0.00  0.00     0.310 C 
ATOM     16  N   ALA d   1      27.677 -13.352   3.900  0.00  0.00    -0.347 N 
ATOM     17  H   ALA d   1      26.785 -12.878   3.739  0.00  0.00     0.163 HD
ATOM     18  O   UNK d   0      29.388 -14.408   2.728  0.00  0.00    -0.262 OA
BRANCH  16  19
ATOM     19  CA  ALA d   1      28.365 -13.131   5.180  0.00  0.00     0.104 C 
ATOM     20  CB  ALA d   1      29.581 -12.224   4.991  0.00  0.00     0.034 C 
BRANCH  19  21
ATOM     21  C   ALA d   1      28.852 -14.458   5.819  0.00  0.00     0.189 C 
BRANCH  21  22
ATOM     22  O   ALA d   1      28.310 -15.575   5.116  0.00  0.00    -0.399 OA
ATOM     23  H   ALA d   1      28.896 -15.712   4.349  0.00  0.00     0.209 HD
ENDBRANCH  21  22
ENDBRANCH  19  21
ENDBRANCH  16  19
ENDBRANCH   1  15
TORSDOF 5
ENDMDL
