MODEL 1
REMARK VINA RESULT:    -7.827      0.000      0.000
REMARK INTER + INTRA:         -10.922
REMARK INTER:                  -9.318
REMARK INTRA:                  -1.603
REMARK CONF_INDEPENDENT:        1.492
REMARK UNBOUND:                -1.603
REMARK  5 active torsions:
REMARK  status: ('A' for Active; 'I' for Inactive)
REMARK    1  A    between atoms: S_2  and  C_3 
REMARK    2  A    between atoms: C_8  and  N_9 
REMARK       I    between atoms: N_9  and  C_10 
REMARK    3  A    between atoms: C_12  and  C_10 
REMARK    4  A    between atoms: C_12  and  N_14 
REMARK       I    between atoms: N_14  and  C_15 
REMARK    5  A    between atoms: C_15  and  C_17 
ROOT
ATOM      1  C   UNL d   1      26.689 -13.438  -3.516  0.00  0.00     0.173 C 
ATOM      2  C   UNL d   1      25.959 -12.465  -4.446  0.00  0.00     0.042 C 
ENDROOT
BRANCH   1   3
ATOM      3  N   UNL d   1      27.920 -13.966  -4.109  0.00  0.00    -0.344 N 
ATOM      4  C   UNL d   1      27.876 -14.896  -5.137  0.00  0.00     0.254 C 
ATOM      5  O   UNL d   1      26.869 -15.200  -5.761  0.00  0.00    -0.268 OA
ATOM      6  H   UNL d   1      28.758 -13.949  -3.544  0.00  0.00     0.163 HD
BRANCH   4   7
ATOM      7  C   UNL d   1      29.153 -15.558  -5.499  0.00  0.00     0.053 A 
ATOM      8  C   UNL d   1      29.642 -15.413  -6.812  0.00  0.00     0.019 A 
ATOM      9  C   UNL d   1      30.772 -16.126  -7.228  0.00  0.00     0.001 A 
ATOM     10  C   UNL d   1      31.438 -16.954  -6.327  0.00  0.00     0.002 A 
ATOM     11  C   UNL d   1      30.961 -17.094  -5.024  0.00  0.00     0.025 A 
ATOM     12  C   UNL d   1      29.817 -16.407  -4.609  0.00  0.00     0.049 A 
ATOM     13 CL   UNL d   1      29.275 -16.696  -2.992  0.00  0.00    -0.083 Cl
ENDBRANCH   4   7
ENDBRANCH   1   3
BRANCH   1  14
ATOM     14  C   UNL d   1      25.743 -14.595  -3.170  0.00  0.00     0.244 C 
ATOM     15  N   UNL d   1      26.125 -15.304  -2.040  0.00  0.00    -0.324 N 
ATOM     16  H   UNL d   1      27.102 -15.254  -1.795  0.00  0.00     0.169 HD
ATOM     17  O   UNL d   1      24.780 -14.825  -3.897  0.00  0.00    -0.271 OA
BRANCH  15  18
ATOM     18  C   UNL d   1      25.412 -16.299  -1.347  0.00  0.00     0.051 C 
ATOM     19  C   UNL d   1      24.030 -16.353  -1.645  0.00  0.00     0.031 C 
ATOM     20  C   UNL d   1      23.197 -17.282  -1.025  0.00  0.00     0.002 C 
ATOM     21  C   UNL d   1      23.723 -18.129  -0.061  0.00  0.00     0.002 C 
ATOM     22  C   UNL d   1      25.075 -18.061   0.262  0.00  0.00     0.021 C 
ATOM     23  C   UNL d   1      25.953 -17.229  -0.441  0.00  0.00     0.026 C 
BRANCH  23  24
ATOM     24  S   UNL d   1      27.669 -17.656  -0.154  0.00  0.00    -0.132 SA
ATOM     25  C   UNL d   1      28.338 -16.055   0.373  0.00  0.00     0.095 C 
ENDBRANCH  23  24
ENDBRANCH  15  18
ENDBRANCH   1  14
TORSDOF 5
ENDMDL
MODEL 2
REMARK VINA RESULT:    -7.459      1.948      2.803
REMARK INTER + INTRA:         -11.020
REMARK INTER:                  -8.950
REMARK INTRA:                  -2.070
REMARK CONF_INDEPENDENT:        1.492
REMARK UNBOUND:                -2.070
REMARK  5 active torsions:
REMARK  status: ('A' for Active; 'I' for Inactive)
REMARK    1  A    between atoms: S_2  and  C_3 
REMARK    2  A    between atoms: C_8  and  N_9 
REMARK       I    between atoms: N_9  and  C_10 
REMARK    3  A    between atoms: C_12  and  C_10 
REMARK    4  A    between atoms: C_12  and  N_14 
REMARK       I    between atoms: N_14  and  C_15 
REMARK    5  A    between atoms: C_15  and  C_17 
ROOT
ATOM      1  C   UNL d   1      26.100 -13.231  -3.550  0.00  0.00     0.173 C 
ATOM      2  C   UNL d   1      24.778 -13.479  -4.282  0.00  0.00     0.042 C 
ENDROOT
BRANCH   1   3
ATOM      3  N   UNL d   1      27.266 -13.606  -4.353  0.00  0.00    -0.344 N 
ATOM      4  C   UNL d   1      27.315 -14.821  -5.019  0.00  0.00     0.254 C 
ATOM      5  O   UNL d   1      26.362 -15.575  -5.167  0.00  0.00    -0.268 OA
ATOM      6  H   UNL d   1      28.152 -13.174  -4.127  0.00  0.00     0.163 HD
BRANCH   4   7
ATOM      7  C   UNL d   1      28.622 -15.222  -5.593  0.00  0.00     0.053 A 
ATOM      8  C   UNL d   1      29.297 -16.325  -5.034  0.00  0.00     0.019 A 
ATOM      9  C   UNL d   1      30.588 -16.654  -5.462  0.00  0.00     0.001 A 
ATOM     10  C   UNL d   1      31.195 -15.908  -6.471  0.00  0.00     0.002 A 
ATOM     11  C   UNL d   1      30.526 -14.820  -7.031  0.00  0.00     0.025 A 
ATOM     12  C   UNL d   1      29.247 -14.469  -6.591  0.00  0.00     0.049 A 
ATOM     13 CL   UNL d   1      28.530 -13.067  -7.309  0.00  0.00    -0.083 Cl
ENDBRANCH   4   7
ENDBRANCH   1   3
BRANCH   1  14
ATOM     14  C   UNL d   1      26.097 -14.027  -2.239  0.00  0.00     0.244 C 
ATOM     15  N   UNL d   1      25.839 -15.380  -2.413  0.00  0.00    -0.324 N 
ATOM     16  H   UNL d   1      25.338 -15.631  -3.251  0.00  0.00     0.169 HD
ATOM     17  O   UNL d   1      26.280 -13.440  -1.177  0.00  0.00    -0.271 OA
BRANCH  15  18
ATOM     18  C   UNL d   1      25.930 -16.418  -1.467  0.00  0.00     0.051 C 
ATOM     19  C   UNL d   1      27.248 -16.740  -1.067  0.00  0.00     0.031 C 
ATOM     20  C   UNL d   1      27.491 -17.755  -0.144  0.00  0.00     0.002 C 
ATOM     21  C   UNL d   1      26.426 -18.495   0.347  0.00  0.00     0.002 C 
ATOM     22  C   UNL d   1      25.129 -18.207  -0.066  0.00  0.00     0.021 C 
ATOM     23  C   UNL d   1      24.851 -17.108  -0.887  0.00  0.00     0.026 C 
BRANCH  23  24
ATOM     24  S   UNL d   1      23.109 -16.689  -0.895  0.00  0.00    -0.132 SA
ATOM     25  C   UNL d   1      22.360 -18.333  -0.746  0.00  0.00     0.095 C 
ENDBRANCH  23  24
ENDBRANCH  15  18
ENDBRANCH   1  14
TORSDOF 5
ENDMDL
MODEL 3
REMARK VINA RESULT:    -7.441      3.209      5.504
REMARK INTER + INTRA:         -10.178
REMARK INTER:                  -8.932
REMARK INTRA:                  -1.246
REMARK CONF_INDEPENDENT:        1.492
REMARK UNBOUND:                -1.246
REMARK  5 active torsions:
REMARK  status: ('A' for Active; 'I' for Inactive)
REMARK    1  A    between atoms: S_2  and  C_3 
REMARK    2  A    between atoms: C_8  and  N_9 
REMARK       I    between atoms: N_9  and  C_10 
REMARK    3  A    between atoms: C_12  and  C_10 
REMARK    4  A    between atoms: C_12  and  N_14 
REMARK       I    between atoms: N_14  and  C_15 
REMARK    5  A    between atoms: C_15  and  C_17 
ROOT
ATOM      1  C   UNL d   1      25.401 -14.351  -4.416  0.00  0.00     0.173 C 
ATOM      2  C   UNL d   1      26.624 -14.945  -5.120  0.00  0.00     0.042 C 
ENDROOT
BRANCH   1   3
ATOM      3  N   UNL d   1      25.321 -12.895  -4.558  0.00  0.00    -0.344 N 
ATOM      4  C   UNL d   1      26.391 -12.084  -4.210  0.00  0.00     0.254 C 
ATOM      5  O   UNL d   1      27.519 -12.486  -3.959  0.00  0.00    -0.268 OA
ATOM      6  H   UNL d   1      24.404 -12.471  -4.547  0.00  0.00     0.163 HD
BRANCH   4   7
ATOM      7  C   UNL d   1      26.135 -10.625  -4.148  0.00  0.00     0.053 A 
ATOM      8  C   UNL d   1      26.039 -10.008  -2.884  0.00  0.00     0.019 A 
ATOM      9  C   UNL d   1      25.671  -8.662  -2.782  0.00  0.00     0.001 A 
ATOM     10  C   UNL d   1      25.436  -7.918  -3.937  0.00  0.00     0.002 A 
ATOM     11  C   UNL d   1      25.538  -8.524  -5.189  0.00  0.00     0.025 A 
ATOM     12  C   UNL d   1      25.877  -9.875  -5.299  0.00  0.00     0.049 A 
ATOM     13 CL   UNL d   1      25.919 -10.544  -6.894  0.00  0.00    -0.083 Cl
ENDBRANCH   4   7
ENDBRANCH   1   3
BRANCH   1  14
ATOM     14  C   UNL d   1      25.457 -14.724  -2.929  0.00  0.00     0.244 C 
ATOM     15  N   UNL d   1      25.346 -16.087  -2.695  0.00  0.00    -0.324 N 
ATOM     16  H   UNL d   1      24.889 -16.625  -3.416  0.00  0.00     0.169 HD
ATOM     17  O   UNL d   1      25.557 -13.835  -2.088  0.00  0.00    -0.271 OA
BRANCH  15  18
ATOM     18  C   UNL d   1      25.527 -16.787  -1.487  0.00  0.00     0.051 C 
ATOM     19  C   UNL d   1      26.851 -16.774  -0.990  0.00  0.00     0.031 C 
ATOM     20  C   UNL d   1      27.181 -17.435   0.192  0.00  0.00     0.002 C 
ATOM     21  C   UNL d   1      26.206 -18.160   0.859  0.00  0.00     0.002 C 
ATOM     22  C   UNL d   1      24.908 -18.205   0.359  0.00  0.00     0.021 C 
ATOM     23  C   UNL d   1      24.526 -17.443  -0.750  0.00  0.00     0.026 C 
BRANCH  23  24
ATOM     24  S   UNL d   1      22.745 -17.318  -0.908  0.00  0.00    -0.132 SA
ATOM     25  C   UNL d   1      22.223 -18.880  -0.150  0.00  0.00     0.095 C 
ENDBRANCH  23  24
ENDBRANCH  15  18
ENDBRANCH   1  14
TORSDOF 5
ENDMDL
MODEL 4
REMARK VINA RESULT:    -7.141      3.929      7.150
REMARK INTER + INTRA:         -10.501
REMARK INTER:                  -8.632
REMARK INTRA:                  -1.868
REMARK CONF_INDEPENDENT:        1.492
REMARK UNBOUND:                -1.868
REMARK  5 active torsions:
REMARK  status: ('A' for Active; 'I' for Inactive)
REMARK    1  A    between atoms: S_2  and  C_3 
REMARK    2  A    between atoms: C_8  and  N_9 
REMARK       I    between atoms: N_9  and  C_10 
REMARK    3  A    between atoms: C_12  and  C_10 
REMARK    4  A    between atoms: C_12  and  N_14 
REMARK       I    between atoms: N_14  and  C_15 
REMARK    5  A    between atoms: C_15  and  C_17 
ROOT
ATOM      1  C   UNL d   1      29.101 -15.329   0.003  0.00  0.00     0.173 C 
ATOM      2  C   UNL d   1      30.504 -15.820  -0.369  0.00  0.00     0.042 C 
ENDROOT
BRANCH   1   3
ATOM      3  N   UNL d   1      28.951 -15.092   1.440  0.00  0.00    -0.344 N 
ATOM      4  C   UNL d   1      28.051 -14.152   1.918  0.00  0.00     0.254 C 
ATOM      5  O   UNL d   1      27.191 -13.601   1.244  0.00  0.00    -0.268 OA
ATOM      6  H   UNL d   1      29.732 -15.322   2.039  0.00  0.00     0.163 HD
BRANCH   4   7
ATOM      7  C   UNL d   1      28.145 -13.801   3.356  0.00  0.00     0.053 A 
ATOM      8  C   UNL d   1      28.411 -14.825   4.287  0.00  0.00     0.019 A 
ATOM      9  C   UNL d   1      28.380 -14.558   5.660  0.00  0.00     0.001 A 
ATOM     10  C   UNL d   1      28.121 -13.264   6.108  0.00  0.00     0.002 A 
ATOM     11  C   UNL d   1      27.866 -12.246   5.189  0.00  0.00     0.025 A 
ATOM     12  C   UNL d   1      27.868 -12.511   3.817  0.00  0.00     0.049 A 
ATOM     13 CL   UNL d   1      27.480 -11.193   2.765  0.00  0.00    -0.083 Cl
ENDBRANCH   4   7
ENDBRANCH   1   3
BRANCH   1  14
ATOM     14  C   UNL d   1      28.075 -16.371  -0.460  0.00  0.00     0.244 C 
ATOM     15  N   UNL d   1      26.804 -16.164   0.058  0.00  0.00    -0.324 N 
ATOM     16  H   UNL d   1      26.756 -15.636   0.916  0.00  0.00     0.169 HD
ATOM     17  O   UNL d   1      28.434 -17.289  -1.192  0.00  0.00    -0.271 OA
BRANCH  15  18
ATOM     18  C   UNL d   1      25.601 -16.811  -0.284  0.00  0.00     0.051 C 
ATOM     19  C   UNL d   1      25.211 -17.841   0.603  0.00  0.00     0.031 C 
ATOM     20  C   UNL d   1      24.047 -18.575   0.384  0.00  0.00     0.002 C 
ATOM     21  C   UNL d   1      23.291 -18.326  -0.751  0.00  0.00     0.002 C 
ATOM     22  C   UNL d   1      23.685 -17.336  -1.647  0.00  0.00     0.021 C 
ATOM     23  C   UNL d   1      24.775 -16.500  -1.378  0.00  0.00     0.026 C 
BRANCH  23  24
ATOM     24  S   UNL d   1      24.792 -15.049  -2.429  0.00  0.00    -0.132 SA
ATOM     25  C   UNL d   1      25.949 -15.575  -3.722  0.00  0.00     0.095 C 
ENDBRANCH  23  24
ENDBRANCH  15  18
ENDBRANCH   1  14
TORSDOF 5
ENDMDL
MODEL 5
REMARK VINA RESULT:    -6.939      2.445      3.509
REMARK INTER + INTRA:         -10.287
REMARK INTER:                  -8.430
REMARK INTRA:                  -1.857
REMARK CONF_INDEPENDENT:        1.492
REMARK UNBOUND:                -1.857
REMARK  5 active torsions:
REMARK  status: ('A' for Active; 'I' for Inactive)
REMARK    1  A    between atoms: S_2  and  C_3 
REMARK    2  A    between atoms: C_8  and  N_9 
REMARK       I    between atoms: N_9  and  C_10 
REMARK    3  A    between atoms: C_12  and  C_10 
REMARK    4  A    between atoms: C_12  and  N_14 
REMARK       I    between atoms: N_14  and  C_15 
REMARK    5  A    between atoms: C_15  and  C_17 
ROOT
ATOM      1  C   UNL d   1      28.917 -14.719  -5.893  0.00  0.00     0.173 C 
ATOM      2  C   UNL d   1      28.534 -13.557  -6.814  0.00  0.00     0.042 C 
ENDROOT
BRANCH   1   3
ATOM      3  N   UNL d   1      29.522 -15.838  -6.620  0.00  0.00    -0.344 N 
ATOM      4  C   UNL d   1      30.216 -16.833  -5.949  0.00  0.00     0.254 C 
ATOM      5  O   UNL d   1      30.220 -16.985  -4.735  0.00  0.00    -0.268 OA
ATOM      6  H   UNL d   1      29.754 -15.695  -7.593  0.00  0.00     0.163 HD
BRANCH   4   7
ATOM      7  C   UNL d   1      31.002 -17.780  -6.778  0.00  0.00     0.053 A 
ATOM      8  C   UNL d   1      31.564 -17.317  -7.985  0.00  0.00     0.019 A 
ATOM      9  C   UNL d   1      32.201 -18.209  -8.854  0.00  0.00     0.001 A 
ATOM     10  C   UNL d   1      32.312 -19.554  -8.508  0.00  0.00     0.002 A 
ATOM     11  C   UNL d   1      31.763 -20.013  -7.311  0.00  0.00     0.025 A 
ATOM     12  C   UNL d   1      31.101 -19.135  -6.450  0.00  0.00     0.049 A 
ATOM     13 CL   UNL d   1      30.405 -19.816  -5.020  0.00  0.00    -0.083 Cl
ENDBRANCH   4   7
ENDBRANCH   1   3
BRANCH   1  14
ATOM     14  C   UNL d   1      27.661 -15.200  -5.156  0.00  0.00     0.244 C 
ATOM     15  N   UNL d   1      27.887 -15.513  -3.823  0.00  0.00    -0.324 N 
ATOM     16  H   UNL d   1      28.836 -15.751  -3.579  0.00  0.00     0.169 HD
ATOM     17  O   UNL d   1      26.602 -15.302  -5.770  0.00  0.00    -0.271 OA
BRANCH  15  18
ATOM     18  C   UNL d   1      26.945 -15.814  -2.821  0.00  0.00     0.051 C 
ATOM     19  C   UNL d   1      27.441 -16.615  -1.765  0.00  0.00     0.031 C 
ATOM     20  C   UNL d   1      26.617 -17.000  -0.709  0.00  0.00     0.002 C 
ATOM     21  C   UNL d   1      25.279 -16.638  -0.724  0.00  0.00     0.002 C 
ATOM     22  C   UNL d   1      24.775 -15.879  -1.775  0.00  0.00     0.021 C 
ATOM     23  C   UNL d   1      25.612 -15.370  -2.775  0.00  0.00     0.026 C 
BRANCH  23  24
ATOM     24  S   UNL d   1      24.821 -14.075  -3.728  0.00  0.00    -0.132 SA
ATOM     25  C   UNL d   1      25.899 -12.666  -3.354  0.00  0.00     0.095 C 
ENDBRANCH  23  24
ENDBRANCH  15  18
ENDBRANCH   1  14
TORSDOF 5
ENDMDL
MODEL 6
REMARK VINA RESULT:    -6.758      2.895      5.137
REMARK INTER + INTRA:          -9.958
REMARK INTER:                  -8.250
REMARK INTRA:                  -1.708
REMARK CONF_INDEPENDENT:        1.492
REMARK UNBOUND:                -1.708
REMARK  5 active torsions:
REMARK  status: ('A' for Active; 'I' for Inactive)
REMARK    1  A    between atoms: S_2  and  C_3 
REMARK    2  A    between atoms: C_8  and  N_9 
REMARK       I    between atoms: N_9  and  C_10 
REMARK    3  A    between atoms: C_12  and  C_10 
REMARK    4  A    between atoms: C_12  and  N_14 
REMARK       I    between atoms: N_14  and  C_15 
REMARK    5  A    between atoms: C_15  and  C_17 
ROOT
ATOM      1  C   UNL d   1      25.977 -13.966  -4.603  0.00  0.00     0.173 C 
ATOM      2  C   UNL d   1      27.474 -14.000  -4.283  0.00  0.00     0.042 C 
ENDROOT
BRANCH   1   3
ATOM      3  N   UNL d   1      25.459 -12.601  -4.726  0.00  0.00    -0.344 N 
ATOM      4  C   UNL d   1      26.254 -11.577  -5.217  0.00  0.00     0.254 C 
ATOM      5  O   UNL d   1      27.339 -11.734  -5.761  0.00  0.00    -0.268 OA
ATOM      6  H   UNL d   1      24.689 -12.335  -4.127  0.00  0.00     0.163 HD
BRANCH   4   7
ATOM      7  C   UNL d   1      25.735 -10.195  -5.070  0.00  0.00     0.053 A 
ATOM      8  C   UNL d   1      25.155  -9.567  -6.191  0.00  0.00     0.019 A 
ATOM      9  C   UNL d   1      24.773  -8.223  -6.128  0.00  0.00     0.001 A 
ATOM     10  C   UNL d   1      24.934  -7.512  -4.940  0.00  0.00     0.002 A 
ATOM     11  C   UNL d   1      25.501  -8.132  -3.827  0.00  0.00     0.025 A 
ATOM     12  C   UNL d   1      25.910  -9.467  -3.890  0.00  0.00     0.049 A 
ATOM     13 CL   UNL d   1      26.656 -10.124  -2.474  0.00  0.00    -0.083 Cl
ENDBRANCH   4   7
ENDBRANCH   1   3
BRANCH   1  14
ATOM     14  C   UNL d   1      25.218 -14.710  -3.497  0.00  0.00     0.244 C 
ATOM     15  N   UNL d   1      25.888 -15.828  -3.021  0.00  0.00    -0.324 N 
ATOM     16  H   UNL d   1      26.562 -16.240  -3.647  0.00  0.00     0.169 HD
ATOM     17  O   UNL d   1      24.112 -14.307  -3.149  0.00  0.00    -0.271 OA
BRANCH  15  18
ATOM     18  C   UNL d   1      25.573 -16.631  -1.909  0.00  0.00     0.051 C 
ATOM     19  C   UNL d   1      24.254 -17.142  -1.903  0.00  0.00     0.031 C 
ATOM     20  C   UNL d   1      23.800 -17.944  -0.858  0.00  0.00     0.002 C 
ATOM     21  C   UNL d   1      24.638 -18.200   0.216  0.00  0.00     0.002 C 
ATOM     22  C   UNL d   1      25.926 -17.674   0.234  0.00  0.00     0.021 C 
ATOM     23  C   UNL d   1      26.446 -16.978  -0.863  0.00  0.00     0.026 C 
BRANCH  23  24
ATOM     24  S   UNL d   1      28.229 -16.814  -0.779  0.00  0.00    -0.132 SA
ATOM     25  C   UNL d   1      28.429 -15.051  -1.146  0.00  0.00     0.095 C 
ENDBRANCH  23  24
ENDBRANCH  15  18
ENDBRANCH   1  14
TORSDOF 5
ENDMDL
MODEL 7
REMARK VINA RESULT:    -6.695      3.116      7.568
REMARK INTER + INTRA:          -9.934
REMARK INTER:                  -8.186
REMARK INTRA:                  -1.748
REMARK CONF_INDEPENDENT:        1.492
REMARK UNBOUND:                -1.748
REMARK  5 active torsions:
REMARK  status: ('A' for Active; 'I' for Inactive)
REMARK    1  A    between atoms: S_2  and  C_3 
REMARK    2  A    between atoms: C_8  and  N_9 
REMARK       I    between atoms: N_9  and  C_10 
REMARK    3  A    between atoms: C_12  and  C_10 
REMARK    4  A    between atoms: C_12  and  N_14 
REMARK       I    between atoms: N_14  and  C_15 
REMARK    5  A    between atoms: C_15  and  C_17 
ROOT
ATOM      1  C   UNL d   1      26.234 -14.254  -4.892  0.00  0.00     0.173 C 
ATOM      2  C   UNL d   1      26.378 -12.902  -4.188  0.00  0.00     0.042 C 
ENDROOT
BRANCH   1   3
ATOM      3  N   UNL d   1      26.078 -15.365  -3.951  0.00  0.00    -0.344 N 
ATOM      4  C   UNL d   1      25.155 -15.302  -2.918  0.00  0.00     0.254 C 
ATOM      5  O   UNL d   1      24.282 -14.450  -2.812  0.00  0.00    -0.268 OA
ATOM      6  H   UNL d   1      26.864 -15.988  -3.823  0.00  0.00     0.163 HD
BRANCH   4   7
ATOM      7  C   UNL d   1      25.241 -16.352  -1.874  0.00  0.00     0.053 A 
ATOM      8  C   UNL d   1      24.085 -17.097  -1.568  0.00  0.00     0.019 A 
ATOM      9  C   UNL d   1      24.091 -18.005  -0.503  0.00  0.00     0.001 A 
ATOM     10  C   UNL d   1      25.258 -18.200   0.234  0.00  0.00     0.002 A 
ATOM     11  C   UNL d   1      26.406 -17.469  -0.072  0.00  0.00     0.025 A 
ATOM     12  C   UNL d   1      26.400 -16.541  -1.116  0.00  0.00     0.049 A 
ATOM     13 CL   UNL d   1      27.857 -15.644  -1.375  0.00  0.00    -0.083 Cl
ENDBRANCH   4   7
ENDBRANCH   1   3
BRANCH   1  14
ATOM     14  C   UNL d   1      27.471 -14.489  -5.768  0.00  0.00     0.244 C 
ATOM     15  N   UNL d   1      27.780 -13.415  -6.591  0.00  0.00    -0.324 N 
ATOM     16  H   UNL d   1      27.018 -12.791  -6.809  0.00  0.00     0.169 HD
ATOM     17  O   UNL d   1      28.055 -15.568  -5.711  0.00  0.00    -0.271 OA
BRANCH  15  18
ATOM     18  C   UNL d   1      28.926 -13.218  -7.384  0.00  0.00     0.051 C 
ATOM     19  C   UNL d   1      30.083 -13.892  -6.929  0.00  0.00     0.031 C 
ATOM     20  C   UNL d   1      31.294 -13.781  -7.609  0.00  0.00     0.002 C 
ATOM     21  C   UNL d   1      31.375 -12.953  -8.719  0.00  0.00     0.002 C 
ATOM     22  C   UNL d   1      30.249 -12.261  -9.155  0.00  0.00     0.021 C 
ATOM     23  C   UNL d   1      28.996 -12.461  -8.567  0.00  0.00     0.026 C 
BRANCH  23  24
ATOM     24  S   UNL d   1      27.661 -11.825  -9.580  0.00  0.00    -0.132 SA
ATOM     25  C   UNL d   1      26.795 -10.772  -8.386  0.00  0.00     0.095 C 
ENDBRANCH  23  24
ENDBRANCH  15  18
ENDBRANCH   1  14
TORSDOF 5
ENDMDL
MODEL 8
REMARK VINA RESULT:    -6.526      2.085      6.297
REMARK INTER + INTRA:          -9.977
REMARK INTER:                  -8.017
REMARK INTRA:                  -1.960
REMARK CONF_INDEPENDENT:        1.492
REMARK UNBOUND:                -1.960
REMARK  5 active torsions:
REMARK  status: ('A' for Active; 'I' for Inactive)
REMARK    1  A    between atoms: S_2  and  C_3 
REMARK    2  A    between atoms: C_8  and  N_9 
REMARK       I    between atoms: N_9  and  C_10 
REMARK    3  A    between atoms: C_12  and  C_10 
REMARK    4  A    between atoms: C_12  and  N_14 
REMARK       I    between atoms: N_14  and  C_15 
REMARK    5  A    between atoms: C_15  and  C_17 
ROOT
ATOM      1  C   UNL d   1      25.986 -14.357  -4.458  0.00  0.00     0.173 C 
ATOM      2  C   UNL d   1      26.368 -13.012  -3.835  0.00  0.00     0.042 C 
ENDROOT
BRANCH   1   3
ATOM      3  N   UNL d   1      25.337 -15.257  -3.501  0.00  0.00    -0.344 N 
ATOM      4  C   UNL d   1      25.837 -15.416  -2.218  0.00  0.00     0.254 C 
ATOM      5  O   UNL d   1      26.699 -14.709  -1.711  0.00  0.00    -0.268 OA
ATOM      6  H   UNL d   1      24.780 -16.015  -3.871  0.00  0.00     0.163 HD
BRANCH   4   7
ATOM      7  C   UNL d   1      25.274 -16.524  -1.409  0.00  0.00     0.053 A 
ATOM      8  C   UNL d   1      23.892 -16.786  -1.489  0.00  0.00     0.019 A 
ATOM      9  C   UNL d   1      23.303 -17.735  -0.647  0.00  0.00     0.001 A 
ATOM     10  C   UNL d   1      24.093 -18.451   0.250  0.00  0.00     0.002 A 
ATOM     11  C   UNL d   1      25.463 -18.199   0.327  0.00  0.00     0.025 A 
ATOM     12  C   UNL d   1      26.055 -17.233  -0.492  0.00  0.00     0.049 A 
ATOM     13 CL   UNL d   1      27.749 -16.956  -0.276  0.00  0.00    -0.083 Cl
ENDBRANCH   4   7
ENDBRANCH   1   3
BRANCH   1  14
ATOM     14  C   UNL d   1      27.250 -15.022  -5.016  0.00  0.00     0.244 C 
ATOM     15  N   UNL d   1      28.192 -15.326  -4.043  0.00  0.00    -0.324 N 
ATOM     16  H   UNL d   1      28.142 -14.785  -3.193  0.00  0.00     0.169 HD
ATOM     17  O   UNL d   1      27.354 -15.200  -6.227  0.00  0.00    -0.271 OA
BRANCH  15  18
ATOM     18  C   UNL d   1      29.372 -16.083  -4.171  0.00  0.00     0.051 C 
ATOM     19  C   UNL d   1      29.591 -17.017  -3.132  0.00  0.00     0.031 C 
ATOM     20  C   UNL d   1      30.724 -17.828  -3.121  0.00  0.00     0.002 C 
ATOM     21  C   UNL d   1      31.677 -17.675  -4.117  0.00  0.00     0.002 C 
ATOM     22  C   UNL d   1      31.486 -16.735  -5.125  0.00  0.00     0.021 C 
ATOM     23  C   UNL d   1      30.296 -16.006  -5.228  0.00  0.00     0.026 C 
BRANCH  23  24
ATOM     24  S   UNL d   1      30.114 -15.226  -6.831  0.00  0.00    -0.132 SA
ATOM     25  C   UNL d   1      31.652 -15.740  -7.640  0.00  0.00     0.095 C 
ENDBRANCH  23  24
ENDBRANCH  15  18
ENDBRANCH   1  14
TORSDOF 5
ENDMDL
MODEL 9
REMARK VINA RESULT:    -6.477      1.724      5.980
REMARK INTER + INTRA:         -10.102
REMARK INTER:                  -7.969
REMARK INTRA:                  -2.133
REMARK CONF_INDEPENDENT:        1.492
REMARK UNBOUND:                -2.133
REMARK  5 active torsions:
REMARK  status: ('A' for Active; 'I' for Inactive)
REMARK    1  A    between atoms: S_2  and  C_3 
REMARK    2  A    between atoms: C_8  and  N_9 
REMARK       I    between atoms: N_9  and  C_10 
REMARK    3  A    between atoms: C_12  and  C_10 
REMARK    4  A    between atoms: C_12  and  N_14 
REMARK       I    between atoms: N_14  and  C_15 
REMARK    5  A    between atoms: C_15  and  C_17 
ROOT
ATOM      1  C   UNL d   1      25.997 -14.132  -3.871  0.00  0.00     0.173 C 
ATOM      2  C   UNL d   1      26.604 -12.971  -3.080  0.00  0.00     0.042 C 
ENDROOT
BRANCH   1   3
ATOM      3  N   UNL d   1      25.129 -14.980  -3.049  0.00  0.00    -0.344 N 
ATOM      4  C   UNL d   1      25.555 -15.460  -1.820  0.00  0.00     0.254 C 
ATOM      5  O   UNL d   1      26.560 -15.081  -1.233  0.00  0.00    -0.268 OA
ATOM      6  H   UNL d   1      24.405 -15.507  -3.519  0.00  0.00     0.163 HD
BRANCH   4   7
ATOM      7  C   UNL d   1      24.720 -16.505  -1.180  0.00  0.00     0.053 A 
ATOM      8  C   UNL d   1      23.318 -16.371  -1.222  0.00  0.00     0.019 A 
ATOM      9  C   UNL d   1      22.502 -17.265  -0.521  0.00  0.00     0.001 A 
ATOM     10  C   UNL d   1      23.077 -18.315   0.192  0.00  0.00     0.002 A 
ATOM     11  C   UNL d   1      24.464 -18.455   0.229  0.00  0.00     0.025 A 
ATOM     12  C   UNL d   1      25.288 -17.550  -0.446  0.00  0.00     0.049 A 
ATOM     13 CL   UNL d   1      26.995 -17.778  -0.288  0.00  0.00    -0.083 Cl
ENDBRANCH   4   7
ENDBRANCH   1   3
BRANCH   1  14
ATOM     14  C   UNL d   1      27.133 -14.975  -4.463  0.00  0.00     0.244 C 
ATOM     15  N   UNL d   1      28.073 -15.375  -3.524  0.00  0.00    -0.324 N 
ATOM     16  H   UNL d   1      28.137 -14.808  -2.692  0.00  0.00     0.169 HD
ATOM     17  O   UNL d   1      27.152 -15.200  -5.670  0.00  0.00    -0.271 OA
BRANCH  15  18
ATOM     18  C   UNL d   1      29.135 -16.286  -3.679  0.00  0.00     0.051 C 
ATOM     19  C   UNL d   1      29.484 -16.564  -5.021  0.00  0.00     0.031 C 
ATOM     20  C   UNL d   1      30.510 -17.456  -5.327  0.00  0.00     0.002 C 
ATOM     21  C   UNL d   1      31.161 -18.120  -4.298  0.00  0.00     0.002 C 
ATOM     22  C   UNL d   1      30.802 -17.877  -2.976  0.00  0.00     0.021 C 
ATOM     23  C   UNL d   1      29.868 -16.890  -2.642  0.00  0.00     0.026 C 
BRANCH  23  24
ATOM     24  S   UNL d   1      29.923 -16.463  -0.903  0.00  0.00    -0.132 SA
ATOM     25  C   UNL d   1      31.488 -15.550  -0.823  0.00  0.00     0.095 C 
ENDBRANCH  23  24
ENDBRANCH  15  18
ENDBRANCH   1  14
TORSDOF 5
ENDMDL
