MODEL 1
REMARK VINA RESULT:    -9.305      0.000      0.000
REMARK INTER + INTRA:         -14.593
REMARK INTER:                 -12.587
REMARK INTRA:                  -2.007
REMARK CONF_INDEPENDENT:        3.281
REMARK UNBOUND:                -2.007
REMARK  11 active torsions:
REMARK  status: ('A' for Active; 'I' for Inactive)
REMARK    1  A    between atoms: C_2  and  C_3 
REMARK    2  A    between atoms: C_3  and  C_4 
REMARK    3  A    between atoms: C_4  and  O_5 
REMARK    4  A    between atoms: O_5  and  C_6 
REMARK    5  A    between atoms: C_11  and  N_12 
REMARK    6  A    between atoms: N_12  and  C_13 
REMARK    7  A    between atoms: C_13  and  C_14 
REMARK       I    between atoms: C_14  and  N_16 
REMARK    8  A    between atoms: N_16  and  C_17 
REMARK    9  A    between atoms: C_21  and  C_22 
REMARK       I    between atoms: C_22  and  N_24 
REMARK   10  A    between atoms: N_24  and  C_25 
REMARK   11  A    between atoms: C_29  and  C_30 
ROOT
ATOM      1  C   UNL d   1      25.973 -15.528  -1.052  0.00  0.00     0.035 A 
ATOM      2  C   UNL d   1      26.996 -16.086  -0.288  0.00  0.00     0.029 A 
ATOM      3  C   UNL d   1      26.787 -17.328   0.313  0.00  0.00     0.003 A 
ATOM      4  C   UNL d   1      25.566 -17.990   0.143  0.00  0.00     0.017 A 
ATOM      5  C   UNL d   1      24.581 -17.467  -0.706  0.00  0.00     0.034 A 
ATOM      6  C   UNL d   1      24.809 -16.244  -1.307  0.00  0.00     0.046 A 
ENDROOT
BRANCH   1   7
ATOM      7  N   UNL d   1      26.084 -14.236  -1.576  0.00  0.00    -0.326 N 
ATOM      8  C   UNL d   1      25.504 -13.903  -2.824  0.00  0.00     0.239 C 
ATOM      9  O   UNL d   1      24.780 -14.607  -3.493  0.00  0.00    -0.271 OA
ATOM     10  H   UNL d   1      26.464 -13.522  -0.961  0.00  0.00     0.169 HD
BRANCH   8  11
ATOM     11  C   UNL d   1      26.018 -12.599  -3.341  0.00  0.00     0.223 C 
BRANCH  11  12
ATOM     12  N   UNL d   1      25.898 -12.246  -4.726  0.00  0.00    -0.379 N 
ATOM     13  H   UNL d   1      24.934 -12.282  -5.054  0.00  0.00     0.160 HD
BRANCH  12  14
ATOM     14  C   UNL d   1      26.882 -12.651  -5.657  0.00  0.00     0.062 A 
ATOM     15  C   UNL d   1      27.575 -11.550  -6.231  0.00  0.00     0.032 A 
ATOM     16  C   UNL d   1      28.720 -11.691  -7.020  0.00  0.00     0.002 A 
ATOM     17  C   UNL d   1      29.221 -12.956  -7.272  0.00  0.00     0.003 A 
ATOM     18  C   UNL d   1      28.547 -14.072  -6.774  0.00  0.00     0.039 A 
ATOM     19  C   UNL d   1      27.405 -13.954  -5.946  0.00  0.00     0.095 A 
BRANCH  19  20
ATOM     20  O   UNL d   1      27.087 -15.196  -5.397  0.00  0.00    -0.349 OA
BRANCH  20  21
ATOM     21  C   UNL d   1      27.785 -15.577  -4.227  0.00  0.00     0.175 C 
BRANCH  21  22
ATOM     22  C   UNL d   1      29.167 -14.990  -3.980  0.00  0.00     0.026 C 
BRANCH  22  23
ATOM     23  C   UNL d   1      30.104 -16.081  -3.402  0.00  0.00    -0.002 C 
ATOM     24  C   UNL d   1      29.779 -16.312  -1.944  0.00  0.00     0.005 C 
ENDBRANCH  22  23
ENDBRANCH  21  22
ENDBRANCH  20  21
ENDBRANCH  19  20
ENDBRANCH  12  14
ENDBRANCH  11  12
ENDBRANCH   8  11
ENDBRANCH   1   7
BRANCH   5  25
ATOM     25  C   UNL d   1      23.331 -18.231  -0.947  0.00  0.00     0.256 C 
ATOM     26  O   UNL d   1      23.255 -18.866  -1.993  0.00  0.00    -0.267 OA
ATOM     27  N   UNL d   1      22.303 -18.127  -0.009  0.00  0.00    -0.323 N 
ATOM     28  H   UNL d   1      22.355 -17.487   0.769  0.00  0.00     0.169 HD
BRANCH  27  29
ATOM     29  C   UNL d   1      21.130 -18.899  -0.075  0.00  0.00     0.035 A 
ATOM     30  C   UNL d   1      20.417 -19.014  -1.270  0.00  0.00     0.029 A 
ATOM     31  C   UNL d   1      19.197 -19.700  -1.286  0.00  0.00     0.003 A 
ATOM     32  C   UNL d   1      18.706 -20.284  -0.116  0.00  0.00     0.016 A 
ATOM     33  C   UNL d   1      19.412 -20.155   1.085  0.00  0.00     0.050 A 
ATOM     34  C   UNL d   1      20.627 -19.472   1.087  0.00  0.00     0.045 A 
BRANCH  33  35
ATOM     35  C   UNL d   1      18.863 -20.675   2.382  0.00  0.00     0.417 C 
ATOM     36  F   UNL d   1      18.404 -21.952   2.261  0.00  0.00    -0.166 F 
ATOM     37  F   UNL d   1      19.791 -20.699   3.375  0.00  0.00    -0.166 F 
ATOM     38  F   UNL d   1      17.813 -19.954   2.864  0.00  0.00    -0.166 F 
ENDBRANCH  33  35
ENDBRANCH  27  29
ENDBRANCH   5  25
TORSDOF 11
ENDMDL
MODEL 2
REMARK VINA RESULT:    -9.004      1.803      3.316
REMARK INTER + INTRA:         -13.846
REMARK INTER:                 -12.285
REMARK INTRA:                  -1.561
REMARK CONF_INDEPENDENT:        3.281
REMARK UNBOUND:                -1.561
REMARK  11 active torsions:
REMARK  status: ('A' for Active; 'I' for Inactive)
REMARK    1  A    between atoms: C_2  and  C_3 
REMARK    2  A    between atoms: C_3  and  C_4 
REMARK    3  A    between atoms: C_4  and  O_5 
REMARK    4  A    between atoms: O_5  and  C_6 
REMARK    5  A    between atoms: C_11  and  N_12 
REMARK    6  A    between atoms: N_12  and  C_13 
REMARK    7  A    between atoms: C_13  and  C_14 
REMARK       I    between atoms: C_14  and  N_16 
REMARK    8  A    between atoms: N_16  and  C_17 
REMARK    9  A    between atoms: C_21  and  C_22 
REMARK       I    between atoms: C_22  and  N_24 
REMARK   10  A    between atoms: N_24  and  C_25 
REMARK   11  A    between atoms: C_29  and  C_30 
ROOT
ATOM      1  C   UNL d   1      26.053 -15.633  -0.977  0.00  0.00     0.035 A 
ATOM      2  C   UNL d   1      27.095 -16.255  -0.294  0.00  0.00     0.029 A 
ATOM      3  C   UNL d   1      26.888 -17.532   0.232  0.00  0.00     0.003 A 
ATOM      4  C   UNL d   1      25.650 -18.163   0.067  0.00  0.00     0.017 A 
ATOM      5  C   UNL d   1      24.643 -17.569  -0.706  0.00  0.00     0.034 A 
ATOM      6  C   UNL d   1      24.868 -16.312  -1.233  0.00  0.00     0.046 A 
ENDROOT
BRANCH   1   7
ATOM      7  N   UNL d   1      26.167 -14.310  -1.418  0.00  0.00    -0.326 N 
ATOM      8  C   UNL d   1      25.544 -13.885  -2.617  0.00  0.00     0.239 C 
ATOM      9  O   UNL d   1      24.783 -14.532  -3.303  0.00  0.00    -0.271 OA
ATOM     10  H   UNL d   1      26.582 -13.645  -0.773  0.00  0.00     0.169 HD
BRANCH   8  11
ATOM     11  C   UNL d   1      26.060 -12.557  -3.066  0.00  0.00     0.223 C 
BRANCH  11  12
ATOM     12  N   UNL d   1      25.641 -11.974  -4.308  0.00  0.00    -0.379 N 
ATOM     13  H   UNL d   1      24.668 -12.183  -4.526  0.00  0.00     0.160 HD
BRANCH  12  14
ATOM     14  C   UNL d   1      26.524 -11.924  -5.411  0.00  0.00     0.062 A 
ATOM     15  C   UNL d   1      27.345 -13.081  -5.504  0.00  0.00     0.032 A 
ATOM     16  C   UNL d   1      28.152 -13.362  -6.610  0.00  0.00     0.002 A 
ATOM     17  C   UNL d   1      28.172 -12.483  -7.679  0.00  0.00     0.003 A 
ATOM     18  C   UNL d   1      27.423 -11.307  -7.613  0.00  0.00     0.039 A 
ATOM     19  C   UNL d   1      26.573 -11.016  -6.519  0.00  0.00     0.095 A 
BRANCH  19  20
ATOM     20  O   UNL d   1      25.769  -9.918  -6.821  0.00  0.00    -0.349 OA
BRANCH  20  21
ATOM     21  C   UNL d   1      26.203  -8.657  -6.347  0.00  0.00     0.175 C 
BRANCH  21  22
ATOM     22  C   UNL d   1      25.942  -8.297  -4.893  0.00  0.00     0.026 C 
BRANCH  22  23
ATOM     23  C   UNL d   1      24.415  -8.275  -4.625  0.00  0.00    -0.002 C 
ATOM     24  C   UNL d   1      23.668  -8.197  -5.936  0.00  0.00     0.005 C 
ENDBRANCH  22  23
ENDBRANCH  21  22
ENDBRANCH  20  21
ENDBRANCH  19  20
ENDBRANCH  12  14
ENDBRANCH  11  12
ENDBRANCH   8  11
ENDBRANCH   1   7
BRANCH   5  25
ATOM     25  C   UNL d   1      23.371 -18.297  -0.947  0.00  0.00     0.256 C 
ATOM     26  O   UNL d   1      23.261 -18.898  -2.009  0.00  0.00    -0.267 OA
ATOM     27  N   UNL d   1      22.362 -18.199   0.013  0.00  0.00    -0.323 N 
ATOM     28  H   UNL d   1      22.443 -17.584   0.809  0.00  0.00     0.169 HD
BRANCH  27  29
ATOM     29  C   UNL d   1      21.171 -18.941  -0.055  0.00  0.00     0.035 A 
ATOM     30  C   UNL d   1      20.458 -19.042  -1.252  0.00  0.00     0.029 A 
ATOM     31  C   UNL d   1      19.222 -19.697  -1.270  0.00  0.00     0.003 A 
ATOM     32  C   UNL d   1      18.713 -20.265  -0.101  0.00  0.00     0.016 A 
ATOM     33  C   UNL d   1      19.418 -20.151   1.102  0.00  0.00     0.050 A 
ATOM     34  C   UNL d   1      20.649 -19.498   1.107  0.00  0.00     0.045 A 
BRANCH  33  35
ATOM     35  C   UNL d   1      18.851 -20.654   2.399  0.00  0.00     0.417 C 
ATOM     36  F   UNL d   1      18.406 -21.936   2.293  0.00  0.00    -0.166 F 
ATOM     37  F   UNL d   1      19.764 -20.652   3.407  0.00  0.00    -0.166 F 
ATOM     38  F   UNL d   1      17.788 -19.933   2.851  0.00  0.00    -0.166 F 
ENDBRANCH  33  35
ENDBRANCH  27  29
ENDBRANCH   5  25
TORSDOF 11
ENDMDL
MODEL 3
REMARK VINA RESULT:    -8.855      5.177      9.845
REMARK INTER + INTRA:         -13.501
REMARK INTER:                 -12.136
REMARK INTRA:                  -1.365
REMARK CONF_INDEPENDENT:        3.281
REMARK UNBOUND:                -1.365
REMARK  11 active torsions:
REMARK  status: ('A' for Active; 'I' for Inactive)
REMARK    1  A    between atoms: C_2  and  C_3 
REMARK    2  A    between atoms: C_3  and  C_4 
REMARK    3  A    between atoms: C_4  and  O_5 
REMARK    4  A    between atoms: O_5  and  C_6 
REMARK    5  A    between atoms: C_11  and  N_12 
REMARK    6  A    between atoms: N_12  and  C_13 
REMARK    7  A    between atoms: C_13  and  C_14 
REMARK       I    between atoms: C_14  and  N_16 
REMARK    8  A    between atoms: N_16  and  C_17 
REMARK    9  A    between atoms: C_21  and  C_22 
REMARK       I    between atoms: C_22  and  N_24 
REMARK   10  A    between atoms: N_24  and  C_25 
REMARK   11  A    between atoms: C_29  and  C_30 
ROOT
ATOM      1  C   UNL d   1      28.053 -14.399  -4.929  0.00  0.00     0.035 A 
ATOM      2  C   UNL d   1      28.263 -13.227  -5.654  0.00  0.00     0.029 A 
ATOM      3  C   UNL d   1      29.227 -13.224  -6.664  0.00  0.00     0.003 A 
ATOM      4  C   UNL d   1      29.963 -14.384  -6.931  0.00  0.00     0.017 A 
ATOM      5  C   UNL d   1      29.676 -15.582  -6.264  0.00  0.00     0.034 A 
ATOM      6  C   UNL d   1      28.708 -15.574  -5.278  0.00  0.00     0.046 A 
ENDROOT
BRANCH   1   7
ATOM      7  N   UNL d   1      27.188 -14.423  -3.831  0.00  0.00    -0.326 N 
ATOM      8  C   UNL d   1      25.822 -14.766  -3.986  0.00  0.00     0.239 C 
ATOM      9  O   UNL d   1      25.292 -15.175  -4.996  0.00  0.00    -0.271 OA
ATOM     10  H   UNL d   1      27.609 -14.332  -2.912  0.00  0.00     0.169 HD
BRANCH   8  11
ATOM     11  C   UNL d   1      25.022 -14.409  -2.776  0.00  0.00     0.223 C 
BRANCH  11  12
ATOM     12  N   UNL d   1      24.030 -15.299  -2.248  0.00  0.00    -0.379 N 
ATOM     13  H   UNL d   1      23.187 -14.810  -1.952  0.00  0.00     0.160 HD
BRANCH  12  14
ATOM     14  C   UNL d   1      24.410 -16.408  -1.458  0.00  0.00     0.062 A 
ATOM     15  C   UNL d   1      25.801 -16.418  -1.166  0.00  0.00     0.032 A 
ATOM     16  C   UNL d   1      26.386 -17.290  -0.243  0.00  0.00     0.002 A 
ATOM     17  C   UNL d   1      25.591 -18.201   0.430  0.00  0.00     0.003 A 
ATOM     18  C   UNL d   1      24.227 -18.266   0.140  0.00  0.00     0.039 A 
ATOM     19  C   UNL d   1      23.607 -17.373  -0.766  0.00  0.00     0.095 A 
BRANCH  19  20
ATOM     20  O   UNL d   1      22.220 -17.498  -0.680  0.00  0.00    -0.349 OA
BRANCH  20  21
ATOM     21  C   UNL d   1      21.680 -18.790  -0.882  0.00  0.00     0.175 C 
BRANCH  21  22
ATOM     22  C   UNL d   1      20.168 -18.954  -0.890  0.00  0.00     0.026 C 
BRANCH  22  23
ATOM     23  C   UNL d   1      19.764 -20.123   0.045  0.00  0.00    -0.002 C 
ATOM     24  C   UNL d   1      19.957 -19.714   1.487  0.00  0.00     0.005 C 
ENDBRANCH  22  23
ENDBRANCH  21  22
ENDBRANCH  20  21
ENDBRANCH  19  20
ENDBRANCH  12  14
ENDBRANCH  11  12
ENDBRANCH   8  11
ENDBRANCH   1   7
BRANCH   5  25
ATOM     25  C   UNL d   1      30.403 -16.824  -6.629  0.00  0.00     0.256 C 
ATOM     26  O   UNL d   1      31.233 -16.744  -7.528  0.00  0.00    -0.267 OA
ATOM     27  N   UNL d   1      30.054 -18.009  -5.980  0.00  0.00    -0.323 N 
ATOM     28  H   UNL d   1      29.272 -18.057  -5.344  0.00  0.00     0.169 HD
BRANCH  27  29
ATOM     29  C   UNL d   1      30.757 -19.213  -6.160  0.00  0.00     0.035 A 
ATOM     30  C   UNL d   1      31.198 -19.600  -7.427  0.00  0.00     0.029 A 
ATOM     31  C   UNL d   1      31.803 -20.851  -7.599  0.00  0.00     0.003 A 
ATOM     32  C   UNL d   1      31.982 -21.698  -6.504  0.00  0.00     0.016 A 
ATOM     33  C   UNL d   1      31.525 -21.318  -5.237  0.00  0.00     0.050 A 
ATOM     34  C   UNL d   1      30.928 -20.069  -5.078  0.00  0.00     0.045 A 
BRANCH  33  35
ATOM     35  C   UNL d   1      31.603 -22.247  -4.060  0.00  0.00     0.417 C 
ATOM     36  F   UNL d   1      32.892 -22.530  -3.723  0.00  0.00    -0.166 F 
ATOM     37  F   UNL d   1      31.024 -21.730  -2.943  0.00  0.00    -0.166 F 
ATOM     38  F   UNL d   1      31.006 -23.453  -4.270  0.00  0.00    -0.166 F 
ENDBRANCH  33  35
ENDBRANCH  27  29
ENDBRANCH   5  25
TORSDOF 11
ENDMDL
MODEL 4
REMARK VINA RESULT:    -8.539      2.041      3.050
REMARK INTER + INTRA:         -13.616
REMARK INTER:                 -11.821
REMARK INTRA:                  -1.796
REMARK CONF_INDEPENDENT:        3.281
REMARK UNBOUND:                -1.796
REMARK  11 active torsions:
REMARK  status: ('A' for Active; 'I' for Inactive)
REMARK    1  A    between atoms: C_2  and  C_3 
REMARK    2  A    between atoms: C_3  and  C_4 
REMARK    3  A    between atoms: C_4  and  O_5 
REMARK    4  A    between atoms: O_5  and  C_6 
REMARK    5  A    between atoms: C_11  and  N_12 
REMARK    6  A    between atoms: N_12  and  C_13 
REMARK    7  A    between atoms: C_13  and  C_14 
REMARK       I    between atoms: C_14  and  N_16 
REMARK    8  A    between atoms: N_16  and  C_17 
REMARK    9  A    between atoms: C_21  and  C_22 
REMARK       I    between atoms: C_22  and  N_24 
REMARK   10  A    between atoms: N_24  and  C_25 
REMARK   11  A    between atoms: C_29  and  C_30 
ROOT
ATOM      1  C   UNL d   1      26.326 -16.058  -1.462  0.00  0.00     0.035 A 
ATOM      2  C   UNL d   1      27.210 -16.746  -0.633  0.00  0.00     0.029 A 
ATOM      3  C   UNL d   1      26.697 -17.676   0.273  0.00  0.00     0.003 A 
ATOM      4  C   UNL d   1      25.318 -17.903   0.336  0.00  0.00     0.017 A 
ATOM      5  C   UNL d   1      24.449 -17.279  -0.569  0.00  0.00     0.034 A 
ATOM      6  C   UNL d   1      24.973 -16.372  -1.470  0.00  0.00     0.046 A 
ENDROOT
BRANCH   1   7
ATOM      7  N   UNL d   1      26.773 -15.031  -2.300  0.00  0.00    -0.326 N 
ATOM      8  C   UNL d   1      26.381 -14.978  -3.660  0.00  0.00     0.239 C 
ATOM      9  O   UNL d   1      25.566 -15.692  -4.204  0.00  0.00    -0.271 OA
ATOM     10  H   UNL d   1      27.260 -14.257  -1.859  0.00  0.00     0.169 HD
BRANCH   8  11
ATOM     11  C   UNL d   1      27.221 -14.019  -4.439  0.00  0.00     0.223 C 
BRANCH  11  12
ATOM     12  N   UNL d   1      28.350 -14.466  -5.203  0.00  0.00    -0.379 N 
ATOM     13  H   UNL d   1      28.105 -14.681  -6.168  0.00  0.00     0.160 HD
BRANCH  12  14
ATOM     14  C   UNL d   1      29.330 -15.298  -4.615  0.00  0.00     0.062 A 
ATOM     15  C   UNL d   1      29.485 -15.055  -3.223  0.00  0.00     0.032 A 
ATOM     16  C   UNL d   1      30.240 -15.877  -2.380  0.00  0.00     0.002 A 
ATOM     17  C   UNL d   1      30.879 -16.986  -2.905  0.00  0.00     0.003 A 
ATOM     18  C   UNL d   1      30.799 -17.239  -4.275  0.00  0.00     0.039 A 
ATOM     19  C   UNL d   1      30.015 -16.440  -5.143  0.00  0.00     0.095 A 
BRANCH  19  20
ATOM     20  O   UNL d   1      29.918 -17.053  -6.392  0.00  0.00    -0.349 OA
BRANCH  20  21
ATOM     21  C   UNL d   1      31.127 -17.472  -6.996  0.00  0.00     0.175 C 
BRANCH  21  22
ATOM     22  C   UNL d   1      31.140 -18.784  -7.765  0.00  0.00     0.026 C 
BRANCH  22  23
ATOM     23  C   UNL d   1      30.412 -19.880  -6.944  0.00  0.00    -0.002 C 
ATOM     24  C   UNL d   1      31.192 -20.177  -5.684  0.00  0.00     0.005 C 
ENDBRANCH  22  23
ENDBRANCH  21  22
ENDBRANCH  20  21
ENDBRANCH  19  20
ENDBRANCH  12  14
ENDBRANCH  11  12
ENDBRANCH   8  11
ENDBRANCH   1   7
BRANCH   5  25
ATOM     25  C   UNL d   1      23.000 -17.606  -0.547  0.00  0.00     0.256 C 
ATOM     26  O   UNL d   1      22.220 -16.720  -0.876  0.00  0.00    -0.267 OA
ATOM     27  N   UNL d   1      22.616 -18.868  -0.092  0.00  0.00    -0.323 N 
ATOM     28  H   UNL d   1      23.281 -19.519   0.298  0.00  0.00     0.169 HD
BRANCH  27  29
ATOM     29  C   UNL d   1      21.287 -19.325  -0.143  0.00  0.00     0.035 A 
ATOM     30  C   UNL d   1      20.504 -19.118  -1.281  0.00  0.00     0.029 A 
ATOM     31  C   UNL d   1      19.154 -19.487  -1.270  0.00  0.00     0.003 A 
ATOM     32  C   UNL d   1      18.598 -20.077  -0.133  0.00  0.00     0.016 A 
ATOM     33  C   UNL d   1      19.378 -20.270   1.013  0.00  0.00     0.050 A 
ATOM     34  C   UNL d   1      20.722 -19.901   0.988  0.00  0.00     0.045 A 
BRANCH  33  35
ATOM     35  C   UNL d   1      18.789 -20.802   2.288  0.00  0.00     0.417 C 
ATOM     36  F   UNL d   1      17.709 -20.074   2.688  0.00  0.00    -0.166 F 
ATOM     37  F   UNL d   1      18.358 -22.086   2.172  0.00  0.00    -0.166 F 
ATOM     38  F   UNL d   1      19.651 -20.786   3.342  0.00  0.00    -0.166 F 
ENDBRANCH  33  35
ENDBRANCH  27  29
ENDBRANCH   5  25
TORSDOF 11
ENDMDL
MODEL 5
REMARK VINA RESULT:    -7.944      1.412      2.207
REMARK INTER + INTRA:         -13.949
REMARK INTER:                 -11.225
REMARK INTRA:                  -2.724
REMARK CONF_INDEPENDENT:        3.281
REMARK UNBOUND:                -2.724
REMARK  11 active torsions:
REMARK  status: ('A' for Active; 'I' for Inactive)
REMARK    1  A    between atoms: C_2  and  C_3 
REMARK    2  A    between atoms: C_3  and  C_4 
REMARK    3  A    between atoms: C_4  and  O_5 
REMARK    4  A    between atoms: O_5  and  C_6 
REMARK    5  A    between atoms: C_11  and  N_12 
REMARK    6  A    between atoms: N_12  and  C_13 
REMARK    7  A    between atoms: C_13  and  C_14 
REMARK       I    between atoms: C_14  and  N_16 
REMARK    8  A    between atoms: N_16  and  C_17 
REMARK    9  A    between atoms: C_21  and  C_22 
REMARK       I    between atoms: C_22  and  N_24 
REMARK   10  A    between atoms: N_24  and  C_25 
REMARK   11  A    between atoms: C_29  and  C_30 
ROOT
ATOM      1  C   UNL d   1      26.427 -16.286  -1.676  0.00  0.00     0.035 A 
ATOM      2  C   UNL d   1      27.143 -16.461  -0.493  0.00  0.00     0.029 A 
ATOM      3  C   UNL d   1      26.577 -17.225   0.529  0.00  0.00     0.003 A 
ATOM      4  C   UNL d   1      25.312 -17.797   0.356  0.00  0.00     0.017 A 
ATOM      5  C   UNL d   1      24.645 -17.697  -0.872  0.00  0.00     0.034 A 
ATOM      6  C   UNL d   1      25.224 -16.951  -1.881  0.00  0.00     0.046 A 
ENDROOT
BRANCH   1   7
ATOM      7  N   UNL d   1      26.893 -15.434  -2.683  0.00  0.00    -0.326 N 
ATOM      8  C   UNL d   1      25.991 -14.732  -3.519  0.00  0.00     0.239 C 
ATOM      9  O   UNL d   1      24.786 -14.682  -3.398  0.00  0.00    -0.271 OA
ATOM     10  H   UNL d   1      27.888 -15.230  -2.688  0.00  0.00     0.169 HD
BRANCH   8  11
ATOM     11  C   UNL d   1      26.679 -14.158  -4.714  0.00  0.00     0.223 C 
BRANCH  11  12
ATOM     12  N   UNL d   1      28.103 -13.988  -4.746  0.00  0.00    -0.379 N 
ATOM     13  H   UNL d   1      28.377 -13.071  -5.095  0.00  0.00     0.160 HD
BRANCH  12  14
ATOM     14  C   UNL d   1      28.945 -15.064  -5.108  0.00  0.00     0.062 A 
ATOM     15  C   UNL d   1      29.405 -14.968  -6.450  0.00  0.00     0.032 A 
ATOM     16  C   UNL d   1      30.402 -15.793  -6.980  0.00  0.00     0.002 A 
ATOM     17  C   UNL d   1      30.982 -16.761  -6.179  0.00  0.00     0.003 A 
ATOM     18  C   UNL d   1      30.528 -16.929  -4.870  0.00  0.00     0.039 A 
ATOM     19  C   UNL d   1      29.544 -16.086  -4.300  0.00  0.00     0.095 A 
BRANCH  19  20
ATOM     20  O   UNL d   1      29.460 -16.314  -2.927  0.00  0.00    -0.349 OA
BRANCH  20  21
ATOM     21  C   UNL d   1      30.547 -15.871  -2.137  0.00  0.00     0.175 C 
BRANCH  21  22
ATOM     22  C   UNL d   1      30.993 -16.731  -0.964  0.00  0.00     0.026 C 
BRANCH  22  23
ATOM     23  C   UNL d   1      30.442 -18.170  -1.130  0.00  0.00    -0.002 C 
ATOM     24  C   UNL d   1      31.155 -18.861  -2.269  0.00  0.00     0.005 C 
ENDBRANCH  22  23
ENDBRANCH  21  22
ENDBRANCH  20  21
ENDBRANCH  19  20
ENDBRANCH  12  14
ENDBRANCH  11  12
ENDBRANCH   8  11
ENDBRANCH   1   7
BRANCH   5  25
ATOM     25  C   UNL d   1      23.346 -18.392  -1.067  0.00  0.00     0.256 C 
ATOM     26  O   UNL d   1      23.189 -19.003  -2.117  0.00  0.00    -0.267 OA
ATOM     27  N   UNL d   1      22.369 -18.251  -0.080  0.00  0.00    -0.323 N 
ATOM     28  H   UNL d   1      22.490 -17.627   0.703  0.00  0.00     0.169 HD
BRANCH  27  29
ATOM     29  C   UNL d   1      21.155 -18.959  -0.103  0.00  0.00     0.035 A 
ATOM     30  C   UNL d   1      20.420 -19.079  -1.285  0.00  0.00     0.029 A 
ATOM     31  C   UNL d   1      19.164 -19.698  -1.261  0.00  0.00     0.003 A 
ATOM     32  C   UNL d   1      18.659 -20.211  -0.064  0.00  0.00     0.016 A 
ATOM     33  C   UNL d   1      19.389 -20.078   1.123  0.00  0.00     0.050 A 
ATOM     34  C   UNL d   1      20.638 -19.462   1.085  0.00  0.00     0.045 A 
BRANCH  33  35
ATOM     35  C   UNL d   1      18.831 -20.520   2.445  0.00  0.00     0.417 C 
ATOM     36  F   UNL d   1      18.406 -21.814   2.407  0.00  0.00    -0.166 F 
ATOM     37  F   UNL d   1      19.743 -20.450   3.451  0.00  0.00    -0.166 F 
ATOM     38  F   UNL d   1      17.755 -19.794   2.859  0.00  0.00    -0.166 F 
ENDBRANCH  33  35
ENDBRANCH  27  29
ENDBRANCH   5  25
TORSDOF 11
ENDMDL
MODEL 6
REMARK VINA RESULT:    -7.821      1.757      2.655
REMARK INTER + INTRA:         -13.918
REMARK INTER:                 -11.103
REMARK INTRA:                  -2.815
REMARK CONF_INDEPENDENT:        3.281
REMARK UNBOUND:                -2.815
REMARK  11 active torsions:
REMARK  status: ('A' for Active; 'I' for Inactive)
REMARK    1  A    between atoms: C_2  and  C_3 
REMARK    2  A    between atoms: C_3  and  C_4 
REMARK    3  A    between atoms: C_4  and  O_5 
REMARK    4  A    between atoms: O_5  and  C_6 
REMARK    5  A    between atoms: C_11  and  N_12 
REMARK    6  A    between atoms: N_12  and  C_13 
REMARK    7  A    between atoms: C_13  and  C_14 
REMARK       I    between atoms: C_14  and  N_16 
REMARK    8  A    between atoms: N_16  and  C_17 
REMARK    9  A    between atoms: C_21  and  C_22 
REMARK       I    between atoms: C_22  and  N_24 
REMARK   10  A    between atoms: N_24  and  C_25 
REMARK   11  A    between atoms: C_29  and  C_30 
ROOT
ATOM      1  C   UNL d   1      26.358 -15.718  -0.511  0.00  0.00     0.035 A 
ATOM      2  C   UNL d   1      27.271 -16.703  -0.140  0.00  0.00     0.029 A 
ATOM      3  C   UNL d   1      26.792 -17.964   0.218  0.00  0.00     0.003 A 
ATOM      4  C   UNL d   1      25.417 -18.220   0.201  0.00  0.00     0.017 A 
ATOM      5  C   UNL d   1      24.516 -17.254  -0.267  0.00  0.00     0.034 A 
ATOM      6  C   UNL d   1      25.006 -16.015  -0.633  0.00  0.00     0.046 A 
ENDROOT
BRANCH   1   7
ATOM      7  N   UNL d   1      26.773 -14.406  -0.762  0.00  0.00    -0.326 N 
ATOM      8  C   UNL d   1      27.178 -13.554   0.295  0.00  0.00     0.239 C 
ATOM      9  O   UNL d   1      27.328 -13.868   1.456  0.00  0.00    -0.271 OA
ATOM     10  H   UNL d   1      26.912 -14.145  -1.734  0.00  0.00     0.169 HD
BRANCH   8  11
ATOM     11  C   UNL d   1      27.255 -12.128  -0.143  0.00  0.00     0.223 C 
BRANCH  11  12
ATOM     12  N   UNL d   1      27.806 -11.768  -1.418  0.00  0.00    -0.379 N 
ATOM     13  H   UNL d   1      28.648 -11.201  -1.331  0.00  0.00     0.160 HD
BRANCH  12  14
ATOM     14  C   UNL d   1      26.956 -11.450  -2.502  0.00  0.00     0.062 A 
ATOM     15  C   UNL d   1      27.132 -10.115  -2.958  0.00  0.00     0.032 A 
ATOM     16  C   UNL d   1      26.559  -9.625  -4.136  0.00  0.00     0.002 A 
ATOM     17  C   UNL d   1      25.775 -10.461  -4.910  0.00  0.00     0.003 A 
ATOM     18  C   UNL d   1      25.530 -11.765  -4.478  0.00  0.00     0.039 A 
ATOM     19  C   UNL d   1      26.124 -12.295  -3.307  0.00  0.00     0.095 A 
BRANCH  19  20
ATOM     20  O   UNL d   1      25.910 -13.671  -3.248  0.00  0.00    -0.349 OA
BRANCH  20  21
ATOM     21  C   UNL d   1      26.081 -14.398  -4.449  0.00  0.00     0.175 C 
BRANCH  21  22
ATOM     22  C   UNL d   1      27.135 -15.494  -4.495  0.00  0.00     0.026 C 
BRANCH  22  23
ATOM     23  C   UNL d   1      28.369 -15.000  -5.293  0.00  0.00    -0.002 C 
ATOM     24  C   UNL d   1      27.979 -13.827  -6.162  0.00  0.00     0.005 C 
ENDBRANCH  22  23
ENDBRANCH  21  22
ENDBRANCH  20  21
ENDBRANCH  19  20
ENDBRANCH  12  14
ENDBRANCH  11  12
ENDBRANCH   8  11
ENDBRANCH   1   7
BRANCH   5  25
ATOM     25  C   UNL d   1      23.070 -17.579  -0.366  0.00  0.00     0.256 C 
ATOM     26  O   UNL d   1      22.337 -16.730  -0.861  0.00  0.00    -0.267 OA
ATOM     27  N   UNL d   1      22.628 -18.791   0.167  0.00  0.00    -0.323 N 
ATOM     28  H   UNL d   1      23.242 -19.399   0.686  0.00  0.00     0.169 HD
BRANCH  27  29
ATOM     29  C   UNL d   1      21.308 -19.251   0.020  0.00  0.00     0.035 A 
ATOM     30  C   UNL d   1      20.616 -19.068  -1.179  0.00  0.00     0.029 A 
ATOM     31  C   UNL d   1      19.270 -19.440  -1.267  0.00  0.00     0.003 A 
ATOM     32  C   UNL d   1      18.628 -20.011  -0.166  0.00  0.00     0.016 A 
ATOM     33  C   UNL d   1      19.316 -20.181   1.041  0.00  0.00     0.050 A 
ATOM     34  C   UNL d   1      20.657 -19.809   1.114  0.00  0.00     0.045 A 
BRANCH  33  35
ATOM     35  C   UNL d   1      18.629 -20.690   2.275  0.00  0.00     0.417 C 
ATOM     36  F   UNL d   1      17.631 -19.856   2.680  0.00  0.00    -0.166 F 
ATOM     37  F   UNL d   1      18.054 -21.908   2.091  0.00  0.00    -0.166 F 
ATOM     38  F   UNL d   1      19.455 -20.821   3.350  0.00  0.00    -0.166 F 
ENDBRANCH  33  35
ENDBRANCH  27  29
ENDBRANCH   5  25
TORSDOF 11
ENDMDL
MODEL 7
REMARK VINA RESULT:    -7.414      1.624      3.052
REMARK INTER + INTRA:         -13.581
REMARK INTER:                 -10.695
REMARK INTRA:                  -2.886
REMARK CONF_INDEPENDENT:        3.281
REMARK UNBOUND:                -2.886
REMARK  11 active torsions:
REMARK  status: ('A' for Active; 'I' for Inactive)
REMARK    1  A    between atoms: C_2  and  C_3 
REMARK    2  A    between atoms: C_3  and  C_4 
REMARK    3  A    between atoms: C_4  and  O_5 
REMARK    4  A    between atoms: O_5  and  C_6 
REMARK    5  A    between atoms: C_11  and  N_12 
REMARK    6  A    between atoms: N_12  and  C_13 
REMARK    7  A    between atoms: C_13  and  C_14 
REMARK       I    between atoms: C_14  and  N_16 
REMARK    8  A    between atoms: N_16  and  C_17 
REMARK    9  A    between atoms: C_21  and  C_22 
REMARK       I    between atoms: C_22  and  N_24 
REMARK   10  A    between atoms: N_24  and  C_25 
REMARK   11  A    between atoms: C_29  and  C_30 
ROOT
ATOM      1  C   UNL d   1      26.314 -16.098  -1.554  0.00  0.00     0.035 A 
ATOM      2  C   UNL d   1      27.213 -16.784  -0.740  0.00  0.00     0.029 A 
ATOM      3  C   UNL d   1      26.717 -17.703   0.186  0.00  0.00     0.003 A 
ATOM      4  C   UNL d   1      25.338 -17.921   0.284  0.00  0.00     0.017 A 
ATOM      5  C   UNL d   1      24.452 -17.300  -0.606  0.00  0.00     0.034 A 
ATOM      6  C   UNL d   1      24.959 -16.404  -1.528  0.00  0.00     0.046 A 
ENDROOT
BRANCH   1   7
ATOM      7  N   UNL d   1      26.748 -15.082  -2.412  0.00  0.00    -0.326 N 
ATOM      8  C   UNL d   1      26.261 -14.991  -3.739  0.00  0.00     0.239 C 
ATOM      9  O   UNL d   1      25.375 -15.658  -4.229  0.00  0.00    -0.271 OA
ATOM     10  H   UNL d   1      27.302 -14.337  -2.000  0.00  0.00     0.169 HD
BRANCH   8  11
ATOM     11  C   UNL d   1      27.086 -14.062  -4.568  0.00  0.00     0.223 C 
BRANCH  11  12
ATOM     12  N   UNL d   1      28.509 -14.214  -4.667  0.00  0.00    -0.379 N 
ATOM     13  H   UNL d   1      28.861 -13.979  -5.593  0.00  0.00     0.160 HD
BRANCH  12  14
ATOM     14  C   UNL d   1      29.163 -15.281  -4.009  0.00  0.00     0.062 A 
ATOM     15  C   UNL d   1      29.643 -16.267  -4.915  0.00  0.00     0.032 A 
ATOM     16  C   UNL d   1      30.492 -17.310  -4.534  0.00  0.00     0.002 A 
ATOM     17  C   UNL d   1      30.896 -17.411  -3.215  0.00  0.00     0.003 A 
ATOM     18  C   UNL d   1      30.411 -16.499  -2.277  0.00  0.00     0.039 A 
ATOM     19  C   UNL d   1      29.577 -15.415  -2.643  0.00  0.00     0.095 A 
BRANCH  19  20
ATOM     20  O   UNL d   1      29.446 -14.534  -1.571  0.00  0.00    -0.349 OA
BRANCH  20  21
ATOM     21  C   UNL d   1      30.554 -14.418  -0.698  0.00  0.00     0.175 C 
BRANCH  21  22
ATOM     22  C   UNL d   1      30.327 -14.593   0.795  0.00  0.00     0.026 C 
BRANCH  22  23
ATOM     23  C   UNL d   1      28.824 -14.859   1.068  0.00  0.00    -0.002 C 
ATOM     24  C   UNL d   1      28.034 -13.590   0.852  0.00  0.00     0.005 C 
ENDBRANCH  22  23
ENDBRANCH  21  22
ENDBRANCH  20  21
ENDBRANCH  19  20
ENDBRANCH  12  14
ENDBRANCH  11  12
ENDBRANCH   8  11
ENDBRANCH   1   7
BRANCH   5  25
ATOM     25  C   UNL d   1      23.002 -17.617  -0.547  0.00  0.00     0.256 C 
ATOM     26  O   UNL d   1      22.219 -16.714  -0.815  0.00  0.00    -0.267 OA
ATOM     27  N   UNL d   1      22.623 -18.894  -0.128  0.00  0.00    -0.323 N 
ATOM     28  H   UNL d   1      23.295 -19.563   0.213  0.00  0.00     0.169 HD
BRANCH  27  29
ATOM     29  C   UNL d   1      21.290 -19.339  -0.152  0.00  0.00     0.035 A 
ATOM     30  C   UNL d   1      20.510 -19.200  -1.302  0.00  0.00     0.029 A 
ATOM     31  C   UNL d   1      19.156 -19.553  -1.269  0.00  0.00     0.003 A 
ATOM     32  C   UNL d   1      18.593 -20.061  -0.096  0.00  0.00     0.016 A 
ATOM     33  C   UNL d   1      19.370 -20.185   1.061  0.00  0.00     0.050 A 
ATOM     34  C   UNL d   1      20.717 -19.833   1.015  0.00  0.00     0.045 A 
BRANCH  33  35
ATOM     35  C   UNL d   1      18.773 -20.624   2.367  0.00  0.00     0.417 C 
ATOM     36  F   UNL d   1      19.646 -20.469   3.401  0.00  0.00    -0.166 F 
ATOM     37  F   UNL d   1      17.661 -19.918   2.702  0.00  0.00    -0.166 F 
ATOM     38  F   UNL d   1      18.407 -21.937   2.392  0.00  0.00    -0.166 F 
ENDBRANCH  33  35
ENDBRANCH  27  29
ENDBRANCH   5  25
TORSDOF 11
ENDMDL
MODEL 8
REMARK VINA RESULT:    -7.358      1.933      2.933
REMARK INTER + INTRA:         -13.503
REMARK INTER:                 -10.640
REMARK INTRA:                  -2.863
REMARK CONF_INDEPENDENT:        3.281
REMARK UNBOUND:                -2.863
REMARK  11 active torsions:
REMARK  status: ('A' for Active; 'I' for Inactive)
REMARK    1  A    between atoms: C_2  and  C_3 
REMARK    2  A    between atoms: C_3  and  C_4 
REMARK    3  A    between atoms: C_4  and  O_5 
REMARK    4  A    between atoms: O_5  and  C_6 
REMARK    5  A    between atoms: C_11  and  N_12 
REMARK    6  A    between atoms: N_12  and  C_13 
REMARK    7  A    between atoms: C_13  and  C_14 
REMARK       I    between atoms: C_14  and  N_16 
REMARK    8  A    between atoms: N_16  and  C_17 
REMARK    9  A    between atoms: C_21  and  C_22 
REMARK       I    between atoms: C_22  and  N_24 
REMARK   10  A    between atoms: N_24  and  C_25 
REMARK   11  A    between atoms: C_29  and  C_30 
ROOT
ATOM      1  C   UNL d   1      25.941 -15.617  -1.851  0.00  0.00     0.035 A 
ATOM      2  C   UNL d   1      26.904 -16.112  -0.974  0.00  0.00     0.029 A 
ATOM      3  C   UNL d   1      26.501 -16.959   0.060  0.00  0.00     0.003 A 
ATOM      4  C   UNL d   1      25.151 -17.297   0.201  0.00  0.00     0.017 A 
ATOM      5  C   UNL d   1      24.206 -16.873  -0.744  0.00  0.00     0.034 A 
ATOM      6  C   UNL d   1      24.622 -16.048  -1.771  0.00  0.00     0.046 A 
ENDROOT
BRANCH   1   7
ATOM      7  N   UNL d   1      26.271 -14.672  -2.828  0.00  0.00    -0.326 N 
ATOM      8  C   UNL d   1      26.068 -14.943  -4.203  0.00  0.00     0.239 C 
ATOM      9  O   UNL d   1      25.507 -15.909  -4.672  0.00  0.00    -0.271 OA
ATOM     10  H   UNL d   1      26.517 -13.742  -2.503  0.00  0.00     0.169 HD
BRANCH   8  11
ATOM     11  C   UNL d   1      26.785 -13.961  -5.071  0.00  0.00     0.223 C 
BRANCH  11  12
ATOM     12  N   UNL d   1      27.717 -13.020  -4.521  0.00  0.00    -0.379 N 
ATOM     13  H   UNL d   1      28.371 -13.455  -3.872  0.00  0.00     0.160 HD
BRANCH  12  14
ATOM     14  C   UNL d   1      27.303 -11.708  -4.194  0.00  0.00     0.062 A 
ATOM     15  C   UNL d   1      27.285 -10.845  -5.324  0.00  0.00     0.032 A 
ATOM     16  C   UNL d   1      26.725  -9.565  -5.302  0.00  0.00     0.002 A 
ATOM     17  C   UNL d   1      26.157  -9.090  -4.133  0.00  0.00     0.003 A 
ATOM     18  C   UNL d   1      26.195  -9.879  -2.982  0.00  0.00     0.039 A 
ATOM     19  C   UNL d   1      26.728 -11.191  -2.987  0.00  0.00     0.095 A 
BRANCH  19  20
ATOM     20  O   UNL d   1      26.419 -11.833  -1.788  0.00  0.00    -0.349 OA
BRANCH  20  21
ATOM     21  C   UNL d   1      27.428 -11.856  -0.797  0.00  0.00     0.175 C 
BRANCH  21  22
ATOM     22  C   UNL d   1      27.562 -13.094   0.077  0.00  0.00     0.026 C 
BRANCH  22  23
ATOM     23  C   UNL d   1      26.946 -12.820   1.473  0.00  0.00    -0.002 C 
ATOM     24  C   UNL d   1      26.663 -11.343   1.624  0.00  0.00     0.005 C 
ENDBRANCH  22  23
ENDBRANCH  21  22
ENDBRANCH  20  21
ENDBRANCH  19  20
ENDBRANCH  12  14
ENDBRANCH  11  12
ENDBRANCH   8  11
ENDBRANCH   1   7
BRANCH   5  25
ATOM     25  C   UNL d   1      22.795 -17.321  -0.629  0.00  0.00     0.256 C 
ATOM     26  O   UNL d   1      21.923 -16.488  -0.848  0.00  0.00    -0.267 OA
ATOM     27  N   UNL d   1      22.550 -18.632  -0.217  0.00  0.00    -0.323 N 
ATOM     28  H   UNL d   1      23.294 -19.243   0.083  0.00  0.00     0.169 HD
BRANCH  27  29
ATOM     29  C   UNL d   1      21.262 -19.194  -0.192  0.00  0.00     0.035 A 
ATOM     30  C   UNL d   1      20.474 -19.229  -1.345  0.00  0.00     0.029 A 
ATOM     31  C   UNL d   1      19.157 -19.698  -1.271  0.00  0.00     0.003 A 
ATOM     32  C   UNL d   1      18.641 -20.148  -0.054  0.00  0.00     0.016 A 
ATOM     33  C   UNL d   1      19.424 -20.099   1.105  0.00  0.00     0.050 A 
ATOM     34  C   UNL d   1      20.735 -19.633   1.018  0.00  0.00     0.045 A 
BRANCH  33  35
ATOM     35  C   UNL d   1      18.868 -20.472   2.448  0.00  0.00     0.417 C 
ATOM     36  F   UNL d   1      18.408 -21.754   2.467  0.00  0.00    -0.166 F 
ATOM     37  F   UNL d   1      19.792 -20.387   3.442  0.00  0.00    -0.166 F 
ATOM     38  F   UNL d   1      17.818 -19.700   2.843  0.00  0.00    -0.166 F 
ENDBRANCH  33  35
ENDBRANCH  27  29
ENDBRANCH   5  25
TORSDOF 11
ENDMDL
MODEL 9
REMARK VINA RESULT:    -7.105      6.163      8.536
REMARK INTER + INTRA:         -13.319
REMARK INTER:                 -10.387
REMARK INTRA:                  -2.932
REMARK CONF_INDEPENDENT:        3.281
REMARK UNBOUND:                -2.932
REMARK  11 active torsions:
REMARK  status: ('A' for Active; 'I' for Inactive)
REMARK    1  A    between atoms: C_2  and  C_3 
REMARK    2  A    between atoms: C_3  and  C_4 
REMARK    3  A    between atoms: C_4  and  O_5 
REMARK    4  A    between atoms: O_5  and  C_6 
REMARK    5  A    between atoms: C_11  and  N_12 
REMARK    6  A    between atoms: N_12  and  C_13 
REMARK    7  A    between atoms: C_13  and  C_14 
REMARK       I    between atoms: C_14  and  N_16 
REMARK    8  A    between atoms: N_16  and  C_17 
REMARK    9  A    between atoms: C_21  and  C_22 
REMARK       I    between atoms: C_22  and  N_24 
REMARK   10  A    between atoms: N_24  and  C_25 
REMARK   11  A    between atoms: C_29  and  C_30 
ROOT
ATOM      1  C   UNL d   1      27.067 -13.922  -0.686  0.00  0.00     0.035 A 
ATOM      2  C   UNL d   1      27.469 -15.234  -0.924  0.00  0.00     0.029 A 
ATOM      3  C   UNL d   1      28.094 -15.944   0.102  0.00  0.00     0.003 A 
ATOM      4  C   UNL d   1      28.308 -15.335   1.344  0.00  0.00     0.017 A 
ATOM      5  C   UNL d   1      27.812 -14.050   1.604  0.00  0.00     0.034 A 
ATOM      6  C   UNL d   1      27.180 -13.366   0.583  0.00  0.00     0.046 A 
ENDROOT
BRANCH   1   7
ATOM      7  N   UNL d   1      26.546 -13.128  -1.713  0.00  0.00    -0.326 N 
ATOM      8  C   UNL d   1      27.161 -11.903  -2.071  0.00  0.00     0.239 C 
ATOM      9  O   UNL d   1      28.214 -11.475  -1.651  0.00  0.00    -0.271 OA
ATOM     10  H   UNL d   1      25.808 -13.535  -2.280  0.00  0.00     0.169 HD
BRANCH   8  11
ATOM     11  C   UNL d   1      26.272 -11.072  -2.937  0.00  0.00     0.223 C 
BRANCH  11  12
ATOM     12  N   UNL d   1      25.678 -11.607  -4.128  0.00  0.00    -0.379 N 
ATOM     13  H   UNL d   1      24.666 -11.495  -4.141  0.00  0.00     0.160 HD
BRANCH  12  14
ATOM     14  C   UNL d   1      26.175 -12.799  -4.704  0.00  0.00     0.062 A 
ATOM     15  C   UNL d   1      27.380 -12.592  -5.430  0.00  0.00     0.032 A 
ATOM     16  C   UNL d   1      28.170 -13.637  -5.918  0.00  0.00     0.002 A 
ATOM     17  C   UNL d   1      27.779 -14.946  -5.699  0.00  0.00     0.003 A 
ATOM     18  C   UNL d   1      26.578 -15.201  -5.036  0.00  0.00     0.039 A 
ATOM     19  C   UNL d   1      25.777 -14.161  -4.504  0.00  0.00     0.095 A 
BRANCH  19  20
ATOM     20  O   UNL d   1      24.780 -14.700  -3.691  0.00  0.00    -0.349 OA
BRANCH  20  21
ATOM     21  C   UNL d   1      25.156 -15.764  -2.838  0.00  0.00     0.175 C 
BRANCH  21  22
ATOM     22  C   UNL d   1      24.396 -15.955  -1.534  0.00  0.00     0.026 C 
BRANCH  22  23
ATOM     23  C   UNL d   1      23.979 -17.441  -1.383  0.00  0.00    -0.002 C 
ATOM     24  C   UNL d   1      24.637 -18.033  -0.159  0.00  0.00     0.005 C 
ENDBRANCH  22  23
ENDBRANCH  21  22
ENDBRANCH  20  21
ENDBRANCH  19  20
ENDBRANCH  12  14
ENDBRANCH  11  12
ENDBRANCH   8  11
ENDBRANCH   1   7
BRANCH   5  25
ATOM     25  C   UNL d   1      27.966 -13.459   2.958  0.00  0.00     0.256 C 
ATOM     26  O   UNL d   1      27.283 -12.476   3.221  0.00  0.00    -0.267 OA
ATOM     27  N   UNL d   1      28.918 -14.012   3.815  0.00  0.00    -0.323 N 
ATOM     28  H   UNL d   1      29.554 -14.734   3.509  0.00  0.00     0.169 HD
BRANCH  27  29
ATOM     29  C   UNL d   1      29.062 -13.612   5.154  0.00  0.00     0.035 A 
ATOM     30  C   UNL d   1      28.863 -14.520   6.197  0.00  0.00     0.029 A 
ATOM     31  C   UNL d   1      28.908 -14.074   7.523  0.00  0.00     0.003 A 
ATOM     32  C   UNL d   1      29.172 -12.731   7.802  0.00  0.00     0.016 A 
ATOM     33  C   UNL d   1      29.355 -11.818   6.757  0.00  0.00     0.050 A 
ATOM     34  C   UNL d   1      29.311 -12.275   5.441  0.00  0.00     0.045 A 
BRANCH  33  35
ATOM     35  C   UNL d   1      29.533 -10.349   7.016  0.00  0.00     0.417 C 
ATOM     36  F   UNL d   1      28.907  -9.958   8.161  0.00  0.00    -0.166 F 
ATOM     37  F   UNL d   1      30.838  -9.994   7.157  0.00  0.00    -0.166 F 
ATOM     38  F   UNL d   1      29.029  -9.552   6.033  0.00  0.00    -0.166 F 
ENDBRANCH  33  35
ENDBRANCH  27  29
ENDBRANCH   5  25
TORSDOF 11
ENDMDL
