MODEL 1
REMARK VINA RESULT:   -31.131      0.000      0.000
REMARK INTER + INTRA:         -32.481
REMARK INTER:                 -32.026
REMARK INTRA:                  -0.455
REMARK CONF_INDEPENDENT:        0.895
REMARK UNBOUND:                -0.455
REMARK  3 active torsions:
REMARK  status: ('A' for Active; 'I' for Inactive)
REMARK       I    between atoms: N_1  and  C_2 
REMARK    1  A    between atoms: C_2  and  C_4 
REMARK    2  A    between atoms: C_6  and  N_7 
REMARK       I    between atoms: N_7  and  C_8 
REMARK    3  A    between atoms: C_8  and  C_10 
ROOT
ATOM      1  C   UNL d   1      25.240 -15.351  -2.109  0.00  0.00     0.072 A 
ATOM      2  C   UNL d   1      24.055 -15.989  -1.655  0.00  0.00     0.053 A 
ATOM      3  C   UNL d   1      24.128 -17.062  -0.731  0.00  0.00     0.075 A 
ATOM      4  C   UNL d   1      25.417 -17.439  -0.301  0.00  0.00     0.146 A 
ATOM      5  F   UNL d   1      25.653 -18.420   0.568  0.00  0.00    -0.204 F 
ATOM      6  C   UNL d   1      26.570 -16.815  -0.749  0.00  0.00     0.088 A 
ATOM      7  C   UNL d   1      26.484 -15.783  -1.655  0.00  0.00     0.135 A 
ATOM      8  F   UNL d   1      27.624 -15.197  -2.044  0.00  0.00    -0.205 F 
ENDROOT
BRANCH   3   9
ATOM      9  N   UNL d   1      22.917 -17.697  -0.284  0.00  0.00    -0.319 N 
ATOM     10  C   UNL d   1      22.215 -18.691  -0.981  0.00  0.00     0.274 C 
ATOM     11  O   UNL d   1      22.480 -19.156  -2.085  0.00  0.00    -0.266 OA
ATOM     12  H   UNL d   1      22.580 -17.445   0.638  0.00  0.00     0.169 HD
BRANCH  10  13
ATOM     13  C   UNL d   1      21.001 -19.286  -0.362  0.00  0.00     0.126 A 
ATOM     14  C   UNL d   1      20.964 -19.610   0.978  0.00  0.00     0.061 A 
ATOM     15  C   UNL d   1      19.734 -20.016   1.487  0.00  0.00     0.037 A 
ATOM     16 CL   UNL d   1      19.612 -20.451   3.148  0.00  0.00    -0.084 Cl
ATOM     17  C   UNL d   1      18.599 -20.067   0.685  0.00  0.00     0.043 A 
ATOM     18  C   UNL d   1      18.731 -19.698  -0.636  0.00  0.00     0.119 A 
ATOM     19  N   UNL d   1      19.905 -19.325  -1.173  0.00  0.00    -0.255 NA
ENDBRANCH  10  13
ENDBRANCH   3   9
BRANCH   1  20
ATOM     20  C   UNL d   1      25.242 -14.231  -3.078  0.00  0.00     0.252 C 
ATOM     21  N   UNL d   1      25.792 -13.049  -2.671  0.00  0.00    -0.366 N 
ATOM     22  H   UNL d   1      25.918 -12.349  -3.395  0.00  0.00     0.159 HD
ATOM     23  H   UNL d   1      26.318 -12.939  -1.817  0.00  0.00     0.159 HD
ATOM     24  O   UNL d   1      24.804 -14.360  -4.214  0.00  0.00    -0.268 OA
ENDBRANCH   1  20
TORSDOF 3
ENDMDL
MODEL 2
REMARK VINA RESULT:   -30.396      2.073      2.618
REMARK INTER + INTRA:         -31.724
REMARK INTER:                 -31.291
REMARK INTRA:                  -0.433
REMARK CONF_INDEPENDENT:        0.895
REMARK UNBOUND:                -0.433
REMARK  3 active torsions:
REMARK  status: ('A' for Active; 'I' for Inactive)
REMARK       I    between atoms: N_1  and  C_2 
REMARK    1  A    between atoms: C_2  and  C_4 
REMARK    2  A    between atoms: C_6  and  N_7 
REMARK       I    between atoms: N_7  and  C_8 
REMARK    3  A    between atoms: C_8  and  C_10 
ROOT
ATOM      1  C   UNL d   1      26.455 -16.703  -0.498  0.00  0.00     0.072 A 
ATOM      2  C   UNL d   1      25.251 -17.361  -0.130  0.00  0.00     0.053 A 
ATOM      3  C   UNL d   1      24.003 -16.899  -0.619  0.00  0.00     0.075 A 
ATOM      4  C   UNL d   1      24.036 -15.778  -1.476  0.00  0.00     0.146 A 
ATOM      5  F   UNL d   1      22.953 -15.230  -2.023  0.00  0.00    -0.204 F 
ATOM      6  C   UNL d   1      25.212 -15.139  -1.830  0.00  0.00     0.088 A 
ATOM      7  C   UNL d   1      26.415 -15.592  -1.337  0.00  0.00     0.135 A 
ATOM      8  F   UNL d   1      27.528 -14.955  -1.723  0.00  0.00    -0.205 F 
ENDROOT
BRANCH   3   9
ATOM      9  N   UNL d   1      22.794 -17.577  -0.234  0.00  0.00    -0.319 N 
ATOM     10  C   UNL d   1      22.178 -18.611  -0.953  0.00  0.00     0.274 C 
ATOM     11  O   UNL d   1      22.530 -19.084  -2.030  0.00  0.00    -0.266 OA
ATOM     12  H   UNL d   1      22.391 -17.323   0.660  0.00  0.00     0.169 HD
BRANCH  10  13
ATOM     13  C   UNL d   1      20.954 -19.247  -0.398  0.00  0.00     0.126 A 
ATOM     14  C   UNL d   1      20.856 -19.571   0.939  0.00  0.00     0.061 A 
ATOM     15  C   UNL d   1      19.616 -20.017   1.383  0.00  0.00     0.037 A 
ATOM     16 CL   UNL d   1      19.419 -20.454   3.036  0.00  0.00    -0.084 Cl
ATOM     17  C   UNL d   1      18.527 -20.108   0.522  0.00  0.00     0.043 A 
ATOM     18  C   UNL d   1      18.717 -19.737  -0.791  0.00  0.00     0.119 A 
ATOM     19  N   UNL d   1      19.905 -19.324  -1.266  0.00  0.00    -0.255 NA
ENDBRANCH  10  13
ENDBRANCH   3   9
BRANCH   1  20
ATOM     20  C   UNL d   1      27.792 -17.123  -0.021  0.00  0.00     0.252 C 
ATOM     21  N   UNL d   1      28.558 -16.184   0.609  0.00  0.00    -0.366 N 
ATOM     22  H   UNL d   1      29.400 -16.532   1.057  0.00  0.00     0.159 HD
ATOM     23  H   UNL d   1      28.216 -15.280   0.893  0.00  0.00     0.159 HD
ATOM     24  O   UNL d   1      28.190 -18.274  -0.149  0.00  0.00    -0.268 OA
ENDBRANCH   1  20
TORSDOF 3
ENDMDL
