MODEL 1
REMARK VINA RESULT:    -7.010      0.000      0.000
REMARK INTER + INTRA:         -10.992
REMARK INTER:                  -9.098
REMARK INTRA:                  -1.894
REMARK CONF_INDEPENDENT:        2.088
REMARK UNBOUND:                -1.894
REMARK  7 active torsions:
REMARK  status: ('A' for Active; 'I' for Inactive)
REMARK       I    between atoms: C_2  and  N_4 
REMARK    1  A    between atoms: C_5  and  N_4 
REMARK    2  A    between atoms: C_6  and  O_7 
REMARK    3  A    between atoms: O_7  and  C_8 
REMARK    4  A    between atoms: C_28  and  C_29 
REMARK    5  A    between atoms: C_29  and  O_30 
REMARK    6  A    between atoms: C_31  and  O_32 
REMARK    7  A    between atoms: C_33  and  O_34 
ROOT
ATOM      1  C   UNL d   1      28.869 -11.650  -1.535  0.00  0.00     0.072 A 
ATOM      2  C   UNL d   1      28.048 -10.221  -0.613  0.00  0.00     0.037 A 
ATOM      3  C   UNL d   1      27.299 -10.605   0.949  0.00  0.00     0.011 A 
ATOM      4  C   UNL d   1      27.433 -12.180   1.612  0.00  0.00    -0.047 A 
ATOM      5  C   UNL d   1      28.269 -13.444   0.780  0.00  0.00    -0.049 A 
ATOM      6  C   UNL d   1      29.027 -13.249  -0.745  0.00  0.00     0.044 A 
ATOM      7  C   UNL d   1      28.744 -14.635   1.511  0.00  0.00     0.039 C 
ATOM      8  C   UNL d   1      28.751 -14.370   2.964  0.00  0.00     0.010 C 
ATOM      9  C   UNL d   1      27.513 -13.706   3.573  0.00  0.00    -0.000 C 
ATOM     10  C   UNL d   1      27.342 -12.235   3.125  0.00  0.00     0.024 C 
ATOM     11  C   UNL d   1      28.343 -11.258   3.835  0.00  0.00     0.011 C 
ATOM     12  C   UNL d   1      28.167 -11.285   5.334  0.00  0.00     0.018 C 
ATOM     13  C   UNL d   1      28.314 -12.670   5.771  0.00  0.00     0.021 C 
ATOM     14  C   UNL d   1      28.088 -12.852   7.364  0.00  0.00     0.024 C 
ATOM     15  C   UNL d   1      29.713 -13.106   5.337  0.00  0.00     0.135 C 
ATOM     16  O   UNL d   1      30.477 -12.925   4.410  0.00  0.00    -0.297 OA
ATOM     17  C   UNL d   1      30.133 -13.968   6.356  0.00  0.00     0.079 C 
ATOM     18  C   UNL d   1      28.523 -14.810   5.798  0.00  0.00     0.013 C 
ATOM     19  C   UNL d   1      27.547 -13.748   5.114  0.00  0.00     0.006 C 
ENDROOT
BRANCH   1  20
ATOM     20  O   UNL d   1      29.036 -11.694  -2.844  0.00  0.00    -0.318 OA
BRANCH  20  21
ATOM     21  C   UNL d   1      27.732 -12.062  -2.998  0.00  0.00     0.292 C 
ATOM     22  C   UNL d   1      27.073 -11.072  -4.041  0.00  0.00     0.171 C 
ATOM     23  C   UNL d   1      25.740 -11.672  -4.326  0.00  0.00     0.177 C 
ATOM     24  C   UNL d   1      25.868 -13.173  -4.623  0.00  0.00     0.180 C 
ATOM     25  C   UNL d   1      26.680 -13.946  -3.576  0.00  0.00     0.179 C 
ATOM     26  O   UNL d   1      27.923 -13.362  -3.417  0.00  0.00    -0.349 OA
BRANCH  22  27
ATOM     27  N   UNL d   1      26.909  -9.604  -3.531  0.00  0.00    -0.349 N 
ATOM     28  C   UNL d   1      25.862  -8.477  -3.922  0.00  0.00     0.214 C 
ATOM     29  C   UNL d   1      24.523  -8.422  -5.618  0.00  0.00     0.117 C 
ATOM     30  O   UNL d   1      26.224  -7.662  -3.008  0.00  0.00    -0.274 OA
ATOM     31  H   UNL d   1      27.403  -9.371  -2.665  0.00  0.00     0.163 HD
ENDBRANCH  22  27
BRANCH  23  32
ATOM     32  O   UNL d   1      25.157 -10.963  -5.416  0.00  0.00    -0.391 OA
ATOM     33  H   UNL d   1      24.500 -11.554  -5.828  0.00  0.00     0.210 HD
ENDBRANCH  23  32
BRANCH  24  34
ATOM     34  O   UNL d   1      24.550 -13.698  -4.645  0.00  0.00    -0.390 OA
ATOM     35  H   UNL d   1      23.977 -13.014  -5.034  0.00  0.00     0.210 HD
ENDBRANCH  24  34
BRANCH  25  36
ATOM     36  C   UNL d   1      27.022 -15.346  -4.021  0.00  0.00     0.198 C 
BRANCH  36  37
ATOM     37  O   UNL d   1      26.604 -15.572  -5.345  0.00  0.00    -0.398 OA
ATOM     38  H   UNL d   1      25.642 -15.440  -5.368  0.00  0.00     0.209 HD
ENDBRANCH  36  37
ENDBRANCH  25  36
ENDBRANCH  20  21
ENDBRANCH   1  20
TORSDOF 7
ENDMDL
MODEL 2
REMARK VINA RESULT:    -6.681      1.470      2.401
REMARK INTER + INTRA:         -10.861
REMARK INTER:                  -8.770
REMARK INTRA:                  -2.092
REMARK CONF_INDEPENDENT:        2.088
REMARK UNBOUND:                -2.092
REMARK  7 active torsions:
REMARK  status: ('A' for Active; 'I' for Inactive)
REMARK       I    between atoms: C_2  and  N_4 
REMARK    1  A    between atoms: C_5  and  N_4 
REMARK    2  A    between atoms: C_6  and  O_7 
REMARK    3  A    between atoms: O_7  and  C_8 
REMARK    4  A    between atoms: C_28  and  C_29 
REMARK    5  A    between atoms: C_29  and  O_30 
REMARK    6  A    between atoms: C_31  and  O_32 
REMARK    7  A    between atoms: C_33  and  O_34 
ROOT
ATOM      1  C   UNL d   1      28.990 -12.995  -1.206  0.00  0.00     0.072 A 
ATOM      2  C   UNL d   1      28.611 -14.752  -0.624  0.00  0.00     0.037 A 
ATOM      3  C   UNL d   1      29.177 -15.193   0.999  0.00  0.00     0.011 A 
ATOM      4  C   UNL d   1      29.925 -14.025   2.005  0.00  0.00    -0.047 A 
ATOM      5  C   UNL d   1      30.178 -12.400   1.471  0.00  0.00    -0.049 A 
ATOM      6  C   UNL d   1      29.714 -11.815  -0.071  0.00  0.00     0.044 A 
ATOM      7  C   UNL d   1      30.417 -11.320   2.449  0.00  0.00     0.039 C 
ATOM      8  C   UNL d   1      30.018 -11.760   3.801  0.00  0.00     0.010 C 
ATOM      9  C   UNL d   1      30.479 -13.145   4.264  0.00  0.00    -0.000 C 
ATOM     10  C   UNL d   1      29.788 -14.294   3.491  0.00  0.00     0.024 C 
ATOM     11  C   UNL d   1      28.302 -14.526   3.937  0.00  0.00     0.011 C 
ATOM     12  C   UNL d   1      28.215 -14.869   5.405  0.00  0.00     0.018 C 
ATOM     13  C   UNL d   1      28.874 -13.797   6.147  0.00  0.00     0.021 C 
ATOM     14  C   UNL d   1      28.906 -14.070   7.743  0.00  0.00     0.024 C 
ATOM     15  C   UNL d   1      28.121 -12.514   5.799  0.00  0.00     0.135 C 
ATOM     16  O   UNL d   1      27.566 -12.015   4.841  0.00  0.00    -0.297 OA
ATOM     17  C   UNL d   1      28.157 -11.767   6.981  0.00  0.00     0.079 C 
ATOM     18  C   UNL d   1      30.009 -12.047   6.664  0.00  0.00     0.013 C 
ATOM     19  C   UNL d   1      30.231 -13.351   5.771  0.00  0.00     0.006 C 
ENDROOT
BRANCH   1  20
ATOM     20  O   UNL d   1      29.096 -12.636  -2.473  0.00  0.00    -0.318 OA
BRANCH  20  21
ATOM     21  C   UNL d   1      27.763 -12.866  -2.649  0.00  0.00     0.292 C 
ATOM     22  C   UNL d   1      27.125 -11.551  -3.253  0.00  0.00     0.171 C 
ATOM     23  C   UNL d   1      25.740 -11.953  -3.627  0.00  0.00     0.177 C 
ATOM     24  C   UNL d   1      25.747 -13.271  -4.415  0.00  0.00     0.180 C 
ATOM     25  C   UNL d   1      26.553 -14.390  -3.744  0.00  0.00     0.179 C 
ATOM     26  O   UNL d   1      27.840 -13.957  -3.488  0.00  0.00    -0.349 OA
BRANCH  22  27
ATOM     27  N   UNL d   1      27.090 -10.334  -2.274  0.00  0.00    -0.349 N 
ATOM     28  C   UNL d   1      26.396  -8.913  -2.404  0.00  0.00     0.214 C 
ATOM     29  C   UNL d   1      25.582  -7.976  -4.174  0.00  0.00     0.117 C 
ATOM     30  O   UNL d   1      26.640  -8.555  -1.203  0.00  0.00    -0.274 OA
ATOM     31  H   UNL d   1      27.371 -10.526  -1.309  0.00  0.00     0.163 HD
ENDBRANCH  22  27
BRANCH  23  32
ATOM     32  O   UNL d   1      25.155 -10.890  -4.375  0.00  0.00    -0.391 OA
ATOM     33  H   UNL d   1      24.861 -11.263  -5.226  0.00  0.00     0.210 HD
ENDBRANCH  23  32
BRANCH  24  34
ATOM     34  O   UNL d   1      24.396 -13.692  -4.517  0.00  0.00    -0.390 OA
ATOM     35  H   UNL d   1      23.880 -12.922  -4.817  0.00  0.00     0.210 HD
ENDBRANCH  24  34
BRANCH  25  36
ATOM     36  C   UNL d   1      26.772 -15.575  -4.652  0.00  0.00     0.198 C 
BRANCH  36  37
ATOM     37  O   UNL d   1      27.476 -15.200  -5.811  0.00  0.00    -0.398 OA
ATOM     38  H   UNL d   1      28.170 -14.579  -5.535  0.00  0.00     0.209 HD
ENDBRANCH  36  37
ENDBRANCH  25  36
ENDBRANCH  20  21
ENDBRANCH   1  20
TORSDOF 7
ENDMDL
MODEL 3
REMARK VINA RESULT:    -6.624      3.052      8.564
REMARK INTER + INTRA:         -10.750
REMARK INTER:                  -8.712
REMARK INTRA:                  -2.037
REMARK CONF_INDEPENDENT:        2.088
REMARK UNBOUND:                -2.037
REMARK  7 active torsions:
REMARK  status: ('A' for Active; 'I' for Inactive)
REMARK       I    between atoms: C_2  and  N_4 
REMARK    1  A    between atoms: C_5  and  N_4 
REMARK    2  A    between atoms: C_6  and  O_7 
REMARK    3  A    between atoms: O_7  and  C_8 
REMARK    4  A    between atoms: C_28  and  C_29 
REMARK    5  A    between atoms: C_29  and  O_30 
REMARK    6  A    between atoms: C_31  and  O_32 
REMARK    7  A    between atoms: C_33  and  O_34 
ROOT
ATOM      1  C   UNL d   1      27.153 -13.455   2.145  0.00  0.00     0.072 A 
ATOM      2  C   UNL d   1      27.780 -15.231   1.999  0.00  0.00     0.037 A 
ATOM      3  C   UNL d   1      27.663 -15.988   0.399  0.00  0.00     0.011 A 
ATOM      4  C   UNL d   1      27.110 -15.087  -0.950  0.00  0.00    -0.047 A 
ATOM      5  C   UNL d   1      26.626 -13.434  -0.797  0.00  0.00    -0.049 A 
ATOM      6  C   UNL d   1      26.655 -12.560   0.676  0.00  0.00     0.044 A 
ATOM      7  C   UNL d   1      26.565 -12.560  -1.985  0.00  0.00     0.039 C 
ATOM      8  C   UNL d   1      27.314 -13.167  -3.103  0.00  0.00     0.010 C 
ATOM      9  C   UNL d   1      27.074 -14.651  -3.398  0.00  0.00    -0.000 C 
ATOM     10  C   UNL d   1      27.628 -15.577  -2.289  0.00  0.00     0.024 C 
ATOM     11  C   UNL d   1      29.190 -15.715  -2.328  0.00  0.00     0.011 C 
ATOM     12  C   UNL d   1      29.659 -16.279  -3.648  0.00  0.00     0.018 C 
ATOM     13  C   UNL d   1      29.134 -15.421  -4.706  0.00  0.00     0.021 C 
ATOM     14  C   UNL d   1      29.516 -15.950  -6.188  0.00  0.00     0.024 C 
ATOM     15  C   UNL d   1      29.691 -14.024  -4.435  0.00  0.00     0.135 C 
ATOM     16  O   UNL d   1      29.958 -13.318  -3.482  0.00  0.00    -0.297 OA
ATOM     17  C   UNL d   1      29.899 -13.486  -5.709  0.00  0.00     0.079 C 
ATOM     18  C   UNL d   1      28.048 -13.911  -5.784  0.00  0.00     0.013 C 
ATOM     19  C   UNL d   1      27.700 -15.070  -4.743  0.00  0.00     0.006 C 
ENDROOT
BRANCH   1  20
ATOM     20  O   UNL d   1      26.714 -12.909   3.265  0.00  0.00    -0.318 OA
BRANCH  20  21
ATOM     21  C   UNL d   1      27.972 -12.459   3.538  0.00  0.00     0.292 C 
ATOM     22  C   UNL d   1      27.848 -11.315   4.622  0.00  0.00     0.171 C 
ATOM     23  C   UNL d   1      29.254 -11.042   5.031  0.00  0.00     0.177 C 
ATOM     24  C   UNL d   1      30.000 -12.350   5.334  0.00  0.00     0.180 C 
ATOM     25  C   UNL d   1      29.874 -13.406   4.229  0.00  0.00     0.179 C 
ATOM     26  O   UNL d   1      28.540 -13.644   3.954  0.00  0.00    -0.349 OA
BRANCH  22  27
ATOM     27  N   UNL d   1      27.169 -10.004   4.112  0.00  0.00    -0.349 N 
ATOM     28  C   UNL d   1      27.123  -9.349   2.667  0.00  0.00     0.214 C 
ATOM     29  C   UNL d   1      28.340  -9.818   0.944  0.00  0.00     0.117 C 
ATOM     30  O   UNL d   1      26.276  -8.444   2.978  0.00  0.00    -0.274 OA
ATOM     31  H   UNL d   1      26.465  -9.592   4.732  0.00  0.00     0.163 HD
ENDBRANCH  22  27
BRANCH  23  32
ATOM     32  O   UNL d   1      29.229 -10.172   6.160  0.00  0.00    -0.391 OA
ATOM     33  H   UNL d   1      30.043 -10.336   6.671  0.00  0.00     0.210 HD
ENDBRANCH  23  32
BRANCH  24  34
ATOM     34  O   UNL d   1      31.371 -12.014   5.479  0.00  0.00    -0.390 OA
ATOM     35  H   UNL d   1      31.874 -12.846   5.422  0.00  0.00     0.210 HD
ENDBRANCH  24  34
BRANCH  25  36
ATOM     36  C   UNL d   1      30.376 -14.762   4.659  0.00  0.00     0.198 C 
BRANCH  36  37
ATOM     37  O   UNL d   1      29.318 -15.574   5.105  0.00  0.00    -0.398 OA
ATOM     38  H   UNL d   1      28.769 -15.780   4.331  0.00  0.00     0.209 HD
ENDBRANCH  36  37
ENDBRANCH  25  36
ENDBRANCH  20  21
ENDBRANCH   1  20
TORSDOF 7
ENDMDL
MODEL 4
REMARK VINA RESULT:    -6.389      3.042      4.998
REMARK INTER + INTRA:         -10.692
REMARK INTER:                  -8.477
REMARK INTRA:                  -2.215
REMARK CONF_INDEPENDENT:        2.088
REMARK UNBOUND:                -2.215
REMARK  7 active torsions:
REMARK  status: ('A' for Active; 'I' for Inactive)
REMARK       I    between atoms: C_2  and  N_4 
REMARK    1  A    between atoms: C_5  and  N_4 
REMARK    2  A    between atoms: C_6  and  O_7 
REMARK    3  A    between atoms: O_7  and  C_8 
REMARK    4  A    between atoms: C_28  and  C_29 
REMARK    5  A    between atoms: C_29  and  O_30 
REMARK    6  A    between atoms: C_31  and  O_32 
REMARK    7  A    between atoms: C_33  and  O_34 
ROOT
ATOM      1  C   UNL d   1      27.131 -14.668  -4.540  0.00  0.00     0.072 A 
ATOM      2  C   UNL d   1      25.506 -14.212  -3.693  0.00  0.00     0.037 A 
ATOM      3  C   UNL d   1      25.401 -14.521  -1.949  0.00  0.00     0.011 A 
ATOM      4  C   UNL d   1      26.765 -15.098  -1.087  0.00  0.00    -0.047 A 
ATOM      5  C   UNL d   1      28.266 -15.424  -1.880  0.00  0.00    -0.049 A 
ATOM      6  C   UNL d   1      28.531 -15.202  -3.558  0.00  0.00     0.044 A 
ATOM      7  C   UNL d   1      29.520 -15.502  -1.105  0.00  0.00     0.039 C 
ATOM      8  C   UNL d   1      29.332 -14.901   0.230  0.00  0.00     0.010 C 
ATOM      9  C   UNL d   1      28.077 -15.291   1.017  0.00  0.00    -0.000 C 
ATOM     10  C   UNL d   1      26.779 -14.734   0.386  0.00  0.00     0.024 C 
ATOM     11  C   UNL d   1      26.585 -13.198   0.638  0.00  0.00     0.011 C 
ATOM     12  C   UNL d   1      26.526 -12.886   2.114  0.00  0.00     0.018 C 
ATOM     13  C   UNL d   1      27.741 -13.417   2.726  0.00  0.00     0.021 C 
ATOM     14  C   UNL d   1      27.779 -13.202   4.330  0.00  0.00     0.024 C 
ATOM     15  C   UNL d   1      28.908 -12.721   2.026  0.00  0.00     0.135 C 
ATOM     16  O   UNL d   1      29.196 -12.318   0.916  0.00  0.00    -0.297 OA
ATOM     17  C   UNL d   1      29.867 -12.569   3.032  0.00  0.00     0.079 C 
ATOM     18  C   UNL d   1      29.596 -14.450   3.060  0.00  0.00     0.013 C 
ATOM     19  C   UNL d   1      28.154 -14.814   2.481  0.00  0.00     0.006 C 
ENDROOT
BRANCH   1  20
ATOM     20  O   UNL d   1      27.246 -14.967  -5.821  0.00  0.00    -0.318 OA
BRANCH  20  21
ATOM     21  C   UNL d   1      27.982 -13.837  -6.019  0.00  0.00     0.292 C 
ATOM     22  C   UNL d   1      28.788 -14.018  -7.368  0.00  0.00     0.171 C 
ATOM     23  C   UNL d   1      29.376 -12.674  -7.629  0.00  0.00     0.177 C 
ATOM     24  C   UNL d   1      28.315 -11.574  -7.475  0.00  0.00     0.180 C 
ATOM     25  C   UNL d   1      27.522 -11.656  -6.165  0.00  0.00     0.179 C 
ATOM     26  O   UNL d   1      26.960 -12.912  -6.030  0.00  0.00    -0.349 OA
BRANCH  22  27
ATOM     27  N   UNL d   1      29.914 -15.100  -7.314  0.00  0.00    -0.349 N 
ATOM     28  C   UNL d   1      30.989 -15.430  -6.195  0.00  0.00     0.214 C 
ATOM     29  C   UNL d   1      31.566 -14.226  -4.495  0.00  0.00     0.117 C 
ATOM     30  O   UNL d   1      31.414 -16.497  -6.754  0.00  0.00    -0.274 OA
ATOM     31  H   UNL d   1      29.838 -15.861  -7.995  0.00  0.00     0.163 HD
ENDBRANCH  22  27
BRANCH  23  32
ATOM     32  O   UNL d   1      29.945 -12.684  -8.935  0.00  0.00    -0.391 OA
ATOM     33  H   UNL d   1      30.335 -13.566  -9.075  0.00  0.00     0.210 HD
ENDBRANCH  23  32
BRANCH  24  34
ATOM     34  O   UNL d   1      29.005 -10.335  -7.505  0.00  0.00    -0.390 OA
ATOM     35  H   UNL d   1      29.786 -10.458  -8.074  0.00  0.00     0.210 HD
ENDBRANCH  24  34
BRANCH  25  36
ATOM     36  C   UNL d   1      26.318 -10.747  -6.155  0.00  0.00     0.198 C 
BRANCH  36  37
ATOM     37  O   UNL d   1      25.151 -11.449  -6.506  0.00  0.00    -0.398 OA
ATOM     38  H   UNL d   1      24.964 -12.071  -5.783  0.00  0.00     0.209 HD
ENDBRANCH  36  37
ENDBRANCH  25  36
ENDBRANCH  20  21
ENDBRANCH   1  20
TORSDOF 7
ENDMDL
MODEL 5
REMARK VINA RESULT:    -6.388      3.001      9.204
REMARK INTER + INTRA:         -10.549
REMARK INTER:                  -8.476
REMARK INTRA:                  -2.073
REMARK CONF_INDEPENDENT:        2.088
REMARK UNBOUND:                -2.073
REMARK  7 active torsions:
REMARK  status: ('A' for Active; 'I' for Inactive)
REMARK       I    between atoms: C_2  and  N_4 
REMARK    1  A    between atoms: C_5  and  N_4 
REMARK    2  A    between atoms: C_6  and  O_7 
REMARK    3  A    between atoms: O_7  and  C_8 
REMARK    4  A    between atoms: C_28  and  C_29 
REMARK    5  A    between atoms: C_29  and  O_30 
REMARK    6  A    between atoms: C_31  and  O_32 
REMARK    7  A    between atoms: C_33  and  O_34 
ROOT
ATOM      1  C   UNL d   1      27.191 -14.287   0.645  0.00  0.00     0.072 A 
ATOM      2  C   UNL d   1      27.066 -15.843  -0.418  0.00  0.00     0.037 A 
ATOM      3  C   UNL d   1      26.685 -15.607  -2.134  0.00  0.00     0.011 A 
ATOM      4  C   UNL d   1      26.557 -14.027  -2.786  0.00  0.00    -0.047 A 
ATOM      5  C   UNL d   1      26.765 -12.622  -1.800  0.00  0.00    -0.049 A 
ATOM      6  C   UNL d   1      27.113 -12.672  -0.123  0.00  0.00     0.044 A 
ATOM      7  C   UNL d   1      27.075 -11.316  -2.415  0.00  0.00     0.039 C 
ATOM      8  C   UNL d   1      27.540 -11.505  -3.803  0.00  0.00     0.010 C 
ATOM      9  C   UNL d   1      26.738 -12.451  -4.701  0.00  0.00    -0.000 C 
ATOM     10  C   UNL d   1      26.861 -13.932  -4.269  0.00  0.00     0.024 C 
ATOM     11  C   UNL d   1      28.241 -14.571  -4.654  0.00  0.00     0.011 C 
ATOM     12  C   UNL d   1      28.470 -14.527  -6.146  0.00  0.00     0.018 C 
ATOM     13  C   UNL d   1      28.346 -13.135  -6.570  0.00  0.00     0.021 C 
ATOM     14  C   UNL d   1      28.512 -12.952  -8.170  0.00  0.00     0.024 C 
ATOM     15  C   UNL d   1      29.406 -12.357  -5.791  0.00  0.00     0.135 C 
ATOM     16  O   UNL d   1      29.915 -12.365  -4.688  0.00  0.00    -0.297 OA
ATOM     17  C   UNL d   1      29.831 -11.370  -6.686  0.00  0.00     0.079 C 
ATOM     18  C   UNL d   1      27.965 -11.020  -6.607  0.00  0.00     0.013 C 
ATOM     19  C   UNL d   1      27.169 -12.335  -6.177  0.00  0.00     0.006 C 
ENDROOT
BRANCH   1  20
ATOM     20  O   UNL d   1      26.985 -14.257   1.950  0.00  0.00    -0.318 OA
BRANCH  20  21
ATOM     21  C   UNL d   1      28.295 -13.930   2.148  0.00  0.00     0.292 C 
ATOM     22  C   UNL d   1      28.621 -14.161   3.678  0.00  0.00     0.171 C 
ATOM     23  C   UNL d   1      30.100 -14.009   3.766  0.00  0.00     0.177 C 
ATOM     24  C   UNL d   1      30.800 -14.825   2.669  0.00  0.00     0.180 C 
ATOM     25  C   UNL d   1      30.238 -14.584   1.263  0.00  0.00     0.179 C 
ATOM     26  O   UNL d   1      28.874 -14.806   1.254  0.00  0.00    -0.349 OA
BRANCH  22  27
ATOM     27  N   UNL d   1      27.916 -13.164   4.653  0.00  0.00    -0.349 N 
ATOM     28  C   UNL d   1      28.160 -12.864   6.192  0.00  0.00     0.214 C 
ATOM     29  C   UNL d   1      29.290 -14.026   7.621  0.00  0.00     0.117 C 
ATOM     30  O   UNL d   1      27.373 -11.858   6.239  0.00  0.00    -0.274 OA
ATOM     31  H   UNL d   1      27.349 -12.433   4.214  0.00  0.00     0.163 HD
ENDBRANCH  22  27
BRANCH  23  32
ATOM     32  O   UNL d   1      30.513 -14.409   5.070  0.00  0.00    -0.391 OA
ATOM     33  H   UNL d   1      31.481 -14.520   5.047  0.00  0.00     0.210 HD
ENDBRANCH  23  32
BRANCH  24  34
ATOM     34  O   UNL d   1      32.165 -14.437   2.679  0.00  0.00    -0.390 OA
ATOM     35  H   UNL d   1      32.425 -14.335   3.612  0.00  0.00     0.210 HD
ENDBRANCH  24  34
BRANCH  25  36
ATOM     36  C   UNL d   1      30.746 -15.584   0.253  0.00  0.00     0.198 C 
BRANCH  36  37
ATOM     37  O   UNL d   1      29.880 -16.687   0.154  0.00  0.00    -0.398 OA
ATOM     38  H   UNL d   1      29.376 -16.729   0.983  0.00  0.00     0.209 HD
ENDBRANCH  36  37
ENDBRANCH  25  36
ENDBRANCH  20  21
ENDBRANCH   1  20
TORSDOF 7
ENDMDL
MODEL 6
REMARK VINA RESULT:    -6.330      3.714      5.942
REMARK INTER + INTRA:         -10.776
REMARK INTER:                  -8.418
REMARK INTRA:                  -2.358
REMARK CONF_INDEPENDENT:        2.088
REMARK UNBOUND:                -2.358
REMARK  7 active torsions:
REMARK  status: ('A' for Active; 'I' for Inactive)
REMARK       I    between atoms: C_2  and  N_4 
REMARK    1  A    between atoms: C_5  and  N_4 
REMARK    2  A    between atoms: C_6  and  O_7 
REMARK    3  A    between atoms: O_7  and  C_8 
REMARK    4  A    between atoms: C_28  and  C_29 
REMARK    5  A    between atoms: C_29  and  O_30 
REMARK    6  A    between atoms: C_31  and  O_32 
REMARK    7  A    between atoms: C_33  and  O_34 
ROOT
ATOM      1  C   UNL d   1      27.717 -14.906  -4.564  0.00  0.00     0.072 A 
ATOM      2  C   UNL d   1      26.816 -13.268  -4.294  0.00  0.00     0.037 A 
ATOM      3  C   UNL d   1      26.248 -12.932  -2.648  0.00  0.00     0.011 A 
ATOM      4  C   UNL d   1      26.615 -14.009  -1.366  0.00  0.00    -0.047 A 
ATOM      5  C   UNL d   1      27.518 -15.459  -1.633  0.00  0.00    -0.049 A 
ATOM      6  C   UNL d   1      28.121 -15.944  -3.162  0.00  0.00     0.044 A 
ATOM      7  C   UNL d   1      28.186 -16.143  -0.508  0.00  0.00     0.039 C 
ATOM      8  C   UNL d   1      28.282 -15.236   0.653  0.00  0.00     0.010 C 
ATOM      9  C   UNL d   1      27.030 -14.446   1.046  0.00  0.00    -0.000 C 
ATOM     10  C   UNL d   1      26.656 -13.364   0.006  0.00  0.00     0.024 C 
ATOM     11  C   UNL d   1      27.593 -12.107   0.064  0.00  0.00     0.011 C 
ATOM     12  C   UNL d   1      27.545 -11.448   1.421  0.00  0.00     0.018 C 
ATOM     13  C   UNL d   1      27.885 -12.462   2.416  0.00  0.00     0.021 C 
ATOM     14  C   UNL d   1      27.814 -11.899   3.932  0.00  0.00     0.024 C 
ATOM     15  C   UNL d   1      29.285 -12.958   2.055  0.00  0.00     0.135 C 
ATOM     16  O   UNL d   1      29.944 -13.179   1.058  0.00  0.00    -0.297 OA
ATOM     17  C   UNL d   1      29.883 -13.222   3.291  0.00  0.00     0.079 C 
ATOM     18  C   UNL d   1      28.340 -14.327   3.383  0.00  0.00     0.013 C 
ATOM     19  C   UNL d   1      27.196 -13.768   2.421  0.00  0.00     0.006 C 
ENDROOT
BRANCH   1  20
ATOM     20  O   UNL d   1      27.780 -15.541  -5.721  0.00  0.00    -0.318 OA
BRANCH  20  21
ATOM     21  C   UNL d   1      29.061 -15.105  -5.889  0.00  0.00     0.292 C 
ATOM     22  C   UNL d   1      29.921 -16.328  -6.404  0.00  0.00     0.171 C 
ATOM     23  C   UNL d   1      31.231 -15.725  -6.779  0.00  0.00     0.177 C 
ATOM     24  C   UNL d   1      31.028 -14.473  -7.645  0.00  0.00     0.180 C 
ATOM     25  C   UNL d   1      30.033 -13.466  -7.055  0.00  0.00     0.179 C 
ATOM     26  O   UNL d   1      28.828 -14.091  -6.793  0.00  0.00    -0.349 OA
BRANCH  22  27
ATOM     27  N   UNL d   1      30.130 -17.466  -5.354  0.00  0.00    -0.349 N 
ATOM     28  C   UNL d   1      30.622 -18.964  -5.526  0.00  0.00     0.214 C 
ATOM     29  C   UNL d   1      30.791 -20.119  -7.345  0.00  0.00     0.117 C 
ATOM     30  O   UNL d   1      30.710 -19.201  -4.274  0.00  0.00    -0.274 OA
ATOM     31  H   UNL d   1      30.164 -17.171  -4.374  0.00  0.00     0.163 HD
ENDBRANCH  22  27
BRANCH  23  32
ATOM     32  O   UNL d   1      32.000 -16.717  -7.454  0.00  0.00    -0.391 OA
ATOM     33  H   UNL d   1      32.606 -16.252  -8.059  0.00  0.00     0.210 HD
ENDBRANCH  23  32
BRANCH  24  34
ATOM     34  O   UNL d   1      32.294 -13.841  -7.752  0.00  0.00    -0.390 OA
ATOM     35  H   UNL d   1      32.968 -14.540  -7.672  0.00  0.00     0.210 HD
ENDBRANCH  24  34
BRANCH  25  36
ATOM     36  C   UNL d   1      29.645 -12.387  -8.036  0.00  0.00     0.198 C 
BRANCH  36  37
ATOM     37  O   UNL d   1      28.525 -12.772  -8.794  0.00  0.00    -0.398 OA
ATOM     38  H   UNL d   1      28.549 -13.740  -8.868  0.00  0.00     0.209 HD
ENDBRANCH  36  37
ENDBRANCH  25  36
ENDBRANCH  20  21
ENDBRANCH   1  20
TORSDOF 7
ENDMDL
MODEL 7
REMARK VINA RESULT:    -6.299      4.851      9.772
REMARK INTER + INTRA:         -10.568
REMARK INTER:                  -8.387
REMARK INTRA:                  -2.181
REMARK CONF_INDEPENDENT:        2.088
REMARK UNBOUND:                -2.181
REMARK  7 active torsions:
REMARK  status: ('A' for Active; 'I' for Inactive)
REMARK       I    between atoms: C_2  and  N_4 
REMARK    1  A    between atoms: C_5  and  N_4 
REMARK    2  A    between atoms: C_6  and  O_7 
REMARK    3  A    between atoms: O_7  and  C_8 
REMARK    4  A    between atoms: C_28  and  C_29 
REMARK    5  A    between atoms: C_29  and  O_30 
REMARK    6  A    between atoms: C_31  and  O_32 
REMARK    7  A    between atoms: C_33  and  O_34 
ROOT
ATOM      1  C   UNL d   1      25.709 -15.114  -4.059  0.00  0.00     0.072 A 
ATOM      2  C   UNL d   1      25.058 -13.502  -3.320  0.00  0.00     0.037 A 
ATOM      3  C   UNL d   1      25.886 -12.010  -3.806  0.00  0.00     0.011 A 
ATOM      4  C   UNL d   1      27.136 -12.054  -4.977  0.00  0.00    -0.047 A 
ATOM      5  C   UNL d   1      27.648 -13.539  -5.699  0.00  0.00    -0.049 A 
ATOM      6  C   UNL d   1      26.972 -15.069  -5.327  0.00  0.00     0.044 A 
ATOM      7  C   UNL d   1      28.393 -13.533  -6.974  0.00  0.00     0.039 C 
ATOM      8  C   UNL d   1      28.253 -12.223  -7.640  0.00  0.00     0.010 C 
ATOM      9  C   UNL d   1      28.450 -10.966  -6.787  0.00  0.00    -0.000 C 
ATOM     10  C   UNL d   1      27.317 -10.763  -5.752  0.00  0.00     0.024 C 
ATOM     11  C   UNL d   1      25.985 -10.242  -6.395  0.00  0.00     0.011 C 
ATOM     12  C   UNL d   1      26.190  -8.917  -7.090  0.00  0.00     0.018 C 
ATOM     13  C   UNL d   1      27.265  -9.091  -8.063  0.00  0.00     0.021 C 
ATOM     14  C   UNL d   1      27.631  -7.720  -8.842  0.00  0.00     0.024 C 
ATOM     15  C   UNL d   1      26.799 -10.188  -9.020  0.00  0.00     0.135 C 
ATOM     16  O   UNL d   1      26.164 -11.223  -8.979  0.00  0.00    -0.297 OA
ATOM     17  C   UNL d   1      27.322  -9.804 -10.259  0.00  0.00     0.079 C 
ATOM     18  C   UNL d   1      28.900  -9.896  -9.204  0.00  0.00     0.013 C 
ATOM     19  C   UNL d   1      28.550  -9.699  -7.659  0.00  0.00     0.006 C 
ENDROOT
BRANCH   1  20
ATOM     20  O   UNL d   1      25.576 -16.300  -3.493  0.00  0.00    -0.318 OA
BRANCH  20  21
ATOM     21  C   UNL d   1      26.351 -15.888  -2.449  0.00  0.00     0.292 C 
ATOM     22  C   UNL d   1      25.904 -16.701  -1.169  0.00  0.00     0.171 C 
ATOM     23  C   UNL d   1      26.934 -16.370  -0.145  0.00  0.00     0.177 C 
ATOM     24  C   UNL d   1      28.348 -16.512  -0.725  0.00  0.00     0.180 C 
ATOM     25  C   UNL d   1      28.548 -15.780  -2.058  0.00  0.00     0.179 C 
ATOM     26  O   UNL d   1      27.592 -16.189  -2.970  0.00  0.00    -0.349 OA
BRANCH  22  27
ATOM     27  N   UNL d   1      24.478 -16.347  -0.637  0.00  0.00    -0.349 N 
ATOM     28  C   UNL d   1      23.227 -17.270  -0.318  0.00  0.00     0.214 C 
ATOM     29  C   UNL d   1      22.896 -19.325  -0.897  0.00  0.00     0.117 C 
ATOM     30  O   UNL d   1      22.534 -16.341   0.220  0.00  0.00    -0.274 OA
ATOM     31  H   UNL d   1      24.371 -15.416  -0.225  0.00  0.00     0.163 HD
ENDBRANCH  22  27
BRANCH  23  32
ATOM     32  O   UNL d   1      26.734 -17.222   0.980  0.00  0.00    -0.391 OA
ATOM     33  H   UNL d   1      27.589 -17.300   1.441  0.00  0.00     0.210 HD
ENDBRANCH  23  32
BRANCH  24  34
ATOM     34  O   UNL d   1      29.239 -15.956   0.229  0.00  0.00    -0.390 OA
ATOM     35  H   UNL d   1      28.970 -16.294   1.101  0.00  0.00     0.210 HD
ENDBRANCH  24  34
BRANCH  25  36
ATOM     36  C   UNL d   1      29.842 -16.153  -2.739  0.00  0.00     0.198 C 
BRANCH  36  37
ATOM     37  O   UNL d   1      29.611 -16.608  -4.050  0.00  0.00    -0.398 OA
ATOM     38  H   UNL d   1      28.889 -17.256  -4.004  0.00  0.00     0.209 HD
ENDBRANCH  36  37
ENDBRANCH  25  36
ENDBRANCH  20  21
ENDBRANCH   1  20
TORSDOF 7
ENDMDL
MODEL 8
REMARK VINA RESULT:    -5.989      1.910      2.811
REMARK INTER + INTRA:         -10.515
REMARK INTER:                  -8.077
REMARK INTRA:                  -2.438
REMARK CONF_INDEPENDENT:        2.088
REMARK UNBOUND:                -2.438
REMARK  7 active torsions:
REMARK  status: ('A' for Active; 'I' for Inactive)
REMARK       I    between atoms: C_2  and  N_4 
REMARK    1  A    between atoms: C_5  and  N_4 
REMARK    2  A    between atoms: C_6  and  O_7 
REMARK    3  A    between atoms: O_7  and  C_8 
REMARK    4  A    between atoms: C_28  and  C_29 
REMARK    5  A    between atoms: C_29  and  O_30 
REMARK    6  A    between atoms: C_31  and  O_32 
REMARK    7  A    between atoms: C_33  and  O_34 
ROOT
ATOM      1  C   UNL d   1      28.227 -12.739  -0.138  0.00  0.00     0.072 A 
ATOM      2  C   UNL d   1      26.662 -12.237   0.795  0.00  0.00     0.037 A 
ATOM      3  C   UNL d   1      26.502 -12.830   2.459  0.00  0.00     0.011 A 
ATOM      4  C   UNL d   1      27.774 -13.714   3.191  0.00  0.00    -0.047 A 
ATOM      5  C   UNL d   1      29.231 -14.082   2.336  0.00  0.00    -0.049 A 
ATOM      6  C   UNL d   1      29.538 -13.605   0.719  0.00  0.00     0.044 A 
ATOM      7  C   UNL d   1      30.457 -14.450   3.071  0.00  0.00     0.039 C 
ATOM      8  C   UNL d   1      30.332 -14.071   4.492  0.00  0.00     0.010 C 
ATOM      9  C   UNL d   1      29.030 -14.433   5.214  0.00  0.00    -0.000 C 
ATOM     10  C   UNL d   1      27.818 -13.616   4.705  0.00  0.00     0.024 C 
ATOM     11  C   UNL d   1      27.815 -12.136   5.222  0.00  0.00     0.011 C 
ATOM     12  C   UNL d   1      27.780 -12.081   6.731  0.00  0.00     0.018 C 
ATOM     13  C   UNL d   1      28.913 -12.858   7.227  0.00  0.00     0.021 C 
ATOM     14  C   UNL d   1      28.961 -12.931   8.843  0.00  0.00     0.024 C 
ATOM     15  C   UNL d   1      30.165 -12.202   6.646  0.00  0.00     0.135 C 
ATOM     16  O   UNL d   1      30.512 -11.651   5.619  0.00  0.00    -0.297 OA
ATOM     17  C   UNL d   1      31.125 -12.348   7.651  0.00  0.00     0.079 C 
ATOM     18  C   UNL d   1      30.621 -14.156   7.354  0.00  0.00     0.013 C 
ATOM     19  C   UNL d   1      29.151 -14.231   6.738  0.00  0.00     0.006 C 
ENDROOT
BRANCH   1  20
ATOM     20  O   UNL d   1      28.316 -12.822  -1.453  0.00  0.00    -0.318 OA
BRANCH  20  21
ATOM     21  C   UNL d   1      27.243 -13.665  -1.472  0.00  0.00     0.292 C 
ATOM     22  C   UNL d   1      26.593 -13.583  -2.911  0.00  0.00     0.171 C 
ATOM     23  C   UNL d   1      25.590 -14.684  -2.925  0.00  0.00     0.177 C 
ATOM     24  C   UNL d   1      26.204 -15.990  -2.401  0.00  0.00     0.180 C 
ATOM     25  C   UNL d   1      26.934 -15.838  -1.060  0.00  0.00     0.179 C 
ATOM     26  O   UNL d   1      27.887 -14.841  -1.151  0.00  0.00    -0.349 OA
BRANCH  22  27
ATOM     27  N   UNL d   1      25.905 -12.219  -3.239  0.00  0.00    -0.349 N 
ATOM     28  C   UNL d   1      26.446 -10.731  -3.146  0.00  0.00     0.214 C 
ATOM     29  C   UNL d   1      28.211 -10.008  -2.129  0.00  0.00     0.117 C 
ATOM     30  O   UNL d   1      25.435 -10.204  -3.722  0.00  0.00    -0.274 OA
ATOM     31  H   UNL d   1      25.049 -12.271  -3.798  0.00  0.00     0.163 HD
ENDBRANCH  22  27
BRANCH  23  32
ATOM     32  O   UNL d   1      25.101 -14.825  -4.256  0.00  0.00    -0.391 OA
ATOM     33  H   UNL d   1      25.157 -15.770  -4.487  0.00  0.00     0.210 HD
ENDBRANCH  23  32
BRANCH  24  34
ATOM     34  O   UNL d   1      25.133 -16.904  -2.226  0.00  0.00    -0.390 OA
ATOM     35  H   UNL d   1      24.435 -16.647  -2.855  0.00  0.00     0.210 HD
ENDBRANCH  24  34
BRANCH  25  36
ATOM     36  C   UNL d   1      27.753 -17.053  -0.701  0.00  0.00     0.198 C 
BRANCH  36  37
ATOM     37  O   UNL d   1      29.123 -16.821  -0.917  0.00  0.00    -0.398 OA
ATOM     38  H   UNL d   1      29.218 -15.888  -1.170  0.00  0.00     0.209 HD
ENDBRANCH  36  37
ENDBRANCH  25  36
ENDBRANCH  20  21
ENDBRANCH   1  20
TORSDOF 7
ENDMDL
MODEL 9
REMARK VINA RESULT:    -5.862      5.493     10.369
REMARK INTER + INTRA:         -10.649
REMARK INTER:                  -7.950
REMARK INTRA:                  -2.699
REMARK CONF_INDEPENDENT:        2.088
REMARK UNBOUND:                -2.699
REMARK  7 active torsions:
REMARK  status: ('A' for Active; 'I' for Inactive)
REMARK       I    between atoms: C_2  and  N_4 
REMARK    1  A    between atoms: C_5  and  N_4 
REMARK    2  A    between atoms: C_6  and  O_7 
REMARK    3  A    between atoms: O_7  and  C_8 
REMARK    4  A    between atoms: C_28  and  C_29 
REMARK    5  A    between atoms: C_29  and  O_30 
REMARK    6  A    between atoms: C_31  and  O_32 
REMARK    7  A    between atoms: C_33  and  O_34 
ROOT
ATOM      1  C   UNL d   1      29.437 -15.443  -3.413  0.00  0.00     0.072 A 
ATOM      2  C   UNL d   1      30.523 -14.314  -4.469  0.00  0.00     0.037 A 
ATOM      3  C   UNL d   1      31.849 -15.087  -5.359  0.00  0.00     0.011 A 
ATOM      4  C   UNL d   1      32.036 -16.790  -5.330  0.00  0.00    -0.047 A 
ATOM      5  C   UNL d   1      30.970 -17.803  -4.421  0.00  0.00    -0.049 A 
ATOM      6  C   UNL d   1      29.655 -17.218  -3.491  0.00  0.00     0.044 A 
ATOM      7  C   UNL d   1      30.862 -19.243  -4.728  0.00  0.00     0.039 C 
ATOM      8  C   UNL d   1      31.436 -19.524  -6.059  0.00  0.00     0.010 C 
ATOM      9  C   UNL d   1      32.797 -18.906  -6.393  0.00  0.00    -0.000 C 
ATOM     10  C   UNL d   1      32.733 -17.367  -6.547  0.00  0.00     0.024 C 
ATOM     11  C   UNL d   1      32.080 -16.913  -7.899  0.00  0.00     0.011 C 
ATOM     12  C   UNL d   1      32.848 -17.443  -9.086  0.00  0.00     0.018 C 
ATOM     13  C   UNL d   1      32.927 -18.895  -8.948  0.00  0.00     0.021 C 
ATOM     14  C   UNL d   1      33.782 -19.590 -10.134  0.00  0.00     0.024 C 
ATOM     15  C   UNL d   1      31.483 -19.397  -8.912  0.00  0.00     0.135 C 
ATOM     16  O   UNL d   1      30.405 -19.041  -8.480  0.00  0.00    -0.297 OA
ATOM     17  C   UNL d   1      31.534 -20.629  -9.573  0.00  0.00     0.079 C 
ATOM     18  C   UNL d   1      32.803 -20.900  -8.184  0.00  0.00     0.013 C 
ATOM     19  C   UNL d   1      33.390 -19.503  -7.685  0.00  0.00     0.006 C 
ENDROOT
BRANCH   1  20
ATOM     20  O   UNL d   1      28.756 -15.044  -2.355  0.00  0.00    -0.318 OA
BRANCH  20  21
ATOM     21  C   UNL d   1      27.597 -15.126  -3.070  0.00  0.00     0.292 C 
ATOM     22  C   UNL d   1      26.420 -15.399  -2.050  0.00  0.00     0.171 C 
ATOM     23  C   UNL d   1      25.183 -15.245  -2.865  0.00  0.00     0.177 C 
ATOM     24  C   UNL d   1      25.234 -13.956  -3.698  0.00  0.00     0.180 C 
ATOM     25  C   UNL d   1      26.528 -13.789  -4.504  0.00  0.00     0.179 C 
ATOM     26  O   UNL d   1      27.623 -13.883  -3.666  0.00  0.00    -0.349 OA
BRANCH  22  27
ATOM     27  N   UNL d   1      26.454 -16.808  -1.377  0.00  0.00    -0.349 N 
ATOM     28  C   UNL d   1      27.551 -17.500  -0.462  0.00  0.00     0.214 C 
ATOM     29  C   UNL d   1      29.603 -16.900  -0.145  0.00  0.00     0.117 C 
ATOM     30  O   UNL d   1      26.831 -18.512  -0.164  0.00  0.00    -0.274 OA
ATOM     31  H   UNL d   1      25.559 -17.304  -1.327  0.00  0.00     0.163 HD
ENDBRANCH  22  27
BRANCH  23  32
ATOM     32  O   UNL d   1      24.064 -15.264  -1.984  0.00  0.00    -0.391 OA
ATOM     33  H   UNL d   1      23.308 -14.882  -2.467  0.00  0.00     0.210 HD
ENDBRANCH  23  32
BRANCH  24  34
ATOM     34  O   UNL d   1      24.145 -14.014  -4.606  0.00  0.00    -0.390 OA
ATOM     35  H   UNL d   1      24.405 -13.506  -5.395  0.00  0.00     0.210 HD
ENDBRANCH  24  34
BRANCH  25  36
ATOM     36  C   UNL d   1      26.673 -12.407  -5.092  0.00  0.00     0.198 C 
BRANCH  36  37
ATOM     37  O   UNL d   1      25.492 -12.007  -5.743  0.00  0.00    -0.398 OA
ATOM     38  H   UNL d   1      24.785 -12.010  -5.077  0.00  0.00     0.209 HD
ENDBRANCH  36  37
ENDBRANCH  25  36
ENDBRANCH  20  21
ENDBRANCH   1  20
TORSDOF 7
ENDMDL
