MODEL 1
REMARK VINA RESULT:   -10.254      0.000      0.000
REMARK INTER + INTRA:         -14.016
REMARK INTER:                 -13.237
REMARK INTRA:                  -0.779
REMARK CONF_INDEPENDENT:        2.983
REMARK UNBOUND:                -0.779
REMARK  10 active torsions:
REMARK  status: ('A' for Active; 'I' for Inactive)
REMARK    1  A    between atoms: C_2  and  C_3 
REMARK    2  A    between atoms: C_3  and  C_4 
REMARK    3  A    between atoms: C_4  and  O_5 
REMARK    4  A    between atoms: O_5  and  C_6 
REMARK    5  A    between atoms: C_6  and  C_8 
REMARK    6  A    between atoms: C_11  and  N_12 
REMARK       I    between atoms: N_12  and  C_13 
REMARK    7  A    between atoms: C_13  and  C_15 
REMARK    8  A    between atoms: C_15  and  C_16 
REMARK    9  A    between atoms: C_19  and  N_20 
REMARK       I    between atoms: N_20  and  C_21 
REMARK       I    between atoms: C_21  and  N_23 
REMARK   10  A    between atoms: N_23  and  C_24 
ROOT
ATOM      1  C   UNL d   1      27.620 -14.346   0.124  0.00  0.00     0.163 C 
ENDROOT
BRANCH   1   2
ATOM      2  C   UNL d   1      27.601 -13.855   1.575  0.00  0.00     0.227 C 
ATOM      3  N   UNL d   1      28.364 -14.562   2.521  0.00  0.00    -0.327 N 
ATOM      4  H   UNL d   1      28.896 -15.372   2.225  0.00  0.00     0.169 HD
ATOM      5  O   UNL d   1      26.967 -12.837   1.849  0.00  0.00    -0.273 OA
BRANCH   3   6
ATOM      6  C   UNL d   1      28.351 -14.262   3.928  0.00  0.00     0.034 A 
ATOM      7  C   UNL d   1      27.426 -13.363   4.483  0.00  0.00     0.030 A 
ATOM      8  C   UNL d   1      27.531 -12.970   5.846  0.00  0.00     0.020 A 
ATOM      9  C   UNL d   1      28.529 -13.508   6.677  0.00  0.00     0.039 A 
ATOM     10  C   UNL d   1      29.392 -14.452   6.147  0.00  0.00     0.020 A 
ATOM     11  C   UNL d   1      29.291 -14.815   4.806  0.00  0.00     0.030 A 
BRANCH   9  12
ATOM     12  C   UNL d   1      28.630 -13.205   8.126  0.00  0.00     0.293 C 
ATOM     13  O   UNL d   1      28.565 -12.063   8.574  0.00  0.00    -0.259 OA
BRANCH  12  14
ATOM     14  O   UNL d   1      28.777 -14.346   8.854  0.00  0.00    -0.318 OA
BRANCH  14  15
ATOM     15  C   UNL d   1      29.986 -14.418   9.635  0.00  0.00     0.179 C 
BRANCH  15  16
ATOM     16  C   UNL d   1      29.673 -14.938  11.042  0.00  0.00     0.026 C 
BRANCH  16  17
ATOM     17  C   UNL d   1      29.123 -13.831  11.948  0.00  0.00    -0.002 C 
ATOM     18  C   UNL d   1      27.795 -13.296  11.435  0.00  0.00     0.005 C 
ENDBRANCH  16  17
ENDBRANCH  15  16
ENDBRANCH  14  15
ENDBRANCH  12  14
ENDBRANCH   9  12
ENDBRANCH   3   6
ENDBRANCH   1   2
BRANCH   1  19
ATOM     19  C   UNL d   1      26.845 -15.652  -0.003  0.00  0.00     0.052 A 
ATOM     20  C   UNL d   1      27.309 -16.946   0.139  0.00  0.00     0.081 A 
ATOM     21  S   UNL d   1      26.049 -18.079  -0.245  0.00  0.00    -0.062 SA
ATOM     22  C   UNL d   1      24.983 -16.780  -0.555  0.00  0.00     0.174 A 
ATOM     23  N   UNL d   1      25.500 -15.597  -0.327  0.00  0.00    -0.228 NA
BRANCH  22  24
ATOM     24  N   UNL d   1      23.688 -17.072  -0.980  0.00  0.00    -0.287 N 
ATOM     25  C   UNL d   1      23.017 -18.075  -0.317  0.00  0.00     0.322 C 
ATOM     26  O   UNL d   1      23.524 -18.703   0.604  0.00  0.00    -0.247 OA
ATOM     27  N   UNL d   1      21.722 -18.345  -0.735  0.00  0.00    -0.338 N 
ATOM     28  H   UNL d   1      21.354 -17.888  -1.556  0.00  0.00     0.164 HD
ATOM     29  H   UNL d   1      23.284 -16.533  -1.727  0.00  0.00     0.172 HD
BRANCH  27  30
ATOM     30  C   UNL d   1      20.869 -19.418  -0.123  0.00  0.00     0.086 C 
ATOM     31  C   UNL d   1      20.702 -19.322   1.408  0.00  0.00     0.025 C 
ATOM     32  C   UNL d   1      19.753 -20.334   2.024  0.00  0.00     0.002 C 
ATOM     33  C   UNL d   1      18.391 -20.263   1.359  0.00  0.00     0.000 C 
ATOM     34  C   UNL d   1      18.528 -20.471  -0.144  0.00  0.00     0.002 C 
ATOM     35  C   UNL d   1      19.478 -19.448  -0.785  0.00  0.00     0.025 C 
ENDBRANCH  27  30
ENDBRANCH  22  24
ENDBRANCH   1  19
TORSDOF 10
ENDMDL
MODEL 2
REMARK VINA RESULT:   -10.125      2.227     11.008
REMARK INTER + INTRA:         -13.939
REMARK INTER:                 -13.108
REMARK INTRA:                  -0.831
REMARK CONF_INDEPENDENT:        2.983
REMARK UNBOUND:                -0.831
REMARK  10 active torsions:
REMARK  status: ('A' for Active; 'I' for Inactive)
REMARK    1  A    between atoms: C_2  and  C_3 
REMARK    2  A    between atoms: C_3  and  C_4 
REMARK    3  A    between atoms: C_4  and  O_5 
REMARK    4  A    between atoms: O_5  and  C_6 
REMARK    5  A    between atoms: C_6  and  C_8 
REMARK    6  A    between atoms: C_11  and  N_12 
REMARK       I    between atoms: N_12  and  C_13 
REMARK    7  A    between atoms: C_13  and  C_15 
REMARK    8  A    between atoms: C_15  and  C_16 
REMARK    9  A    between atoms: C_19  and  N_20 
REMARK       I    between atoms: N_20  and  C_21 
REMARK       I    between atoms: C_21  and  N_23 
REMARK   10  A    between atoms: N_23  and  C_24 
ROOT
ATOM      1  C   UNL d   1      28.370 -14.733   0.692  0.00  0.00     0.163 C 
ENDROOT
BRANCH   1   2
ATOM      2  C   UNL d   1      26.909 -15.093   0.405  0.00  0.00     0.227 C 
ATOM      3  N   UNL d   1      26.583 -16.450   0.244  0.00  0.00    -0.327 N 
ATOM      4  H   UNL d   1      27.314 -17.148   0.314  0.00  0.00     0.169 HD
ATOM      5  O   UNL d   1      26.071 -14.192   0.380  0.00  0.00    -0.273 OA
BRANCH   3   6
ATOM      6  C   UNL d   1      25.270 -16.907  -0.126  0.00  0.00     0.034 A 
ATOM      7  C   UNL d   1      24.319 -16.043  -0.694  0.00  0.00     0.030 A 
ATOM      8  C   UNL d   1      22.984 -16.482  -0.909  0.00  0.00     0.020 A 
ATOM      9  C   UNL d   1      22.600 -17.800  -0.607  0.00  0.00     0.039 A 
ATOM     10  C   UNL d   1      23.557 -18.671  -0.119  0.00  0.00     0.020 A 
ATOM     11  C   UNL d   1      24.858 -18.225   0.106  0.00  0.00     0.030 A 
BRANCH   9  12
ATOM     12  C   UNL d   1      21.247 -18.338  -0.895  0.00  0.00     0.293 C 
ATOM     13  O   UNL d   1      20.314 -17.632  -1.270  0.00  0.00    -0.259 OA
BRANCH  12  14
ATOM     14  O   UNL d   1      21.209 -19.686  -0.708  0.00  0.00    -0.318 OA
BRANCH  14  15
ATOM     15  C   UNL d   1      20.788 -20.107   0.605  0.00  0.00     0.179 C 
BRANCH  15  16
ATOM     16  C   UNL d   1      19.379 -19.582   0.898  0.00  0.00     0.026 C 
BRANCH  16  17
ATOM     17  C   UNL d   1      18.411 -20.718   1.249  0.00  0.00    -0.002 C 
ATOM     18  C   UNL d   1      17.650 -21.203   0.024  0.00  0.00     0.005 C 
ENDBRANCH  16  17
ENDBRANCH  15  16
ENDBRANCH  14  15
ENDBRANCH  12  14
ENDBRANCH   9  12
ENDBRANCH   3   6
ENDBRANCH   1   2
BRANCH   1  19
ATOM     19  C   UNL d   1      28.485 -14.011   2.028  0.00  0.00     0.052 A 
ATOM     20  C   UNL d   1      28.111 -12.718   2.344  0.00  0.00     0.081 A 
ATOM     21  S   UNL d   1      28.586 -12.337   3.971  0.00  0.00    -0.062 SA
ATOM     22  C   UNL d   1      29.236 -13.908   4.143  0.00  0.00     0.174 A 
ATOM     23  N   UNL d   1      29.056 -14.680   3.098  0.00  0.00    -0.228 NA
BRANCH  22  24
ATOM     24  N   UNL d   1      29.856 -14.242   5.346  0.00  0.00    -0.287 N 
ATOM     25  C   UNL d   1      29.116 -14.096   6.498  0.00  0.00     0.322 C 
ATOM     26  O   UNL d   1      27.963 -13.683   6.488  0.00  0.00    -0.247 OA
ATOM     27  N   UNL d   1      29.735 -14.448   7.689  0.00  0.00    -0.338 N 
ATOM     28  H   UNL d   1      30.713 -14.694   7.692  0.00  0.00     0.164 HD
ATOM     29  H   UNL d   1      30.797 -14.596   5.332  0.00  0.00     0.172 HD
BRANCH  27  30
ATOM     30  C   UNL d   1      29.066 -14.332   9.027  0.00  0.00     0.086 C 
ATOM     31  C   UNL d   1      29.965 -14.667  10.235  0.00  0.00     0.025 C 
ATOM     32  C   UNL d   1      29.334 -14.445  11.598  0.00  0.00     0.002 C 
ATOM     33  C   UNL d   1      28.822 -13.022  11.725  0.00  0.00     0.000 C 
ATOM     34  C   UNL d   1      27.841 -12.714  10.600  0.00  0.00     0.002 C 
ATOM     35  C   UNL d   1      28.468 -12.924   9.214  0.00  0.00     0.025 C 
ENDBRANCH  27  30
ENDBRANCH  22  24
ENDBRANCH   1  19
TORSDOF 10
ENDMDL
MODEL 3
REMARK VINA RESULT:    -9.895      1.278      1.759
REMARK INTER + INTRA:         -13.570
REMARK INTER:                 -12.878
REMARK INTRA:                  -0.692
REMARK CONF_INDEPENDENT:        2.983
REMARK UNBOUND:                -0.692
REMARK  10 active torsions:
REMARK  status: ('A' for Active; 'I' for Inactive)
REMARK    1  A    between atoms: C_2  and  C_3 
REMARK    2  A    between atoms: C_3  and  C_4 
REMARK    3  A    between atoms: C_4  and  O_5 
REMARK    4  A    between atoms: O_5  and  C_6 
REMARK    5  A    between atoms: C_6  and  C_8 
REMARK    6  A    between atoms: C_11  and  N_12 
REMARK       I    between atoms: N_12  and  C_13 
REMARK    7  A    between atoms: C_13  and  C_15 
REMARK    8  A    between atoms: C_15  and  C_16 
REMARK    9  A    between atoms: C_19  and  N_20 
REMARK       I    between atoms: N_20  and  C_21 
REMARK       I    between atoms: C_21  and  N_23 
REMARK   10  A    between atoms: N_23  and  C_24 
ROOT
ATOM      1  C   UNL d   1      28.469 -15.028  -0.688  0.00  0.00     0.163 C 
ENDROOT
BRANCH   1   2
ATOM      2  C   UNL d   1      28.316 -14.314   0.659  0.00  0.00     0.227 C 
ATOM      3  N   UNL d   1      29.052 -14.801   1.752  0.00  0.00    -0.327 N 
ATOM      4  H   UNL d   1      29.653 -15.608   1.626  0.00  0.00     0.169 HD
ATOM      5  O   UNL d   1      27.601 -13.313   0.722  0.00  0.00    -0.273 OA
BRANCH   3   6
ATOM      6  C   UNL d   1      28.919 -14.282   3.087  0.00  0.00     0.034 A 
ATOM      7  C   UNL d   1      29.981 -13.626   3.734  0.00  0.00     0.030 A 
ATOM      8  C   UNL d   1      29.873 -13.258   5.103  0.00  0.00     0.020 A 
ATOM      9  C   UNL d   1      28.689 -13.495   5.823  0.00  0.00     0.039 A 
ATOM     10  C   UNL d   1      27.618 -14.071   5.162  0.00  0.00     0.020 A 
ATOM     11  C   UNL d   1      27.742 -14.445   3.826  0.00  0.00     0.030 A 
BRANCH   9  12
ATOM     12  C   UNL d   1      28.488 -13.051   7.225  0.00  0.00     0.293 C 
ATOM     13  O   UNL d   1      28.024 -11.952   7.516  0.00  0.00    -0.259 OA
BRANCH  12  14
ATOM     14  O   UNL d   1      28.862 -14.023   8.102  0.00  0.00    -0.318 OA
BRANCH  14  15
ATOM     15  C   UNL d   1      30.179 -13.861   8.664  0.00  0.00     0.179 C 
BRANCH  15  16
ATOM     16  C   UNL d   1      30.138 -14.099  10.177  0.00  0.00     0.026 C 
BRANCH  16  17
ATOM     17  C   UNL d   1      28.770 -14.621  10.633  0.00  0.00    -0.002 C 
ATOM     18  C   UNL d   1      27.751 -13.497  10.745  0.00  0.00     0.005 C 
ENDBRANCH  16  17
ENDBRANCH  15  16
ENDBRANCH  14  15
ENDBRANCH  12  14
ENDBRANCH   9  12
ENDBRANCH   3   6
ENDBRANCH   1   2
BRANCH   1  19
ATOM     19  C   UNL d   1      27.128 -15.590  -1.144  0.00  0.00     0.052 A 
ATOM     20  C   UNL d   1      26.231 -15.052  -2.047  0.00  0.00     0.081 A 
ATOM     21  S   UNL d   1      24.789 -16.019  -2.108  0.00  0.00    -0.062 SA
ATOM     22  C   UNL d   1      25.460 -17.082  -0.950  0.00  0.00     0.174 A 
ATOM     23  N   UNL d   1      26.686 -16.782  -0.595  0.00  0.00    -0.228 NA
BRANCH  22  24
ATOM     24  N   UNL d   1      24.692 -18.161  -0.516  0.00  0.00    -0.287 N 
ATOM     25  C   UNL d   1      23.329 -17.976  -0.445  0.00  0.00     0.322 C 
ATOM     26  O   UNL d   1      22.796 -16.913  -0.737  0.00  0.00    -0.247 OA
ATOM     27  N   UNL d   1      22.571 -19.062  -0.030  0.00  0.00    -0.338 N 
ATOM     28  H   UNL d   1      23.029 -19.898   0.300  0.00  0.00     0.164 HD
ATOM     29  H   UNL d   1      25.146 -19.031  -0.298  0.00  0.00     0.172 HD
BRANCH  27  30
ATOM     30  C   UNL d   1      21.078 -19.013   0.113  0.00  0.00     0.086 C 
ATOM     31  C   UNL d   1      20.291 -19.649  -1.051  0.00  0.00     0.025 C 
ATOM     32  C   UNL d   1      18.785 -19.706  -0.866  0.00  0.00     0.002 C 
ATOM     33  C   UNL d   1      18.432 -20.411   0.430  0.00  0.00     0.000 C 
ATOM     34  C   UNL d   1      19.112 -19.721   1.606  0.00  0.00     0.002 C 
ATOM     35  C   UNL d   1      20.639 -19.664   1.439  0.00  0.00     0.025 C 
ENDBRANCH  27  30
ENDBRANCH  22  24
ENDBRANCH   1  19
TORSDOF 10
ENDMDL
MODEL 4
REMARK VINA RESULT:    -9.633      6.704     10.377
REMARK INTER + INTRA:         -13.814
REMARK INTER:                 -12.616
REMARK INTRA:                  -1.198
REMARK CONF_INDEPENDENT:        2.983
REMARK UNBOUND:                -1.198
REMARK  10 active torsions:
REMARK  status: ('A' for Active; 'I' for Inactive)
REMARK    1  A    between atoms: C_2  and  C_3 
REMARK    2  A    between atoms: C_3  and  C_4 
REMARK    3  A    between atoms: C_4  and  O_5 
REMARK    4  A    between atoms: O_5  and  C_6 
REMARK    5  A    between atoms: C_6  and  C_8 
REMARK    6  A    between atoms: C_11  and  N_12 
REMARK       I    between atoms: N_12  and  C_13 
REMARK    7  A    between atoms: C_13  and  C_15 
REMARK    8  A    between atoms: C_15  and  C_16 
REMARK    9  A    between atoms: C_19  and  N_20 
REMARK       I    between atoms: N_20  and  C_21 
REMARK       I    between atoms: C_21  and  N_23 
REMARK   10  A    between atoms: N_23  and  C_24 
ROOT
ATOM      1  C   UNL d   1      25.462 -14.688  -3.475  0.00  0.00     0.163 C 
ENDROOT
BRANCH   1   2
ATOM      2  C   UNL d   1      26.498 -15.226  -4.466  0.00  0.00     0.227 C 
ATOM      3  N   UNL d   1      27.831 -15.337  -4.033  0.00  0.00    -0.327 N 
ATOM      4  H   UNL d   1      28.071 -15.056  -3.090  0.00  0.00     0.169 HD
ATOM      5  O   UNL d   1      26.121 -15.590  -5.580  0.00  0.00    -0.273 OA
BRANCH   3   6
ATOM      6  C   UNL d   1      28.911 -15.733  -4.897  0.00  0.00     0.034 A 
ATOM      7  C   UNL d   1      29.073 -15.179  -6.178  0.00  0.00     0.030 A 
ATOM      8  C   UNL d   1      30.056 -15.695  -7.067  0.00  0.00     0.020 A 
ATOM      9  C   UNL d   1      30.916 -16.733  -6.668  0.00  0.00     0.039 A 
ATOM     10  C   UNL d   1      30.805 -17.225  -5.380  0.00  0.00     0.020 A 
ATOM     11  C   UNL d   1      29.826 -16.724  -4.524  0.00  0.00     0.030 A 
BRANCH   9  12
ATOM     12  C   UNL d   1      32.017 -17.248  -7.520  0.00  0.00     0.293 C 
ATOM     13  O   UNL d   1      33.194 -17.231  -7.170  0.00  0.00    -0.259 OA
BRANCH  12  14
ATOM     14  O   UNL d   1      31.535 -17.744  -8.693  0.00  0.00    -0.318 OA
BRANCH  14  15
ATOM     15  C   UNL d   1      31.567 -19.181  -8.805  0.00  0.00     0.179 C 
BRANCH  15  16
ATOM     16  C   UNL d   1      30.722 -19.814  -7.695  0.00  0.00     0.026 C 
BRANCH  16  17
ATOM     17  C   UNL d   1      31.419 -21.029  -7.074  0.00  0.00    -0.002 C 
ATOM     18  C   UNL d   1      31.147 -21.128  -5.580  0.00  0.00     0.005 C 
ENDBRANCH  16  17
ENDBRANCH  15  16
ENDBRANCH  14  15
ENDBRANCH  12  14
ENDBRANCH   9  12
ENDBRANCH   3   6
ENDBRANCH   1   2
BRANCH   1  19
ATOM     19  C   UNL d   1      25.544 -15.450  -2.158  0.00  0.00     0.052 A 
ATOM     20  C   UNL d   1      26.465 -15.310  -1.137  0.00  0.00     0.081 A 
ATOM     21  S   UNL d   1      26.197 -16.518   0.082  0.00  0.00    -0.062 SA
ATOM     22  C   UNL d   1      24.878 -17.126  -0.819  0.00  0.00     0.174 A 
ATOM     23  N   UNL d   1      24.614 -16.445  -1.908  0.00  0.00    -0.228 NA
BRANCH  22  24
ATOM     24  N   UNL d   1      24.195 -18.237  -0.327  0.00  0.00    -0.287 N 
ATOM     25  C   UNL d   1      22.823 -18.150  -0.247  0.00  0.00     0.322 C 
ATOM     26  O   UNL d   1      22.211 -17.143  -0.581  0.00  0.00    -0.247 OA
ATOM     27  N   UNL d   1      22.151 -19.268   0.226  0.00  0.00    -0.338 N 
ATOM     28  H   UNL d   1      22.673 -20.052   0.587  0.00  0.00     0.164 HD
ATOM     29  H   UNL d   1      24.715 -19.060  -0.075  0.00  0.00     0.172 HD
BRANCH  27  30
ATOM     30  C   UNL d   1      20.660 -19.322   0.385  0.00  0.00     0.086 C 
ATOM     31  C   UNL d   1      19.912 -20.074  -0.737  0.00  0.00     0.025 C 
ATOM     32  C   UNL d   1      18.417 -20.232  -0.530  0.00  0.00     0.002 C 
ATOM     33  C   UNL d   1      18.129 -20.894   0.805  0.00  0.00     0.000 C 
ATOM     34  C   UNL d   1      18.766 -20.096   1.936  0.00  0.00     0.002 C 
ATOM     35  C   UNL d   1      20.282 -19.936   1.747  0.00  0.00     0.025 C 
ENDBRANCH  27  30
ENDBRANCH  22  24
ENDBRANCH   1  19
TORSDOF 10
ENDMDL
MODEL 5
REMARK VINA RESULT:    -9.372      1.254      2.203
REMARK INTER + INTRA:         -13.428
REMARK INTER:                 -12.355
REMARK INTRA:                  -1.073
REMARK CONF_INDEPENDENT:        2.983
REMARK UNBOUND:                -1.073
REMARK  10 active torsions:
REMARK  status: ('A' for Active; 'I' for Inactive)
REMARK    1  A    between atoms: C_2  and  C_3 
REMARK    2  A    between atoms: C_3  and  C_4 
REMARK    3  A    between atoms: C_4  and  O_5 
REMARK    4  A    between atoms: O_5  and  C_6 
REMARK    5  A    between atoms: C_6  and  C_8 
REMARK    6  A    between atoms: C_11  and  N_12 
REMARK       I    between atoms: N_12  and  C_13 
REMARK    7  A    between atoms: C_13  and  C_15 
REMARK    8  A    between atoms: C_15  and  C_16 
REMARK    9  A    between atoms: C_19  and  N_20 
REMARK       I    between atoms: N_20  and  C_21 
REMARK       I    between atoms: C_21  and  N_23 
REMARK   10  A    between atoms: N_23  and  C_24 
ROOT
ATOM      1  C   UNL d   1      27.506 -14.323   0.065  0.00  0.00     0.163 C 
ENDROOT
BRANCH   1   2
ATOM      2  C   UNL d   1      27.475 -13.793   1.502  0.00  0.00     0.227 C 
ATOM      3  N   UNL d   1      28.283 -14.432   2.459  0.00  0.00    -0.327 N 
ATOM      4  H   UNL d   1      28.854 -15.221   2.180  0.00  0.00     0.169 HD
ATOM      5  O   UNL d   1      26.791 -12.802   1.754  0.00  0.00    -0.273 OA
BRANCH   3   6
ATOM      6  C   UNL d   1      28.268 -14.093   3.857  0.00  0.00     0.034 A 
ATOM      7  C   UNL d   1      27.644 -12.926   4.328  0.00  0.00     0.030 A 
ATOM      8  C   UNL d   1      27.773 -12.539   5.690  0.00  0.00     0.020 A 
ATOM      9  C   UNL d   1      28.483 -13.338   6.603  0.00  0.00     0.039 A 
ATOM     10  C   UNL d   1      29.031 -14.526   6.153  0.00  0.00     0.020 A 
ATOM     11  C   UNL d   1      28.914 -14.886   4.812  0.00  0.00     0.030 A 
BRANCH   9  12
ATOM     12  C   UNL d   1      28.573 -13.031   8.052  0.00  0.00     0.293 C 
ATOM     13  O   UNL d   1      28.911 -13.863   8.890  0.00  0.00    -0.259 OA
BRANCH  12  14
ATOM     14  O   UNL d   1      28.259 -11.729   8.295  0.00  0.00    -0.318 OA
BRANCH  14  15
ATOM     15  C   UNL d   1      29.383 -10.878   8.599  0.00  0.00     0.179 C 
BRANCH  15  16
ATOM     16  C   UNL d   1      29.309  -9.593   7.769  0.00  0.00     0.026 C 
BRANCH  16  17
ATOM     17  C   UNL d   1      29.846  -9.802   6.348  0.00  0.00    -0.002 C 
ATOM     18  C   UNL d   1      30.880 -10.917   6.299  0.00  0.00     0.005 C 
ENDBRANCH  16  17
ENDBRANCH  15  16
ENDBRANCH  14  15
ENDBRANCH  12  14
ENDBRANCH   9  12
ENDBRANCH   3   6
ENDBRANCH   1   2
BRANCH   1  19
ATOM     19  C   UNL d   1      26.792 -15.667  -0.018  0.00  0.00     0.052 A 
ATOM     20  C   UNL d   1      27.294 -16.927   0.245  0.00  0.00     0.081 A 
ATOM     21  S   UNL d   1      26.108 -18.137  -0.139  0.00  0.00    -0.062 SA
ATOM     22  C   UNL d   1      25.017 -16.909  -0.610  0.00  0.00     0.174 A 
ATOM     23  N   UNL d   1      25.471 -15.692  -0.433  0.00  0.00    -0.228 NA
BRANCH  22  24
ATOM     24  N   UNL d   1      23.766 -17.285  -1.097  0.00  0.00    -0.287 N 
ATOM     25  C   UNL d   1      23.045 -18.191  -0.352  0.00  0.00     0.322 C 
ATOM     26  O   UNL d   1      23.472 -18.666   0.693  0.00  0.00    -0.247 OA
ATOM     27  N   UNL d   1      21.793 -18.544  -0.835  0.00  0.00    -0.338 N 
ATOM     28  H   UNL d   1      21.496 -18.220  -1.744  0.00  0.00     0.164 HD
ATOM     29  H   UNL d   1      23.426 -16.870  -1.948  0.00  0.00     0.172 HD
BRANCH  27  30
ATOM     30  C   UNL d   1      20.895 -19.529  -0.146  0.00  0.00     0.086 C 
ATOM     31  C   UNL d   1      20.746 -19.321   1.375  0.00  0.00     0.025 C 
ATOM     32  C   UNL d   1      19.754 -20.240   2.064  0.00  0.00     0.002 C 
ATOM     33  C   UNL d   1      18.392 -20.150   1.403  0.00  0.00     0.000 C 
ATOM     34  C   UNL d   1      18.506 -20.468  -0.083  0.00  0.00     0.002 C 
ATOM     35  C   UNL d   1      19.499 -19.539  -0.797  0.00  0.00     0.025 C 
ENDBRANCH  27  30
ENDBRANCH  22  24
ENDBRANCH   1  19
TORSDOF 10
ENDMDL
MODEL 6
REMARK VINA RESULT:    -9.106      6.744     10.623
REMARK INTER + INTRA:         -13.288
REMARK INTER:                 -12.089
REMARK INTRA:                  -1.199
REMARK CONF_INDEPENDENT:        2.983
REMARK UNBOUND:                -1.199
REMARK  10 active torsions:
REMARK  status: ('A' for Active; 'I' for Inactive)
REMARK    1  A    between atoms: C_2  and  C_3 
REMARK    2  A    between atoms: C_3  and  C_4 
REMARK    3  A    between atoms: C_4  and  O_5 
REMARK    4  A    between atoms: O_5  and  C_6 
REMARK    5  A    between atoms: C_6  and  C_8 
REMARK    6  A    between atoms: C_11  and  N_12 
REMARK       I    between atoms: N_12  and  C_13 
REMARK    7  A    between atoms: C_13  and  C_15 
REMARK    8  A    between atoms: C_15  and  C_16 
REMARK    9  A    between atoms: C_19  and  N_20 
REMARK       I    between atoms: N_20  and  C_21 
REMARK       I    between atoms: C_21  and  N_23 
REMARK   10  A    between atoms: N_23  and  C_24 
ROOT
ATOM      1  C   UNL d   1      25.461 -14.724  -3.488  0.00  0.00     0.163 C 
ENDROOT
BRANCH   1   2
ATOM      2  C   UNL d   1      26.489 -15.214  -4.513  0.00  0.00     0.227 C 
ATOM      3  N   UNL d   1      27.840 -15.243  -4.129  0.00  0.00    -0.327 N 
ATOM      4  H   UNL d   1      28.099 -14.936  -3.199  0.00  0.00     0.169 HD
ATOM      5  O   UNL d   1      26.092 -15.613  -5.607  0.00  0.00    -0.273 OA
BRANCH   3   6
ATOM      6  C   UNL d   1      28.909 -15.587  -5.029  0.00  0.00     0.034 A 
ATOM      7  C   UNL d   1      29.239 -14.775  -6.128  0.00  0.00     0.030 A 
ATOM      8  C   UNL d   1      30.195 -15.214  -7.085  0.00  0.00     0.020 A 
ATOM      9  C   UNL d   1      30.864 -16.440  -6.927  0.00  0.00     0.039 A 
ATOM     10  C   UNL d   1      30.593 -17.201  -5.805  0.00  0.00     0.020 A 
ATOM     11  C   UNL d   1      29.641 -16.771  -4.883  0.00  0.00     0.030 A 
BRANCH   9  12
ATOM     12  C   UNL d   1      31.935 -16.904  -7.844  0.00  0.00     0.293 C 
ATOM     13  O   UNL d   1      31.803 -17.874  -8.587  0.00  0.00    -0.259 OA
BRANCH  12  14
ATOM     14  O   UNL d   1      33.034 -16.105  -7.755  0.00  0.00    -0.318 OA
BRANCH  14  15
ATOM     15  C   UNL d   1      33.725 -15.879  -9.000  0.00  0.00     0.179 C 
BRANCH  15  16
ATOM     16  C   UNL d   1      33.413 -14.474  -9.526  0.00  0.00     0.026 C 
BRANCH  16  17
ATOM     17  C   UNL d   1      33.344 -13.445  -8.392  0.00  0.00    -0.002 C 
ATOM     18  C   UNL d   1      32.056 -12.638  -8.445  0.00  0.00     0.005 C 
ENDBRANCH  16  17
ENDBRANCH  15  16
ENDBRANCH  14  15
ENDBRANCH  12  14
ENDBRANCH   9  12
ENDBRANCH   3   6
ENDBRANCH   1   2
BRANCH   1  19
ATOM     19  C   UNL d   1      25.578 -15.522  -2.197  0.00  0.00     0.052 A 
ATOM     20  C   UNL d   1      26.553 -15.442  -1.220  0.00  0.00     0.081 A 
ATOM     21  S   UNL d   1      26.300 -16.671  -0.018  0.00  0.00    -0.062 SA
ATOM     22  C   UNL d   1      24.917 -17.208  -0.867  0.00  0.00     0.174 A 
ATOM     23  N   UNL d   1      24.626 -16.490  -1.925  0.00  0.00    -0.228 NA
BRANCH  22  24
ATOM     24  N   UNL d   1      24.219 -18.307  -0.369  0.00  0.00    -0.287 N 
ATOM     25  C   UNL d   1      22.849 -18.195  -0.277  0.00  0.00     0.322 C 
ATOM     26  O   UNL d   1      22.252 -17.177  -0.605  0.00  0.00    -0.247 OA
ATOM     27  N   UNL d   1      22.161 -19.301   0.201  0.00  0.00    -0.338 N 
ATOM     28  H   UNL d   1      22.673 -20.095   0.558  0.00  0.00     0.164 HD
ATOM     29  H   UNL d   1      24.726 -19.140  -0.122  0.00  0.00     0.172 HD
BRANCH  27  30
ATOM     30  C   UNL d   1      20.671 -19.329   0.374  0.00  0.00     0.086 C 
ATOM     31  C   UNL d   1      19.901 -20.075  -0.736  0.00  0.00     0.025 C 
ATOM     32  C   UNL d   1      18.405 -20.206  -0.515  0.00  0.00     0.002 C 
ATOM     33  C   UNL d   1      18.117 -20.853   0.827  0.00  0.00     0.000 C 
ATOM     34  C   UNL d   1      18.778 -20.059   1.947  0.00  0.00     0.002 C 
ATOM     35  C   UNL d   1      20.295 -19.926   1.743  0.00  0.00     0.025 C 
ENDBRANCH  27  30
ENDBRANCH  22  24
ENDBRANCH   1  19
TORSDOF 10
ENDMDL
MODEL 7
REMARK VINA RESULT:    -8.337      5.529     10.657
REMARK INTER + INTRA:         -13.020
REMARK INTER:                 -11.320
REMARK INTRA:                  -1.700
REMARK CONF_INDEPENDENT:        2.983
REMARK UNBOUND:                -1.700
REMARK  10 active torsions:
REMARK  status: ('A' for Active; 'I' for Inactive)
REMARK    1  A    between atoms: C_2  and  C_3 
REMARK    2  A    between atoms: C_3  and  C_4 
REMARK    3  A    between atoms: C_4  and  O_5 
REMARK    4  A    between atoms: O_5  and  C_6 
REMARK    5  A    between atoms: C_6  and  C_8 
REMARK    6  A    between atoms: C_11  and  N_12 
REMARK       I    between atoms: N_12  and  C_13 
REMARK    7  A    between atoms: C_13  and  C_15 
REMARK    8  A    between atoms: C_15  and  C_16 
REMARK    9  A    between atoms: C_19  and  N_20 
REMARK       I    between atoms: N_20  and  C_21 
REMARK       I    between atoms: C_21  and  N_23 
REMARK   10  A    between atoms: N_23  and  C_24 
ROOT
ATOM      1  C   UNL d   1      29.677 -15.983   0.483  0.00  0.00     0.163 C 
ENDROOT
BRANCH   1   2
ATOM      2  C   UNL d   1      28.152 -16.118   0.534  0.00  0.00     0.227 C 
ATOM      3  N   UNL d   1      27.557 -17.167  -0.187  0.00  0.00    -0.327 N 
ATOM      4  H   UNL d   1      28.144 -17.796  -0.723  0.00  0.00     0.169 HD
ATOM      5  O   UNL d   1      27.512 -15.342   1.243  0.00  0.00    -0.273 OA
BRANCH   3   6
ATOM      6  C   UNL d   1      26.133 -17.339  -0.300  0.00  0.00     0.034 A 
ATOM      7  C   UNL d   1      25.424 -18.205   0.550  0.00  0.00     0.030 A 
ATOM      8  C   UNL d   1      24.047 -18.471   0.320  0.00  0.00     0.020 A 
ATOM      9  C   UNL d   1      23.354 -17.838  -0.726  0.00  0.00     0.039 A 
ATOM     10  C   UNL d   1      24.036 -16.927  -1.514  0.00  0.00     0.020 A 
ATOM     11  C   UNL d   1      25.390 -16.688  -1.292  0.00  0.00     0.030 A 
BRANCH   9  12
ATOM     12  C   UNL d   1      21.897 -18.008  -0.956  0.00  0.00     0.293 C 
ATOM     13  O   UNL d   1      21.100 -17.076  -0.896  0.00  0.00    -0.259 OA
BRANCH  12  14
ATOM     14  O   UNL d   1      21.599 -19.302  -1.255  0.00  0.00    -0.318 OA
BRANCH  14  15
ATOM     15  C   UNL d   1      20.193 -19.620  -1.243  0.00  0.00     0.179 C 
BRANCH  15  16
ATOM     16  C   UNL d   1      19.629 -19.460   0.173  0.00  0.00     0.026 C 
BRANCH  16  17
ATOM     17  C   UNL d   1      19.581 -20.797   0.920  0.00  0.00    -0.002 C 
ATOM     18  C   UNL d   1      18.167 -21.355   0.980  0.00  0.00     0.005 C 
ENDBRANCH  16  17
ENDBRANCH  15  16
ENDBRANCH  14  15
ENDBRANCH  12  14
ENDBRANCH   9  12
ENDBRANCH   3   6
ENDBRANCH   1   2
BRANCH   1  19
ATOM     19  C   UNL d   1      30.255 -16.915  -0.574  0.00  0.00     0.052 A 
ATOM     20  C   UNL d   1      31.268 -17.846  -0.442  0.00  0.00     0.081 A 
ATOM     21  S   UNL d   1      31.643 -18.549  -1.986  0.00  0.00    -0.062 SA
ATOM     22  C   UNL d   1      30.432 -17.585  -2.711  0.00  0.00     0.174 A 
ATOM     23  N   UNL d   1      29.756 -16.847  -1.864  0.00  0.00    -0.228 NA
BRANCH  22  24
ATOM     24  N   UNL d   1      30.247 -17.680  -4.090  0.00  0.00    -0.287 N 
ATOM     25  C   UNL d   1      30.151 -16.501  -4.796  0.00  0.00     0.322 C 
ATOM     26  O   UNL d   1      30.214 -15.406  -4.252  0.00  0.00    -0.247 OA
ATOM     27  N   UNL d   1      29.987 -16.606  -6.170  0.00  0.00    -0.338 N 
ATOM     28  H   UNL d   1      29.840 -17.512  -6.590  0.00  0.00     0.164 HD
ATOM     29  H   UNL d   1      30.216 -18.589  -4.519  0.00  0.00     0.172 HD
BRANCH  27  30
ATOM     30  C   UNL d   1      29.851 -15.415  -7.073  0.00  0.00     0.086 C 
ATOM     31  C   UNL d   1      28.708 -14.446  -6.705  0.00  0.00     0.025 C 
ATOM     32  C   UNL d   1      28.631 -13.183  -7.542  0.00  0.00     0.002 C 
ATOM     33  C   UNL d   1      29.955 -12.441  -7.515  0.00  0.00     0.000 C 
ATOM     34  C   UNL d   1      31.079 -13.354  -7.987  0.00  0.00     0.002 C 
ATOM     35  C   UNL d   1      31.177 -14.634  -7.143  0.00  0.00     0.025 C 
ENDBRANCH  27  30
ENDBRANCH  22  24
ENDBRANCH   1  19
TORSDOF 10
ENDMDL
MODEL 8
REMARK VINA RESULT:    -8.307      7.528     10.656
REMARK INTER + INTRA:         -13.747
REMARK INTER:                 -11.290
REMARK INTRA:                  -2.457
REMARK CONF_INDEPENDENT:        2.983
REMARK UNBOUND:                -2.457
REMARK  10 active torsions:
REMARK  status: ('A' for Active; 'I' for Inactive)
REMARK    1  A    between atoms: C_2  and  C_3 
REMARK    2  A    between atoms: C_3  and  C_4 
REMARK    3  A    between atoms: C_4  and  O_5 
REMARK    4  A    between atoms: O_5  and  C_6 
REMARK    5  A    between atoms: C_6  and  C_8 
REMARK    6  A    between atoms: C_11  and  N_12 
REMARK       I    between atoms: N_12  and  C_13 
REMARK    7  A    between atoms: C_13  and  C_15 
REMARK    8  A    between atoms: C_15  and  C_16 
REMARK    9  A    between atoms: C_19  and  N_20 
REMARK       I    between atoms: N_20  and  C_21 
REMARK       I    between atoms: C_21  and  N_23 
REMARK   10  A    between atoms: N_23  and  C_24 
ROOT
ATOM      1  C   UNL d   1      26.423 -10.544  -5.536  0.00  0.00     0.163 C 
ENDROOT
BRANCH   1   2
ATOM      2  C   UNL d   1      26.004 -11.587  -4.495  0.00  0.00     0.227 C 
ATOM      3  N   UNL d   1      26.464 -12.905  -4.658  0.00  0.00    -0.327 N 
ATOM      4  H   UNL d   1      27.048 -13.132  -5.454  0.00  0.00     0.169 HD
ATOM      5  O   UNL d   1      25.329 -11.225  -3.531  0.00  0.00    -0.273 OA
BRANCH   3   6
ATOM      6  C   UNL d   1      26.059 -13.992  -3.808  0.00  0.00     0.034 A 
ATOM      7  C   UNL d   1      24.737 -14.122  -3.352  0.00  0.00     0.030 A 
ATOM      8  C   UNL d   1      24.399 -15.116  -2.393  0.00  0.00     0.020 A 
ATOM      9  C   UNL d   1      25.366 -16.021  -1.921  0.00  0.00     0.039 A 
ATOM     10  C   UNL d   1      26.650 -15.940  -2.429  0.00  0.00     0.020 A 
ATOM     11  C   UNL d   1      26.974 -14.950  -3.354  0.00  0.00     0.030 A 
BRANCH   9  12
ATOM     12  C   UNL d   1      25.051 -17.134  -0.991  0.00  0.00     0.293 C 
ATOM     13  O   UNL d   1      25.910 -17.882  -0.531  0.00  0.00    -0.259 OA
BRANCH  12  14
ATOM     14  O   UNL d   1      23.718 -17.182  -0.722  0.00  0.00    -0.318 OA
BRANCH  14  15
ATOM     15  C   UNL d   1      23.262 -18.409  -0.118  0.00  0.00     0.179 C 
BRANCH  15  16
ATOM     16  C   UNL d   1      21.984 -18.893  -0.812  0.00  0.00     0.026 C 
BRANCH  16  17
ATOM     17  C   UNL d   1      21.023 -19.568   0.174  0.00  0.00    -0.002 C 
ATOM     18  C   UNL d   1      19.622 -19.689  -0.405  0.00  0.00     0.005 C 
ENDBRANCH  16  17
ENDBRANCH  15  16
ENDBRANCH  14  15
ENDBRANCH  12  14
ENDBRANCH   9  12
ENDBRANCH   3   6
ENDBRANCH   1   2
BRANCH   1  19
ATOM     19  C   UNL d   1      27.103 -11.221  -6.719  0.00  0.00     0.052 A 
ATOM     20  C   UNL d   1      26.865 -11.041  -8.068  0.00  0.00     0.081 A 
ATOM     21  S   UNL d   1      27.815 -12.160  -8.999  0.00  0.00    -0.062 SA
ATOM     22  C   UNL d   1      28.479 -12.788  -7.555  0.00  0.00     0.174 A 
ATOM     23  N   UNL d   1      28.079 -12.171  -6.469  0.00  0.00    -0.228 NA
BRANCH  22  24
ATOM     24  N   UNL d   1      29.383 -13.845  -7.646  0.00  0.00    -0.287 N 
ATOM     25  C   UNL d   1      29.198 -14.909  -6.791  0.00  0.00     0.322 C 
ATOM     26  O   UNL d   1      28.289 -14.938  -5.970  0.00  0.00    -0.247 OA
ATOM     27  N   UNL d   1      30.091 -15.965  -6.902  0.00  0.00    -0.338 N 
ATOM     28  H   UNL d   1      30.890 -15.884  -7.514  0.00  0.00     0.164 HD
ATOM     29  H   UNL d   1      30.112 -13.810  -8.338  0.00  0.00     0.172 HD
BRANCH  27  30
ATOM     30  C   UNL d   1      30.031 -17.186  -6.032  0.00  0.00     0.086 C 
ATOM     31  C   UNL d   1      30.760 -18.423  -6.596  0.00  0.00     0.025 C 
ATOM     32  C   UNL d   1      30.801 -19.630  -5.675  0.00  0.00     0.002 C 
ATOM     33  C   UNL d   1      31.398 -19.257  -4.331  0.00  0.00     0.000 C 
ATOM     34  C   UNL d   1      30.615 -18.108  -3.708  0.00  0.00     0.002 C 
ATOM     35  C   UNL d   1      30.572 -16.875  -4.623  0.00  0.00     0.025 C 
ENDBRANCH  27  30
ENDBRANCH  22  24
ENDBRANCH   1  19
TORSDOF 10
ENDMDL
MODEL 9
REMARK VINA RESULT:    -8.107      3.739     10.011
REMARK INTER + INTRA:         -13.105
REMARK INTER:                 -11.090
REMARK INTRA:                  -2.015
REMARK CONF_INDEPENDENT:        2.983
REMARK UNBOUND:                -2.015
REMARK  10 active torsions:
REMARK  status: ('A' for Active; 'I' for Inactive)
REMARK    1  A    between atoms: C_2  and  C_3 
REMARK    2  A    between atoms: C_3  and  C_4 
REMARK    3  A    between atoms: C_4  and  O_5 
REMARK    4  A    between atoms: O_5  and  C_6 
REMARK    5  A    between atoms: C_6  and  C_8 
REMARK    6  A    between atoms: C_11  and  N_12 
REMARK       I    between atoms: N_12  and  C_13 
REMARK    7  A    between atoms: C_13  and  C_15 
REMARK    8  A    between atoms: C_15  and  C_16 
REMARK    9  A    between atoms: C_19  and  N_20 
REMARK       I    between atoms: N_20  and  C_21 
REMARK       I    between atoms: C_21  and  N_23 
REMARK   10  A    between atoms: N_23  and  C_24 
ROOT
ATOM      1  C   UNL d   1      31.388 -17.049  -1.363  0.00  0.00     0.163 C 
ENDROOT
BRANCH   1   2
ATOM      2  C   UNL d   1      29.857 -17.039  -1.429  0.00  0.00     0.227 C 
ATOM      3  N   UNL d   1      29.146 -16.872  -0.228  0.00  0.00    -0.327 N 
ATOM      4  H   UNL d   1      29.657 -16.770   0.641  0.00  0.00     0.169 HD
ATOM      5  O   UNL d   1      29.311 -17.124  -2.528  0.00  0.00    -0.273 OA
BRANCH   3   6
ATOM      6  C   UNL d   1      27.712 -16.945  -0.144  0.00  0.00     0.034 A 
ATOM      7  C   UNL d   1      27.056 -18.097   0.322  0.00  0.00     0.030 A 
ATOM      8  C   UNL d   1      25.640 -18.197   0.252  0.00  0.00     0.020 A 
ATOM      9  C   UNL d   1      24.864 -17.132  -0.236  0.00  0.00     0.039 A 
ATOM     10  C   UNL d   1      25.506 -15.970  -0.623  0.00  0.00     0.020 A 
ATOM     11  C   UNL d   1      26.896 -15.889  -0.568  0.00  0.00     0.030 A 
BRANCH   9  12
ATOM     12  C   UNL d   1      23.380 -17.147  -0.247  0.00  0.00     0.293 C 
ATOM     13  O   UNL d   1      22.707 -16.252  -0.754  0.00  0.00    -0.259 OA
BRANCH  12  14
ATOM     14  O   UNL d   1      22.899 -18.273   0.348  0.00  0.00    -0.318 OA
BRANCH  14  15
ATOM     15  C   UNL d   1      22.350 -19.252  -0.557  0.00  0.00     0.179 C 
BRANCH  15  16
ATOM     16  C   UNL d   1      20.819 -19.198  -0.523  0.00  0.00     0.026 C 
BRANCH  16  17
ATOM     17  C   UNL d   1      20.255 -19.850   0.745  0.00  0.00    -0.002 C 
ATOM     18  C   UNL d   1      18.864 -20.421   0.510  0.00  0.00     0.005 C 
ENDBRANCH  16  17
ENDBRANCH  15  16
ENDBRANCH  14  15
ENDBRANCH  12  14
ENDBRANCH   9  12
ENDBRANCH   3   6
ENDBRANCH   1   2
BRANCH   1  19
ATOM     19  C   UNL d   1      31.855 -17.045   0.087  0.00  0.00     0.052 A 
ATOM     20  C   UNL d   1      32.475 -18.057   0.796  0.00  0.00     0.081 A 
ATOM     21  S   UNL d   1      32.672 -17.591   2.458  0.00  0.00    -0.062 SA
ATOM     22  C   UNL d   1      31.940 -16.085   2.116  0.00  0.00     0.174 A 
ATOM     23  N   UNL d   1      31.633 -15.913   0.853  0.00  0.00    -0.228 NA
BRANCH  22  24
ATOM     24  N   UNL d   1      31.763 -15.182   3.163  0.00  0.00    -0.287 N 
ATOM     25  C   UNL d   1      30.542 -14.551   3.252  0.00  0.00     0.322 C 
ATOM     26  O   UNL d   1      29.640 -14.755   2.449  0.00  0.00    -0.247 OA
ATOM     27  N   UNL d   1      30.368 -13.669   4.309  0.00  0.00    -0.338 N 
ATOM     28  H   UNL d   1      31.150 -13.438   4.904  0.00  0.00     0.164 HD
ATOM     29  H   UNL d   1      32.509 -15.042   3.822  0.00  0.00     0.172 HD
BRANCH  27  30
ATOM     30  C   UNL d   1      29.102 -12.895   4.532  0.00  0.00     0.086 C 
ATOM     31  C   UNL d   1      29.125 -11.946   5.748  0.00  0.00     0.025 C 
ATOM     32  C   UNL d   1      27.893 -11.076   5.918  0.00  0.00     0.002 C 
ATOM     33  C   UNL d   1      27.623 -10.277   4.656  0.00  0.00     0.000 C 
ATOM     34  C   UNL d   1      27.483 -11.213   3.462  0.00  0.00     0.002 C 
ATOM     35  C   UNL d   1      28.727 -12.094   3.270  0.00  0.00     0.025 C 
ENDBRANCH  27  30
ENDBRANCH  22  24
ENDBRANCH   1  19
TORSDOF 10
ENDMDL
