MODEL 1
REMARK VINA RESULT:   -11.706      0.000      0.000
REMARK INTER + INTRA:         -16.523
REMARK INTER:                 -14.092
REMARK INTRA:                  -2.430
REMARK CONF_INDEPENDENT:        2.386
REMARK UNBOUND:                -2.430
REMARK  8 active torsions:
REMARK  status: ('A' for Active; 'I' for Inactive)
REMARK    1  A    between atoms: C_2  and  O_3 
REMARK    2  A    between atoms: O_3  and  C_4 
REMARK    3  A    between atoms: C_9  and  N_10 
REMARK       I    between atoms: N_10  and  C_11 
REMARK       I    between atoms: C_11  and  N_12 
REMARK       I    between atoms: C_11  and  N_25 
REMARK       I    between atoms: N_12  and  C_13 
REMARK    4  A    between atoms: C_13  and  C_15 
REMARK    5  A    between atoms: C_18  and  N_19 
REMARK       I    between atoms: N_19  and  C_20 
REMARK    6  A    between atoms: N_25  and  C_26 
REMARK    7  A    between atoms: C_26  and  C_27 
REMARK    8  A    between atoms: C_27  and  C_28 
ROOT
ATOM      1  N   UNL d   1      27.698 -13.252  -1.681  0.00  0.00    -0.187 N 
ATOM      2  C   UNL d   1      27.138 -13.745  -0.359  0.00  0.00     0.704 C 
ATOM      3  N   UNL d   1      26.500 -14.930  -0.017  0.00  0.00    -0.027 NA
ATOM      4  C   UNL d   1      25.433 -15.781  -0.748  0.00  0.00     0.278 C 
ATOM      5  O   UNL d   1      24.561 -15.519  -1.624  0.00  0.00    -0.269 OA
ATOM      6  N   UNL d   1      27.194 -12.580   0.614  0.00  0.00    -0.224 N 
ATOM      7  H   UNL d   1      27.758 -12.247  -1.846  0.00  0.00     0.184 HD
ATOM      8  H   UNL d   1      27.384 -11.669   0.189  0.00  0.00     0.177 HD
ENDROOT
BRANCH   1   9
ATOM      9  C   UNL d   1      27.297 -13.893  -2.897  0.00  0.00     0.082 C 
ATOM     10  C   UNL d   1      27.905 -14.709  -3.838  0.00  0.00     0.033 C 
ATOM     11  C   UNL d   1      27.139 -15.359  -4.883  0.00  0.00     0.002 C 
ATOM     12  C   UNL d   1      25.762 -15.216  -4.999  0.00  0.00     0.003 C 
ATOM     13  C   UNL d   1      25.240 -14.190  -4.252  0.00  0.00     0.039 C 
ATOM     14  C   UNL d   1      26.120 -13.436  -3.353  0.00  0.00     0.096 C 
BRANCH  14  15
ATOM     15  O   UNL d   1      26.307 -11.978  -3.185  0.00  0.00    -0.349 OA
BRANCH  15  16
ATOM     16  C   UNL d   1      25.989 -10.559  -3.809  0.00  0.00     0.171 C 
ATOM     17  C   UNL d   1      26.111  -9.650  -5.373  0.00  0.00     0.034 C 
ENDBRANCH  15  16
ENDBRANCH  14  15
ENDBRANCH   1   9
BRANCH   6  18
ATOM     18  C   UNL d   1      26.337 -12.385   1.835  0.00  0.00     0.142 C 
BRANCH  18  19
ATOM     19  C   UNL d   1      27.040 -12.042   3.140  0.00  0.00     0.057 C 
BRANCH  19  20
ATOM     20  C   UNL d   1      27.815 -13.149   3.832  0.00  0.00    -0.048 C 
ATOM     21  C   UNL d   1      28.104 -13.015   5.127  0.00  0.00    -0.006 C 
ATOM     22  C   UNL d   1      27.800 -11.949   6.008  0.00  0.00     0.014 C 
ATOM     23  C   UNL d   1      28.929 -14.157   5.523  0.00  0.00     0.038 C 
ATOM     24  C   UNL d   1      28.447 -11.895   7.171  0.00  0.00     0.001 C 
ATOM     25  C   UNL d   1      29.264 -13.008   7.625  0.00  0.00     0.002 C 
ATOM     26  C   UNL d   1      29.504 -14.117   6.888  0.00  0.00     0.030 C 
ATOM     27  N   UNL d   1      29.031 -15.004   4.566  0.00  0.00    -0.385 N 
ATOM     28  C   UNL d   1      28.432 -14.422   3.306  0.00  0.00     0.155 C 
ATOM     29  H   UNL d   1      29.458 -15.921   4.704  0.00  0.00     0.160 HD
ENDBRANCH  19  20
ENDBRANCH  18  19
ENDBRANCH   6  18
BRANCH   4  30
ATOM     30  C   UNL d   1      24.499 -16.806  -0.302  0.00  0.00     0.103 C 
ATOM     31  C   UNL d   1      24.924 -18.085  -0.544  0.00  0.00     0.001 C 
ATOM     32  C   UNL d   1      23.956 -19.095  -0.595  0.00  0.00     0.027 C 
ATOM     33  C   UNL d   1      22.596 -18.725  -0.457  0.00  0.00     0.034 C 
ATOM     34  C   UNL d   1      22.171 -17.498  -0.704  0.00  0.00     0.027 C 
ATOM     35  C   UNL d   1      23.111 -16.517  -0.622  0.00  0.00     0.001 C 
BRANCH  33  36
ATOM     36  N   UNL d   1      21.669 -19.684  -0.006  0.00  0.00    -0.328 N 
ATOM     37  C   UNL d   1      20.327 -19.657  -0.169  0.00  0.00     0.218 C 
ATOM     38  C   UNL d   1      19.508 -18.604  -0.891  0.00  0.00     0.117 C 
ATOM     39  O   UNL d   1      19.693 -20.643   0.353  0.00  0.00    -0.274 OA
ATOM     40  H   UNL d   1      22.029 -20.386   0.608  0.00  0.00     0.169 HD
ENDBRANCH  33  36
ENDBRANCH   4  30
TORSDOF 8
ENDMDL
MODEL 2
REMARK VINA RESULT:   -11.075      4.267      8.058
REMARK INTER + INTRA:         -15.894
REMARK INTER:                 -13.461
REMARK INTRA:                  -2.433
REMARK CONF_INDEPENDENT:        2.386
REMARK UNBOUND:                -2.433
REMARK  8 active torsions:
REMARK  status: ('A' for Active; 'I' for Inactive)
REMARK    1  A    between atoms: C_2  and  O_3 
REMARK    2  A    between atoms: O_3  and  C_4 
REMARK    3  A    between atoms: C_9  and  N_10 
REMARK       I    between atoms: N_10  and  C_11 
REMARK       I    between atoms: C_11  and  N_12 
REMARK       I    between atoms: C_11  and  N_25 
REMARK       I    between atoms: N_12  and  C_13 
REMARK    4  A    between atoms: C_13  and  C_15 
REMARK    5  A    between atoms: C_18  and  N_19 
REMARK       I    between atoms: N_19  and  C_20 
REMARK    6  A    between atoms: N_25  and  C_26 
REMARK    7  A    between atoms: C_26  and  C_27 
REMARK    8  A    between atoms: C_27  and  C_28 
ROOT
ATOM      1  N   UNL d   1      29.957 -15.589   0.730  0.00  0.00    -0.187 N 
ATOM      2  C   UNL d   1      29.531 -16.679  -0.237  0.00  0.00     0.704 C 
ATOM      3  N   UNL d   1      28.321 -16.917  -0.877  0.00  0.00    -0.027 NA
ATOM      4  C   UNL d   1      26.855 -16.824  -0.388  0.00  0.00     0.278 C 
ATOM      5  O   UNL d   1      26.310 -16.888   0.751  0.00  0.00    -0.269 OA
ATOM      6  N   UNL d   1      30.652 -17.702  -0.283  0.00  0.00    -0.224 N 
ATOM      7  H   UNL d   1      30.709 -15.784   1.391  0.00  0.00     0.184 HD
ATOM      8  H   UNL d   1      31.358 -17.605   0.451  0.00  0.00     0.177 HD
ENDROOT
BRANCH   1   9
ATOM      9  C   UNL d   1      28.957 -14.806   1.391  0.00  0.00     0.082 C 
ATOM     10  C   UNL d   1      27.802 -14.141   1.012  0.00  0.00     0.033 C 
ATOM     11  C   UNL d   1      26.890 -13.588   1.993  0.00  0.00     0.002 C 
ATOM     12  C   UNL d   1      27.109 -13.697   3.361  0.00  0.00     0.003 C 
ATOM     13  C   UNL d   1      28.379 -14.090   3.696  0.00  0.00     0.039 C 
ATOM     14  C   UNL d   1      29.324 -14.450   2.634  0.00  0.00     0.096 C 
BRANCH  14  15
ATOM     15  O   UNL d   1      30.719 -14.018   2.395  0.00  0.00    -0.349 OA
BRANCH  15  16
ATOM     16  C   UNL d   1      32.236 -14.458   2.487  0.00  0.00     0.171 C 
ATOM     17  C   UNL d   1      33.273 -15.946   2.484  0.00  0.00     0.034 C 
ENDBRANCH  15  16
ENDBRANCH  14  15
ENDBRANCH   1   9
BRANCH   6  18
ATOM     18  C   UNL d   1      30.532 -19.153  -0.660  0.00  0.00     0.142 C 
BRANCH  18  19
ATOM     19  C   UNL d   1      31.662 -19.763  -1.478  0.00  0.00     0.057 C 
BRANCH  19  20
ATOM     20  C   UNL d   1      31.283 -20.550  -2.719  0.00  0.00    -0.048 C 
ATOM     21  C   UNL d   1      31.202 -19.908  -3.885  0.00  0.00    -0.006 C 
ATOM     22  C   UNL d   1      31.413 -18.537  -4.169  0.00  0.00     0.014 C 
ATOM     23  C   UNL d   1      30.731 -20.862  -4.891  0.00  0.00     0.038 C 
ATOM     24  C   UNL d   1      30.983 -18.068  -5.340  0.00  0.00     0.001 C 
ATOM     25  C   UNL d   1      30.524 -18.970  -6.384  0.00  0.00     0.002 C 
ATOM     26  C   UNL d   1      30.409 -20.309  -6.228  0.00  0.00     0.030 C 
ATOM     27  N   UNL d   1      30.653 -22.044  -4.402  0.00  0.00    -0.385 N 
ATOM     28  C   UNL d   1      30.880 -21.993  -2.908  0.00  0.00     0.155 C 
ATOM     29  H   UNL d   1      30.470 -22.858  -4.991  0.00  0.00     0.160 HD
ENDBRANCH  19  20
ENDBRANCH  18  19
ENDBRANCH   6  18
BRANCH   4  30
ATOM     30  C   UNL d   1      25.603 -17.380  -0.881  0.00  0.00     0.103 C 
ATOM     31  C   UNL d   1      24.653 -16.436  -1.167  0.00  0.00     0.001 C 
ATOM     32  C   UNL d   1      23.313 -16.846  -1.193  0.00  0.00     0.027 C 
ATOM     33  C   UNL d   1      23.020 -18.191  -0.861  0.00  0.00     0.034 C 
ATOM     34  C   UNL d   1      23.843 -18.936  -0.143  0.00  0.00     0.027 C 
ATOM     35  C   UNL d   1      25.149 -18.550  -0.149  0.00  0.00     0.001 C 
BRANCH  33  36
ATOM     36  N   UNL d   1      21.829 -18.770  -1.340  0.00  0.00    -0.328 N 
ATOM     37  C   UNL d   1      20.817 -19.278  -0.602  0.00  0.00     0.218 C 
ATOM     38  C   UNL d   1      20.716 -19.328   0.912  0.00  0.00     0.117 C 
ATOM     39  O   UNL d   1      19.842 -19.769  -1.275  0.00  0.00    -0.274 OA
ATOM     40  H   UNL d   1      21.789 -18.936  -2.325  0.00  0.00     0.169 HD
ENDBRANCH  33  36
ENDBRANCH   4  30
TORSDOF 8
ENDMDL
MODEL 3
REMARK VINA RESULT:   -10.727      3.997      7.458
REMARK INTER + INTRA:         -15.501
REMARK INTER:                 -13.113
REMARK INTRA:                  -2.388
REMARK CONF_INDEPENDENT:        2.386
REMARK UNBOUND:                -2.388
REMARK  8 active torsions:
REMARK  status: ('A' for Active; 'I' for Inactive)
REMARK    1  A    between atoms: C_2  and  O_3 
REMARK    2  A    between atoms: O_3  and  C_4 
REMARK    3  A    between atoms: C_9  and  N_10 
REMARK       I    between atoms: N_10  and  C_11 
REMARK       I    between atoms: C_11  and  N_12 
REMARK       I    between atoms: C_11  and  N_25 
REMARK       I    between atoms: N_12  and  C_13 
REMARK    4  A    between atoms: C_13  and  C_15 
REMARK    5  A    between atoms: C_18  and  N_19 
REMARK       I    between atoms: N_19  and  C_20 
REMARK    6  A    between atoms: N_25  and  C_26 
REMARK    7  A    between atoms: C_26  and  C_27 
REMARK    8  A    between atoms: C_27  and  C_28 
ROOT
ATOM      1  N   UNL d   1      29.901 -15.604   0.610  0.00  0.00    -0.187 N 
ATOM      2  C   UNL d   1      29.469 -16.751  -0.285  0.00  0.00     0.704 C 
ATOM      3  N   UNL d   1      28.264 -17.013  -0.925  0.00  0.00    -0.027 NA
ATOM      4  C   UNL d   1      26.793 -16.861  -0.467  0.00  0.00     0.278 C 
ATOM      5  O   UNL d   1      26.231 -16.836   0.665  0.00  0.00    -0.269 OA
ATOM      6  N   UNL d   1      30.572 -17.794  -0.242  0.00  0.00    -0.224 N 
ATOM      7  H   UNL d   1      30.640 -15.766   1.294  0.00  0.00     0.184 HD
ATOM      8  H   UNL d   1      31.269 -17.658   0.494  0.00  0.00     0.177 HD
ENDROOT
BRANCH   1   9
ATOM      9  C   UNL d   1      28.906 -14.760   1.200  0.00  0.00     0.082 C 
ATOM     10  C   UNL d   1      27.913 -14.911   2.155  0.00  0.00     0.033 C 
ATOM     11  C   UNL d   1      27.184 -13.771   2.675  0.00  0.00     0.002 C 
ATOM     12  C   UNL d   1      27.439 -12.469   2.261  0.00  0.00     0.003 C 
ATOM     13  C   UNL d   1      28.204 -12.381   1.125  0.00  0.00     0.039 C 
ATOM     14  C   UNL d   1      28.752 -13.605   0.531  0.00  0.00     0.096 C 
BRANCH  14  15
ATOM     15  O   UNL d   1      28.727 -14.096  -0.864  0.00  0.00    -0.349 OA
BRANCH  15  16
ATOM     16  C   UNL d   1      27.900 -14.101  -2.212  0.00  0.00     0.171 C 
ATOM     17  C   UNL d   1      27.422 -15.209  -3.566  0.00  0.00     0.034 C 
ENDBRANCH  15  16
ENDBRANCH  14  15
ENDBRANCH   1   9
BRANCH   6  18
ATOM     18  C   UNL d   1      30.431 -19.266  -0.520  0.00  0.00     0.142 C 
BRANCH  18  19
ATOM     19  C   UNL d   1      31.584 -19.962  -1.228  0.00  0.00     0.057 C 
BRANCH  19  20
ATOM     20  C   UNL d   1      31.289 -20.636  -2.556  0.00  0.00    -0.048 C 
ATOM     21  C   UNL d   1      31.154 -19.876  -3.643  0.00  0.00    -0.006 C 
ATOM     22  C   UNL d   1      31.237 -18.468  -3.768  0.00  0.00     0.014 C 
ATOM     23  C   UNL d   1      30.781 -20.749  -4.757  0.00  0.00     0.038 C 
ATOM     24  C   UNL d   1      30.771 -17.911  -4.886  0.00  0.00     0.001 C 
ATOM     25  C   UNL d   1      30.405 -18.728  -6.031  0.00  0.00     0.002 C 
ATOM     26  C   UNL d   1      30.416 -20.080  -6.028  0.00  0.00     0.030 C 
ATOM     27  N   UNL d   1      30.812 -21.981  -4.405  0.00  0.00    -0.385 N 
ATOM     28  C   UNL d   1      31.024 -22.079  -2.912  0.00  0.00     0.155 C 
ATOM     29  H   UNL d   1      30.709 -22.736  -5.085  0.00  0.00     0.160 HD
ENDBRANCH  19  20
ENDBRANCH  18  19
ENDBRANCH   6  18
BRANCH   4  30
ATOM     30  C   UNL d   1      25.538 -17.429  -0.940  0.00  0.00     0.103 C 
ATOM     31  C   UNL d   1      24.592 -16.491  -1.259  0.00  0.00     0.001 C 
ATOM     32  C   UNL d   1      23.251 -16.895  -1.270  0.00  0.00     0.027 C 
ATOM     33  C   UNL d   1      22.952 -18.226  -0.889  0.00  0.00     0.034 C 
ATOM     34  C   UNL d   1      23.772 -18.948  -0.146  0.00  0.00     0.027 C 
ATOM     35  C   UNL d   1      25.079 -18.569  -0.165  0.00  0.00     0.001 C 
BRANCH  33  36
ATOM     36  N   UNL d   1      21.757 -18.816  -1.347  0.00  0.00    -0.328 N 
ATOM     37  C   UNL d   1      20.752 -19.309  -0.591  0.00  0.00     0.218 C 
ATOM     38  C   UNL d   1      20.661 -19.325   0.924  0.00  0.00     0.117 C 
ATOM     39  O   UNL d   1      19.772 -19.815  -1.246  0.00  0.00    -0.274 OA
ATOM     40  H   UNL d   1      21.711 -19.004  -2.328  0.00  0.00     0.169 HD
ENDBRANCH  33  36
ENDBRANCH   4  30
TORSDOF 8
ENDMDL
MODEL 4
REMARK VINA RESULT:   -10.587      1.548      2.119
REMARK INTER + INTRA:         -16.034
REMARK INTER:                 -12.974
REMARK INTRA:                  -3.060
REMARK CONF_INDEPENDENT:        2.386
REMARK UNBOUND:                -3.060
REMARK  8 active torsions:
REMARK  status: ('A' for Active; 'I' for Inactive)
REMARK    1  A    between atoms: C_2  and  O_3 
REMARK    2  A    between atoms: O_3  and  C_4 
REMARK    3  A    between atoms: C_9  and  N_10 
REMARK       I    between atoms: N_10  and  C_11 
REMARK       I    between atoms: C_11  and  N_12 
REMARK       I    between atoms: C_11  and  N_25 
REMARK       I    between atoms: N_12  and  C_13 
REMARK    4  A    between atoms: C_13  and  C_15 
REMARK    5  A    between atoms: C_18  and  N_19 
REMARK       I    between atoms: N_19  and  C_20 
REMARK    6  A    between atoms: N_25  and  C_26 
REMARK    7  A    between atoms: C_26  and  C_27 
REMARK    8  A    between atoms: C_27  and  C_28 
ROOT
ATOM      1  N   UNL d   1      28.875 -14.831  -2.496  0.00  0.00    -0.187 N 
ATOM      2  C   UNL d   1      28.652 -15.538  -1.171  0.00  0.00     0.704 C 
ATOM      3  N   UNL d   1      27.649 -16.401  -0.749  0.00  0.00    -0.027 NA
ATOM      4  C   UNL d   1      26.116 -16.392  -0.964  0.00  0.00     0.278 C 
ATOM      5  O   UNL d   1      25.277 -15.483  -1.223  0.00  0.00    -0.269 OA
ATOM      6  N   UNL d   1      29.666 -14.980  -0.188  0.00  0.00    -0.224 N 
ATOM      7  H   UNL d   1      29.402 -13.957  -2.504  0.00  0.00     0.184 HD
ATOM      8  H   UNL d   1      30.149 -14.133  -0.498  0.00  0.00     0.177 HD
ENDROOT
BRANCH   1   9
ATOM      9  C   UNL d   1      27.792 -14.722  -3.426  0.00  0.00     0.082 C 
ATOM     10  C   UNL d   1      27.523 -15.198  -4.700  0.00  0.00     0.033 C 
ATOM     11  C   UNL d   1      26.211 -15.055  -5.299  0.00  0.00     0.002 C 
ATOM     12  C   UNL d   1      25.149 -14.449  -4.638  0.00  0.00     0.003 C 
ATOM     13  C   UNL d   1      25.515 -13.740  -3.523  0.00  0.00     0.039 C 
ATOM     14  C   UNL d   1      26.913 -13.767  -3.079  0.00  0.00     0.096 C 
BRANCH  14  15
ATOM     15  O   UNL d   1      27.832 -12.666  -2.716  0.00  0.00    -0.349 OA
BRANCH  15  16
ATOM     16  C   UNL d   1      27.926 -11.238  -2.041  0.00  0.00     0.171 C 
ATOM     17  C   UNL d   1      27.631 -10.409  -0.456  0.00  0.00     0.034 C 
ENDBRANCH  15  16
ENDBRANCH  14  15
ENDBRANCH   1   9
BRANCH   6  18
ATOM     18  C   UNL d   1      29.549 -14.959   1.311  0.00  0.00     0.142 C 
BRANCH  18  19
ATOM     19  C   UNL d   1      28.162 -14.769   1.907  0.00  0.00     0.057 C 
BRANCH  19  20
ATOM     20  C   UNL d   1      27.928 -13.538   2.763  0.00  0.00    -0.048 C 
ATOM     21  C   UNL d   1      28.273 -13.578   4.050  0.00  0.00    -0.006 C 
ATOM     22  C   UNL d   1      28.842 -14.641   4.792  0.00  0.00     0.014 C 
ATOM     23  C   UNL d   1      27.859 -12.316   4.666  0.00  0.00     0.038 C 
ATOM     24  C   UNL d   1      28.820 -14.558   6.123  0.00  0.00     0.001 C 
ATOM     25  C   UNL d   1      28.437 -13.323   6.788  0.00  0.00     0.002 C 
ATOM     26  C   UNL d   1      27.997 -12.221   6.138  0.00  0.00     0.030 C 
ATOM     27  N   UNL d   1      27.408 -11.502   3.785  0.00  0.00    -0.385 N 
ATOM     28  C   UNL d   1      27.274 -12.211   2.456  0.00  0.00     0.155 C 
ATOM     29  H   UNL d   1      27.196 -10.529   4.011  0.00  0.00     0.160 HD
ENDBRANCH  19  20
ENDBRANCH  18  19
ENDBRANCH   6  18
BRANCH   4  30
ATOM     30  C   UNL d   1      25.010 -17.045  -0.278  0.00  0.00     0.103 C 
ATOM     31  C   UNL d   1      25.048 -18.413  -0.345  0.00  0.00     0.001 C 
ATOM     32  C   UNL d   1      23.848 -19.109  -0.146  0.00  0.00     0.027 C 
ATOM     33  C   UNL d   1      22.664 -18.357   0.047  0.00  0.00     0.034 C 
ATOM     34  C   UNL d   1      22.550 -17.105  -0.359  0.00  0.00     0.027 C 
ATOM     35  C   UNL d   1      23.718 -16.425  -0.519  0.00  0.00     0.001 C 
BRANCH  33  36
ATOM     36  N   UNL d   1      21.582 -18.949   0.728  0.00  0.00    -0.328 N 
ATOM     37  C   UNL d   1      20.416 -19.371   0.190  0.00  0.00     0.218 C 
ATOM     38  C   UNL d   1      20.006 -19.326  -1.271  0.00  0.00     0.117 C 
ATOM     39  O   UNL d   1      19.575 -19.862   1.023  0.00  0.00    -0.274 OA
ATOM     40  H   UNL d   1      21.633 -18.935   1.726  0.00  0.00     0.169 HD
ENDBRANCH  33  36
ENDBRANCH   4  30
TORSDOF 8
ENDMDL
MODEL 5
REMARK VINA RESULT:   -10.523      4.766      7.947
REMARK INTER + INTRA:         -15.172
REMARK INTER:                 -12.909
REMARK INTRA:                  -2.263
REMARK CONF_INDEPENDENT:        2.386
REMARK UNBOUND:                -2.263
REMARK  8 active torsions:
REMARK  status: ('A' for Active; 'I' for Inactive)
REMARK    1  A    between atoms: C_2  and  O_3 
REMARK    2  A    between atoms: O_3  and  C_4 
REMARK    3  A    between atoms: C_9  and  N_10 
REMARK       I    between atoms: N_10  and  C_11 
REMARK       I    between atoms: C_11  and  N_12 
REMARK       I    between atoms: C_11  and  N_25 
REMARK       I    between atoms: N_12  and  C_13 
REMARK    4  A    between atoms: C_13  and  C_15 
REMARK    5  A    between atoms: C_18  and  N_19 
REMARK       I    between atoms: N_19  and  C_20 
REMARK    6  A    between atoms: N_25  and  C_26 
REMARK    7  A    between atoms: C_26  and  C_27 
REMARK    8  A    between atoms: C_27  and  C_28 
ROOT
ATOM      1  N   UNL d   1      30.021 -15.686   0.633  0.00  0.00    -0.187 N 
ATOM      2  C   UNL d   1      29.534 -16.729  -0.356  0.00  0.00     0.704 C 
ATOM      3  N   UNL d   1      28.299 -16.911  -0.966  0.00  0.00    -0.027 NA
ATOM      4  C   UNL d   1      26.852 -16.793  -0.428  0.00  0.00     0.278 C 
ATOM      5  O   UNL d   1      26.340 -16.881   0.724  0.00  0.00    -0.269 OA
ATOM      6  N   UNL d   1      30.623 -17.781  -0.472  0.00  0.00    -0.224 N 
ATOM      7  H   UNL d   1      30.787 -15.925   1.263  0.00  0.00     0.184 HD
ATOM      8  H   UNL d   1      31.353 -17.729   0.242  0.00  0.00     0.177 HD
ENDROOT
BRANCH   1   9
ATOM      9  C   UNL d   1      29.065 -14.898   1.352  0.00  0.00     0.082 C 
ATOM     10  C   UNL d   1      27.848 -14.303   1.062  0.00  0.00     0.033 C 
ATOM     11  C   UNL d   1      27.024 -13.720   2.102  0.00  0.00     0.002 C 
ATOM     12  C   UNL d   1      27.393 -13.732   3.442  0.00  0.00     0.003 C 
ATOM     13  C   UNL d   1      28.709 -14.055   3.658  0.00  0.00     0.039 C 
ATOM     14  C   UNL d   1      29.548 -14.449   2.522  0.00  0.00     0.096 C 
BRANCH  14  15
ATOM     15  O   UNL d   1      30.889 -13.982   2.105  0.00  0.00    -0.349 OA
BRANCH  15  16
ATOM     16  C   UNL d   1      32.434 -14.037   2.444  0.00  0.00     0.171 C 
ATOM     17  C   UNL d   1      33.763 -15.228   2.765  0.00  0.00     0.034 C 
ENDBRANCH  15  16
ENDBRANCH  14  15
ENDBRANCH   1   9
BRANCH   6  18
ATOM     18  C   UNL d   1      30.449 -19.214  -0.895  0.00  0.00     0.142 C 
BRANCH  18  19
ATOM     19  C   UNL d   1      31.226 -20.274  -0.126  0.00  0.00     0.057 C 
BRANCH  19  20
ATOM     20  C   UNL d   1      30.599 -21.650  -0.001  0.00  0.00    -0.048 C 
ATOM     21  C   UNL d   1      30.661 -22.479  -1.044  0.00  0.00    -0.006 C 
ATOM     22  C   UNL d   1      31.239 -22.273  -2.320  0.00  0.00     0.014 C 
ATOM     23  C   UNL d   1      29.907 -23.687  -0.703  0.00  0.00     0.038 C 
ATOM     24  C   UNL d   1      30.918 -23.121  -3.297  0.00  0.00     0.001 C 
ATOM     25  C   UNL d   1      30.188 -24.346  -3.013  0.00  0.00     0.002 C 
ATOM     26  C   UNL d   1      29.707 -24.672  -1.792  0.00  0.00     0.030 C 
ATOM     27  N   UNL d   1      29.517 -23.655   0.518  0.00  0.00    -0.385 N 
ATOM     28  C   UNL d   1      29.800 -22.292   1.108  0.00  0.00     0.155 C 
ATOM     29  H   UNL d   1      29.092 -24.468   0.967  0.00  0.00     0.160 HD
ENDBRANCH  19  20
ENDBRANCH  18  19
ENDBRANCH   6  18
BRANCH   4  30
ATOM     30  C   UNL d   1      25.569 -17.296  -0.901  0.00  0.00     0.103 C 
ATOM     31  C   UNL d   1      24.597 -16.336  -0.990  0.00  0.00     0.001 C 
ATOM     32  C   UNL d   1      23.261 -16.757  -0.974  0.00  0.00     0.027 C 
ATOM     33  C   UNL d   1      22.998 -18.138  -0.804  0.00  0.00     0.034 C 
ATOM     34  C   UNL d   1      23.874 -18.960  -0.252  0.00  0.00     0.027 C 
ATOM     35  C   UNL d   1      25.174 -18.559  -0.299  0.00  0.00     0.001 C 
BRANCH  33  36
ATOM     36  N   UNL d   1      21.778 -18.664  -1.270  0.00  0.00    -0.328 N 
ATOM     37  C   UNL d   1      20.782 -19.192  -0.524  0.00  0.00     0.218 C 
ATOM     38  C   UNL d   1      20.734 -19.324   0.988  0.00  0.00     0.117 C 
ATOM     39  O   UNL d   1      19.772 -19.624  -1.185  0.00  0.00    -0.274 OA
ATOM     40  H   UNL d   1      21.699 -18.775  -2.260  0.00  0.00     0.169 HD
ENDBRANCH  33  36
ENDBRANCH   4  30
TORSDOF 8
ENDMDL
MODEL 6
REMARK VINA RESULT:   -10.440      1.755      2.763
REMARK INTER + INTRA:         -15.531
REMARK INTER:                 -12.826
REMARK INTRA:                  -2.705
REMARK CONF_INDEPENDENT:        2.386
REMARK UNBOUND:                -2.705
REMARK  8 active torsions:
REMARK  status: ('A' for Active; 'I' for Inactive)
REMARK    1  A    between atoms: C_2  and  O_3 
REMARK    2  A    between atoms: O_3  and  C_4 
REMARK    3  A    between atoms: C_9  and  N_10 
REMARK       I    between atoms: N_10  and  C_11 
REMARK       I    between atoms: C_11  and  N_12 
REMARK       I    between atoms: C_11  and  N_25 
REMARK       I    between atoms: N_12  and  C_13 
REMARK    4  A    between atoms: C_13  and  C_15 
REMARK    5  A    between atoms: C_18  and  N_19 
REMARK       I    between atoms: N_19  and  C_20 
REMARK    6  A    between atoms: N_25  and  C_26 
REMARK    7  A    between atoms: C_26  and  C_27 
REMARK    8  A    between atoms: C_27  and  C_28 
ROOT
ATOM      1  N   UNL d   1      28.661 -14.809  -3.085  0.00  0.00    -0.187 N 
ATOM      2  C   UNL d   1      28.569 -15.769  -1.912  0.00  0.00     0.704 C 
ATOM      3  N   UNL d   1      27.527 -16.569  -1.460  0.00  0.00    -0.027 NA
ATOM      4  C   UNL d   1      26.006 -16.311  -1.326  0.00  0.00     0.278 C 
ATOM      5  O   UNL d   1      25.307 -15.265  -1.205  0.00  0.00    -0.269 OA
ATOM      6  N   UNL d   1      29.831 -15.591  -1.086  0.00  0.00    -0.224 N 
ATOM      7  H   UNL d   1      29.322 -14.033  -3.034  0.00  0.00     0.184 HD
ATOM      8  H   UNL d   1      30.388 -14.766  -1.319  0.00  0.00     0.177 HD
ENDROOT
BRANCH   1   9
ATOM      9  C   UNL d   1      27.459 -14.347  -3.711  0.00  0.00     0.082 C 
ATOM     10  C   UNL d   1      26.281 -14.929  -4.153  0.00  0.00     0.033 C 
ATOM     11  C   UNL d   1      25.154 -14.124  -4.582  0.00  0.00     0.002 C 
ATOM     12  C   UNL d   1      25.180 -12.735  -4.567  0.00  0.00     0.003 C 
ATOM     13  C   UNL d   1      26.433 -12.199  -4.411  0.00  0.00     0.039 C 
ATOM     14  C   UNL d   1      27.573 -13.092  -4.175  0.00  0.00     0.096 C 
BRANCH  14  15
ATOM     15  O   UNL d   1      28.898 -13.159  -4.829  0.00  0.00    -0.349 OA
BRANCH  15  16
ATOM     16  C   UNL d   1      29.711 -13.796  -6.028  0.00  0.00     0.171 C 
ATOM     17  C   UNL d   1      29.963 -15.381  -6.873  0.00  0.00     0.034 C 
ENDBRANCH  15  16
ENDBRANCH  14  15
ENDBRANCH   1   9
BRANCH   6  18
ATOM     18  C   UNL d   1      30.002 -15.904   0.375  0.00  0.00     0.142 C 
BRANCH  18  19
ATOM     19  C   UNL d   1      30.192 -14.733   1.328  0.00  0.00     0.057 C 
BRANCH  19  20
ATOM     20  C   UNL d   1      28.961 -14.195   2.034  0.00  0.00    -0.048 C 
ATOM     21  C   UNL d   1      28.977 -14.098   3.364  0.00  0.00    -0.006 C 
ATOM     22  C   UNL d   1      30.006 -14.440   4.275  0.00  0.00     0.014 C 
ATOM     23  C   UNL d   1      27.653 -13.651   3.797  0.00  0.00     0.038 C 
ATOM     24  C   UNL d   1      29.689 -14.541   5.566  0.00  0.00     0.001 C 
ATOM     25  C   UNL d   1      28.396 -14.094   6.056  0.00  0.00     0.002 C 
ATOM     26  C   UNL d   1      27.403 -13.639   5.258  0.00  0.00     0.030 C 
ATOM     27  N   UNL d   1      26.912 -13.367   2.790  0.00  0.00    -0.385 N 
ATOM     28  C   UNL d   1      27.602 -13.791   1.514  0.00  0.00     0.155 C 
ATOM     29  H   UNL d   1      26.003 -12.916   2.903  0.00  0.00     0.160 HD
ENDBRANCH  19  20
ENDBRANCH  18  19
ENDBRANCH   6  18
BRANCH   4  30
ATOM     30  C   UNL d   1      24.951 -16.956  -0.557  0.00  0.00     0.103 C 
ATOM     31  C   UNL d   1      25.073 -18.318  -0.484  0.00  0.00     0.001 C 
ATOM     32  C   UNL d   1      23.922 -19.062  -0.194  0.00  0.00     0.027 C 
ATOM     33  C   UNL d   1      22.695 -18.368  -0.058  0.00  0.00     0.034 C 
ATOM     34  C   UNL d   1      22.499 -17.173  -0.588  0.00  0.00     0.027 C 
ATOM     35  C   UNL d   1      23.620 -16.443  -0.838  0.00  0.00     0.001 C 
BRANCH  33  36
ATOM     36  N   UNL d   1      21.660 -18.951   0.698  0.00  0.00    -0.328 N 
ATOM     37  C   UNL d   1      20.457 -19.366   0.245  0.00  0.00     0.218 C 
ATOM     38  C   UNL d   1      19.946 -19.323  -1.184  0.00  0.00     0.117 C 
ATOM     39  O   UNL d   1      19.673 -19.850   1.137  0.00  0.00    -0.274 OA
ATOM     40  H   UNL d   1      21.781 -18.935   1.691  0.00  0.00     0.169 HD
ENDBRANCH  33  36
ENDBRANCH   4  30
TORSDOF 8
ENDMDL
MODEL 7
REMARK VINA RESULT:   -10.204      2.018      2.392
REMARK INTER + INTRA:         -15.277
REMARK INTER:                 -12.591
REMARK INTRA:                  -2.687
REMARK CONF_INDEPENDENT:        2.386
REMARK UNBOUND:                -2.687
REMARK  8 active torsions:
REMARK  status: ('A' for Active; 'I' for Inactive)
REMARK    1  A    between atoms: C_2  and  O_3 
REMARK    2  A    between atoms: O_3  and  C_4 
REMARK    3  A    between atoms: C_9  and  N_10 
REMARK       I    between atoms: N_10  and  C_11 
REMARK       I    between atoms: C_11  and  N_12 
REMARK       I    between atoms: C_11  and  N_25 
REMARK       I    between atoms: N_12  and  C_13 
REMARK    4  A    between atoms: C_13  and  C_15 
REMARK    5  A    between atoms: C_18  and  N_19 
REMARK       I    between atoms: N_19  and  C_20 
REMARK    6  A    between atoms: N_25  and  C_26 
REMARK    7  A    between atoms: C_26  and  C_27 
REMARK    8  A    between atoms: C_27  and  C_28 
ROOT
ATOM      1  N   UNL d   1      29.430 -15.062  -0.378  0.00  0.00    -0.187 N 
ATOM      2  C   UNL d   1      28.130 -15.210   0.392  0.00  0.00     0.704 C 
ATOM      3  N   UNL d   1      27.031 -16.033   0.187  0.00  0.00    -0.027 NA
ATOM      4  C   UNL d   1      26.279 -16.457  -1.098  0.00  0.00     0.278 C 
ATOM      5  O   UNL d   1      26.155 -15.941  -2.245  0.00  0.00    -0.269 OA
ATOM      6  N   UNL d   1      28.088 -14.092   1.419  0.00  0.00    -0.224 N 
ATOM      7  H   UNL d   1      29.926 -14.171  -0.340  0.00  0.00     0.184 HD
ATOM      8  H   UNL d   1      28.785 -13.355   1.287  0.00  0.00     0.177 HD
ENDROOT
BRANCH   1   9
ATOM      9  C   UNL d   1      29.522 -15.582  -1.709  0.00  0.00     0.082 C 
ATOM     10  C   UNL d   1      30.113 -16.684  -2.308  0.00  0.00     0.033 C 
ATOM     11  C   UNL d   1      29.845 -17.027  -3.691  0.00  0.00     0.002 C 
ATOM     12  C   UNL d   1      28.982 -16.288  -4.490  0.00  0.00     0.003 C 
ATOM     13  C   UNL d   1      28.650 -15.062  -3.973  0.00  0.00     0.039 C 
ATOM     14  C   UNL d   1      29.124 -14.694  -2.635  0.00  0.00     0.096 C 
BRANCH  14  15
ATOM     15  O   UNL d   1      29.804 -13.471  -2.153  0.00  0.00    -0.349 OA
BRANCH  15  16
ATOM     16  C   UNL d   1      29.592 -12.084  -1.423  0.00  0.00     0.171 C 
ATOM     17  C   UNL d   1      28.374 -11.196  -0.414  0.00  0.00     0.034 C 
ENDBRANCH  15  16
ENDBRANCH  14  15
ENDBRANCH   1   9
BRANCH   6  18
ATOM     18  C   UNL d   1      26.860 -13.499   2.054  0.00  0.00     0.142 C 
BRANCH  18  19
ATOM     19  C   UNL d   1      27.029 -12.800   3.396  0.00  0.00     0.057 C 
BRANCH  19  20
ATOM     20  C   UNL d   1      27.623 -13.606   4.537  0.00  0.00    -0.048 C 
ATOM     21  C   UNL d   1      27.960 -12.972   5.660  0.00  0.00    -0.006 C 
ATOM     22  C   UNL d   1      27.859 -11.596   5.977  0.00  0.00     0.014 C 
ATOM     23  C   UNL d   1      28.591 -13.945   6.553  0.00  0.00     0.038 C 
ATOM     24  C   UNL d   1      28.533 -11.147   7.036  0.00  0.00     0.001 C 
ATOM     25  C   UNL d   1      29.162 -12.068   7.967  0.00  0.00     0.002 C 
ATOM     26  C   UNL d   1      29.196 -13.410   7.795  0.00  0.00     0.030 C 
ATOM     27  N   UNL d   1      28.527 -15.128   6.061  0.00  0.00    -0.385 N 
ATOM     28  C   UNL d   1      28.005 -15.063   4.644  0.00  0.00     0.155 C 
ATOM     29  H   UNL d   1      28.797 -15.950   6.604  0.00  0.00     0.160 HD
ENDBRANCH  19  20
ENDBRANCH  18  19
ENDBRANCH   6  18
BRANCH   4  30
ATOM     30  C   UNL d   1      24.954 -17.011  -1.341  0.00  0.00     0.103 C 
ATOM     31  C   UNL d   1      23.936 -16.116  -1.146  0.00  0.00     0.001 C 
ATOM     32  C   UNL d   1      22.656 -16.627  -0.895  0.00  0.00     0.027 C 
ATOM     33  C   UNL d   1      22.507 -18.032  -0.794  0.00  0.00     0.034 C 
ATOM     34  C   UNL d   1      23.520 -18.830  -0.507  0.00  0.00     0.027 C 
ATOM     35  C   UNL d   1      24.759 -18.339  -0.783  0.00  0.00     0.001 C 
BRANCH  33  36
ATOM     36  N   UNL d   1      21.245 -18.605  -1.046  0.00  0.00    -0.328 N 
ATOM     37  C   UNL d   1      20.423 -19.188  -0.145  0.00  0.00     0.218 C 
ATOM     38  C   UNL d   1      20.654 -19.345   1.347  0.00  0.00     0.117 C 
ATOM     39  O   UNL d   1      19.329 -19.654  -0.624  0.00  0.00    -0.274 OA
ATOM     40  H   UNL d   1      20.993 -18.704  -2.008  0.00  0.00     0.169 HD
ENDBRANCH  33  36
ENDBRANCH   4  30
TORSDOF 8
ENDMDL
MODEL 8
REMARK VINA RESULT:    -9.804      2.803      8.254
REMARK INTER + INTRA:         -15.922
REMARK INTER:                 -12.191
REMARK INTRA:                  -3.731
REMARK CONF_INDEPENDENT:        2.386
REMARK UNBOUND:                -3.731
REMARK  8 active torsions:
REMARK  status: ('A' for Active; 'I' for Inactive)
REMARK    1  A    between atoms: C_2  and  O_3 
REMARK    2  A    between atoms: O_3  and  C_4 
REMARK    3  A    between atoms: C_9  and  N_10 
REMARK       I    between atoms: N_10  and  C_11 
REMARK       I    between atoms: C_11  and  N_12 
REMARK       I    between atoms: C_11  and  N_25 
REMARK       I    between atoms: N_12  and  C_13 
REMARK    4  A    between atoms: C_13  and  C_15 
REMARK    5  A    between atoms: C_18  and  N_19 
REMARK       I    between atoms: N_19  and  C_20 
REMARK    6  A    between atoms: N_25  and  C_26 
REMARK    7  A    between atoms: C_26  and  C_27 
REMARK    8  A    between atoms: C_27  and  C_28 
ROOT
ATOM      1  N   UNL d   1      29.629 -14.440   1.877  0.00  0.00    -0.187 N 
ATOM      2  C   UNL d   1      29.563 -14.882   0.426  0.00  0.00     0.704 C 
ATOM      3  N   UNL d   1      29.332 -14.168  -0.742  0.00  0.00    -0.027 NA
ATOM      4  C   UNL d   1      28.340 -13.028  -1.080  0.00  0.00     0.278 C 
ATOM      5  O   UNL d   1      27.233 -12.662  -0.591  0.00  0.00    -0.269 OA
ATOM      6  N   UNL d   1      29.598 -16.401   0.418  0.00  0.00    -0.224 N 
ATOM      7  H   UNL d   1      29.408 -15.116   2.608  0.00  0.00     0.184 HD
ATOM      8  H   UNL d   1      29.452 -16.842   1.329  0.00  0.00     0.177 HD
ENDROOT
BRANCH   1   9
ATOM      9  C   UNL d   1      29.087 -13.168   2.249  0.00  0.00     0.082 C 
ATOM     10  C   UNL d   1      29.603 -11.936   2.618  0.00  0.00     0.033 C 
ATOM     11  C   UNL d   1      28.754 -10.768   2.750  0.00  0.00     0.002 C 
ATOM     12  C   UNL d   1      27.386 -10.809   2.507  0.00  0.00     0.003 C 
ATOM     13  C   UNL d   1      26.866 -12.076   2.435  0.00  0.00     0.039 C 
ATOM     14  C   UNL d   1      27.770 -13.229   2.508  0.00  0.00     0.096 C 
BRANCH  14  15
ATOM     15  O   UNL d   1      27.709 -14.453   3.337  0.00  0.00    -0.349 OA
BRANCH  15  16
ATOM     16  C   UNL d   1      28.099 -15.080   4.736  0.00  0.00     0.171 C 
ATOM     17  C   UNL d   1      29.055 -14.702   6.230  0.00  0.00     0.034 C 
ENDBRANCH  15  16
ENDBRANCH  14  15
ENDBRANCH   1   9
BRANCH   6  18
ATOM     18  C   UNL d   1      29.067 -17.307  -0.658  0.00  0.00     0.142 C 
BRANCH  18  19
ATOM     19  C   UNL d   1      27.644 -17.825  -0.505  0.00  0.00     0.057 C 
BRANCH  19  20
ATOM     20  C   UNL d   1      26.512 -16.886  -0.877  0.00  0.00    -0.048 C 
ATOM     21  C   UNL d   1      25.272 -17.196  -0.497  0.00  0.00    -0.006 C 
ATOM     22  C   UNL d   1      24.812 -18.321   0.228  0.00  0.00     0.014 C 
ATOM     23  C   UNL d   1      24.366 -16.192  -1.059  0.00  0.00     0.038 C 
ATOM     24  C   UNL d   1      23.502 -18.572   0.230  0.00  0.00     0.001 C 
ATOM     25  C   UNL d   1      22.555 -17.603  -0.296  0.00  0.00     0.002 C 
ATOM     26  C   UNL d   1      22.915 -16.445  -0.897  0.00  0.00     0.030 C 
ATOM     27  N   UNL d   1      25.022 -15.255  -1.638  0.00  0.00    -0.385 N 
ATOM     28  C   UNL d   1      26.485 -15.626  -1.710  0.00  0.00     0.155 C 
ATOM     29  H   UNL d   1      24.563 -14.406  -1.971  0.00  0.00     0.160 HD
ENDBRANCH  19  20
ENDBRANCH  18  19
ENDBRANCH   6  18
BRANCH   4  30
ATOM     30  C   UNL d   1      27.820 -12.498  -2.333  0.00  0.00     0.103 C 
ATOM     31  C   UNL d   1      26.659 -11.786  -2.192  0.00  0.00     0.001 C 
ATOM     32  C   UNL d   1      25.843 -11.638  -3.322  0.00  0.00     0.027 C 
ATOM     33  C   UNL d   1      26.237 -12.284  -4.519  0.00  0.00     0.034 C 
ATOM     34  C   UNL d   1      27.056 -13.322  -4.523  0.00  0.00     0.027 C 
ATOM     35  C   UNL d   1      27.867 -13.442  -3.437  0.00  0.00     0.001 C 
BRANCH  33  36
ATOM     36  N   UNL d   1      25.772 -11.785  -5.750  0.00  0.00    -0.328 N 
ATOM     37  C   UNL d   1      26.497 -11.143  -6.693  0.00  0.00     0.218 C 
ATOM     38  C   UNL d   1      27.982 -10.828  -6.658  0.00  0.00     0.117 C 
ATOM     39  O   UNL d   1      25.839 -10.765  -7.727  0.00  0.00    -0.274 OA
ATOM     40  H   UNL d   1      24.780 -11.792  -5.879  0.00  0.00     0.169 HD
ENDBRANCH  33  36
ENDBRANCH   4  30
TORSDOF 8
ENDMDL
MODEL 9
REMARK VINA RESULT:    -8.854      2.927      5.745
REMARK INTER + INTRA:         -16.040
REMARK INTER:                 -11.240
REMARK INTRA:                  -4.799
REMARK CONF_INDEPENDENT:        2.386
REMARK UNBOUND:                -4.799
REMARK  8 active torsions:
REMARK  status: ('A' for Active; 'I' for Inactive)
REMARK    1  A    between atoms: C_2  and  O_3 
REMARK    2  A    between atoms: O_3  and  C_4 
REMARK    3  A    between atoms: C_9  and  N_10 
REMARK       I    between atoms: N_10  and  C_11 
REMARK       I    between atoms: C_11  and  N_12 
REMARK       I    between atoms: C_11  and  N_25 
REMARK       I    between atoms: N_12  and  C_13 
REMARK    4  A    between atoms: C_13  and  C_15 
REMARK    5  A    between atoms: C_18  and  N_19 
REMARK       I    between atoms: N_19  and  C_20 
REMARK    6  A    between atoms: N_25  and  C_26 
REMARK    7  A    between atoms: C_26  and  C_27 
REMARK    8  A    between atoms: C_27  and  C_28 
ROOT
ATOM      1  N   UNL d   1      30.082 -15.475   0.720  0.00  0.00    -0.187 N 
ATOM      2  C   UNL d   1      28.607 -15.249   0.998  0.00  0.00     0.704 C 
ATOM      3  N   UNL d   1      27.492 -16.036   0.738  0.00  0.00    -0.027 NA
ATOM      4  C   UNL d   1      27.096 -16.899  -0.484  0.00  0.00     0.278 C 
ATOM      5  O   UNL d   1      27.410 -16.873  -1.709  0.00  0.00    -0.269 OA
ATOM      6  N   UNL d   1      28.455 -13.816   1.477  0.00  0.00    -0.224 N 
ATOM      7  H   UNL d   1      30.690 -14.664   0.604  0.00  0.00     0.184 HD
ATOM      8  H   UNL d   1      29.276 -13.223   1.337  0.00  0.00     0.177 HD
ENDROOT
BRANCH   1   9
ATOM      9  C   UNL d   1      30.474 -16.481  -0.220  0.00  0.00     0.082 C 
ATOM     10  C   UNL d   1      31.012 -17.757  -0.145  0.00  0.00     0.033 C 
ATOM     11  C   UNL d   1      31.114 -18.604  -1.317  0.00  0.00     0.002 C 
ATOM     12  C   UNL d   1      30.675 -18.200  -2.572  0.00  0.00     0.003 C 
ATOM     13  C   UNL d   1      30.426 -16.855  -2.673  0.00  0.00     0.039 C 
ATOM     14  C   UNL d   1      30.534 -16.012  -1.477  0.00  0.00     0.096 C 
BRANCH  14  15
ATOM     15  O   UNL d   1      31.245 -14.732  -1.260  0.00  0.00    -0.349 OA
BRANCH  15  16
ATOM     16  C   UNL d   1      32.283 -13.715  -1.883  0.00  0.00     0.171 C 
ATOM     17  C   UNL d   1      32.468 -12.570  -3.278  0.00  0.00     0.034 C 
ENDBRANCH  15  16
ENDBRANCH  14  15
ENDBRANCH   1   9
BRANCH   6  18
ATOM     18  C   UNL d   1      27.216 -12.967   1.398  0.00  0.00     0.142 C 
BRANCH  18  19
ATOM     19  C   UNL d   1      26.655 -12.667   0.015  0.00  0.00     0.057 C 
BRANCH  19  20
ATOM     20  C   UNL d   1      27.511 -13.033  -1.183  0.00  0.00    -0.048 C 
ATOM     21  C   UNL d   1      26.909 -13.478  -2.287  0.00  0.00    -0.006 C 
ATOM     22  C   UNL d   1      25.531 -13.684  -2.536  0.00  0.00     0.014 C 
ATOM     23  C   UNL d   1      27.950 -13.848  -3.247  0.00  0.00     0.038 C 
ATOM     24  C   UNL d   1      25.188 -14.415  -3.596  0.00  0.00     0.001 C 
ATOM     25  C   UNL d   1      26.176 -14.794  -4.592  0.00  0.00     0.002 C 
ATOM     26  C   UNL d   1      27.498 -14.528  -4.485  0.00  0.00     0.030 C 
ATOM     27  N   UNL d   1      29.112 -13.530  -2.810  0.00  0.00    -0.385 N 
ATOM     28  C   UNL d   1      29.008 -13.073  -1.373  0.00  0.00     0.155 C 
ATOM     29  H   UNL d   1      29.943 -13.593  -3.400  0.00  0.00     0.160 HD
ENDBRANCH  19  20
ENDBRANCH  18  19
ENDBRANCH   6  18
BRANCH   4  30
ATOM     30  C   UNL d   1      25.828 -17.444  -0.950  0.00  0.00     0.103 C 
ATOM     31  C   UNL d   1      24.898 -16.490  -1.266  0.00  0.00     0.001 C 
ATOM     32  C   UNL d   1      23.550 -16.869  -1.270  0.00  0.00     0.027 C 
ATOM     33  C   UNL d   1      23.227 -18.193  -0.886  0.00  0.00     0.034 C 
ATOM     34  C   UNL d   1      24.037 -18.929  -0.145  0.00  0.00     0.027 C 
ATOM     35  C   UNL d   1      25.351 -18.575  -0.171  0.00  0.00     0.001 C 
BRANCH  33  36
ATOM     36  N   UNL d   1      22.020 -18.761  -1.337  0.00  0.00    -0.328 N 
ATOM     37  C   UNL d   1      21.025 -19.267  -0.576  0.00  0.00     0.218 C 
ATOM     38  C   UNL d   1      20.963 -19.325   0.940  0.00  0.00     0.117 C 
ATOM     39  O   UNL d   1      20.029 -19.748  -1.225  0.00  0.00    -0.274 OA
ATOM     40  H   UNL d   1      21.954 -18.922  -2.322  0.00  0.00     0.169 HD
ENDBRANCH  33  36
ENDBRANCH   4  30
TORSDOF 8
ENDMDL
