MODEL 1
REMARK VINA RESULT:    -9.878      0.000      0.000
REMARK INTER + INTRA:         -12.172
REMARK INTER:                 -11.370
REMARK INTRA:                  -0.802
REMARK CONF_INDEPENDENT:        1.492
REMARK UNBOUND:                -0.802
REMARK  5 active torsions:
REMARK  status: ('A' for Active; 'I' for Inactive)
REMARK    1  A    between atoms: C_2  and  O_4 
REMARK    2  A    between atoms: O_4  and  C_5 
REMARK    3  A    between atoms: C_8  and  N_9 
REMARK    4  A    between atoms: N_9  and  C_10 
REMARK    5  A    between atoms: C_13  and  C_14 
ROOT
ATOM      1  C   UNL d   1      25.668 -15.978  -1.296  0.00  0.00     0.161 C 
ATOM      2  N   UNL d   1      25.185 -16.003  -2.523  0.00  0.00    -0.257 N 
ATOM      3  N   UNL d   1      25.509 -15.236  -3.667  0.00  0.00    -0.176 NA
ATOM      4  C   UNL d   1      26.410 -14.320  -3.476  0.00  0.00     0.074 C 
ATOM      5  C   UNL d   1      27.211 -14.038  -2.220  0.00  0.00     0.144 C 
ATOM      6  S   UNL d   1      27.019 -15.068  -0.821  0.00  0.00    -0.086 SA
ATOM      7  H   UNL d   1      24.406 -16.651  -2.618  0.00  0.00     0.191 HD
ENDROOT
BRANCH   1   8
ATOM      8  N   UNL d   1      24.934 -16.668  -0.295  0.00  0.00    -0.336 N 
ATOM      9  H   UNL d   1      24.801 -16.101   0.536  0.00  0.00     0.168 HD
BRANCH   8  10
ATOM     10  C   UNL d   1      23.806 -17.468  -0.604  0.00  0.00     0.034 C 
ATOM     11  C   UNL d   1      22.572 -16.918  -0.934  0.00  0.00     0.032 C 
ATOM     12  C   UNL d   1      21.405 -17.714  -0.895  0.00  0.00     0.039 C 
ATOM     13  C   UNL d   1      21.482 -19.092  -0.673  0.00  0.00     0.069 C 
ATOM     14  C   UNL d   1      22.740 -19.637  -0.520  0.00  0.00     0.039 C 
ATOM     15  C   UNL d   1      23.861 -18.844  -0.395  0.00  0.00     0.032 C 
BRANCH  13  16
ATOM     16  O   UNL d   1      20.356 -19.857  -0.781  0.00  0.00    -0.347 OA
BRANCH  16  17
ATOM     17  C   UNL d   1      19.866 -20.536   0.400  0.00  0.00     0.120 C 
ATOM     18  C   UNL d   1      20.081 -19.590   1.585  0.00  0.00     0.040 C 
ATOM     19  C   UNL d   1      18.376 -20.889   0.426  0.00  0.00     0.040 C 
ENDBRANCH  16  17
ENDBRANCH  13  16
ENDBRANCH   8  10
ENDBRANCH   1   8
BRANCH   4  20
ATOM     20  C   UNL d   1      26.937 -13.540  -4.618  0.00  0.00    -0.007 C 
ATOM     21  C   UNL d   1      26.501 -12.448  -5.364  0.00  0.00     0.016 C 
ATOM     22  C   UNL d   1      27.315 -11.992  -6.547  0.00  0.00     0.039 C 
ATOM     23  C   UNL d   1      28.544 -12.669  -6.901  0.00  0.00     0.090 C 
ATOM     24  C   UNL d   1      28.562 -13.842  -6.256  0.00  0.00     0.049 C 
ATOM     25  O   UNL d   1      29.709 -12.733  -7.819  0.00  0.00    -0.341 OA
ATOM     26  C   UNL d   1      28.032 -14.190  -5.073  0.00  0.00     0.040 C 
ATOM     27  N   UNL d   1      28.949 -14.895  -7.050  0.00  0.00    -0.225 NA
ATOM     28  C   UNL d   1      30.274 -15.036  -6.707  0.00  0.00     0.226 C 
ATOM     29  H   UNL d   1      28.905 -14.483  -8.000  0.00  0.00     0.136 HD
ATOM     30  O   UNL d   1      30.712 -15.639  -5.781  0.00  0.00    -0.277 OA
ATOM     31  C   UNL d   1      30.859 -14.042  -7.674  0.00  0.00     0.272 C 
ENDBRANCH   4  20
TORSDOF 5
ENDMDL
MODEL 2
REMARK VINA RESULT:    -9.704      1.790      2.765
REMARK INTER + INTRA:         -11.908
REMARK INTER:                 -11.196
REMARK INTRA:                  -0.712
REMARK CONF_INDEPENDENT:        1.492
REMARK UNBOUND:                -0.712
REMARK  5 active torsions:
REMARK  status: ('A' for Active; 'I' for Inactive)
REMARK    1  A    between atoms: C_2  and  O_4 
REMARK    2  A    between atoms: O_4  and  C_5 
REMARK    3  A    between atoms: C_8  and  N_9 
REMARK    4  A    between atoms: N_9  and  C_10 
REMARK    5  A    between atoms: C_13  and  C_14 
ROOT
ATOM      1  C   UNL d   1      26.281 -15.992  -1.707  0.00  0.00     0.161 C 
ATOM      2  N   UNL d   1      27.543 -16.115  -2.070  0.00  0.00    -0.257 N 
ATOM      3  N   UNL d   1      28.214 -15.726  -3.254  0.00  0.00    -0.176 NA
ATOM      4  C   UNL d   1      27.456 -15.190  -4.163  0.00  0.00     0.074 C 
ATOM      5  C   UNL d   1      25.982 -14.851  -4.075  0.00  0.00     0.144 C 
ATOM      6  S   UNL d   1      25.120 -15.112  -2.576  0.00  0.00    -0.086 SA
ATOM      7  H   UNL d   1      28.092 -16.635  -1.388  0.00  0.00     0.191 HD
ENDROOT
BRANCH   1   8
ATOM      8  N   UNL d   1      25.854 -16.745  -0.582  0.00  0.00    -0.336 N 
ATOM      9  H   UNL d   1      26.202 -16.356   0.289  0.00  0.00     0.168 HD
BRANCH   8  10
ATOM     10  C   UNL d   1      24.537 -17.255  -0.472  0.00  0.00     0.034 C 
ATOM     11  C   UNL d   1      24.260 -18.617  -0.519  0.00  0.00     0.032 C 
ATOM     12  C   UNL d   1      22.942 -19.069  -0.754  0.00  0.00     0.039 C 
ATOM     13  C   UNL d   1      21.872 -18.171  -0.795  0.00  0.00     0.069 C 
ATOM     14  C   UNL d   1      22.156 -16.840  -0.573  0.00  0.00     0.039 C 
ATOM     15  C   UNL d   1      23.454 -16.379  -0.506  0.00  0.00     0.032 C 
BRANCH  13  16
ATOM     16  O   UNL d   1      20.594 -18.646  -0.882  0.00  0.00    -0.347 OA
BRANCH  16  17
ATOM     17  C   UNL d   1      20.215 -19.767  -0.048  0.00  0.00     0.120 C 
ATOM     18  C   UNL d   1      20.394 -19.325   1.407  0.00  0.00     0.040 C 
ATOM     19  C   UNL d   1      18.764 -20.247  -0.153  0.00  0.00     0.040 C 
ENDBRANCH  16  17
ENDBRANCH  13  16
ENDBRANCH   8  10
ENDBRANCH   1   8
BRANCH   4  20
ATOM     20  C   UNL d   1      28.053 -14.617  -5.390  0.00  0.00    -0.007 C 
ATOM     21  C   UNL d   1      29.207 -14.846  -6.137  0.00  0.00     0.016 C 
ATOM     22  C   UNL d   1      29.508 -13.958  -7.317  0.00  0.00     0.039 C 
ATOM     23  C   UNL d   1      28.605 -12.887  -7.681  0.00  0.00     0.090 C 
ATOM     24  C   UNL d   1      27.782 -12.678  -6.647  0.00  0.00     0.049 C 
ATOM     25  O   UNL d   1      28.311 -11.775  -8.620  0.00  0.00    -0.341 OA
ATOM     26  C   UNL d   1      27.317 -13.532  -5.722  0.00  0.00     0.040 C 
ATOM     27  N   UNL d   1      27.609 -11.349  -6.347  0.00  0.00    -0.225 NA
ATOM     28  C   UNL d   1      26.410 -11.072  -6.961  0.00  0.00     0.226 C 
ATOM     29  H   UNL d   1      28.364 -10.898  -6.897  0.00  0.00     0.136 HD
ATOM     30  O   UNL d   1      25.322 -11.260  -6.521  0.00  0.00    -0.277 OA
ATOM     31  C   UNL d   1      26.937 -10.734  -8.330  0.00  0.00     0.272 C 
ENDBRANCH   4  20
TORSDOF 5
ENDMDL
MODEL 3
REMARK VINA RESULT:    -9.567      2.994      4.010
REMARK INTER + INTRA:         -12.004
REMARK INTER:                 -11.059
REMARK INTRA:                  -0.945
REMARK CONF_INDEPENDENT:        1.492
REMARK UNBOUND:                -0.945
REMARK  5 active torsions:
REMARK  status: ('A' for Active; 'I' for Inactive)
REMARK    1  A    between atoms: C_2  and  O_4 
REMARK    2  A    between atoms: O_4  and  C_5 
REMARK    3  A    between atoms: C_8  and  N_9 
REMARK    4  A    between atoms: N_9  and  C_10 
REMARK    5  A    between atoms: C_13  and  C_14 
ROOT
ATOM      1  C   UNL d   1      25.953 -15.728  -1.766  0.00  0.00     0.161 C 
ATOM      2  N   UNL d   1      25.522 -15.701  -3.012  0.00  0.00    -0.257 N 
ATOM      3  N   UNL d   1      25.396 -14.633  -3.932  0.00  0.00    -0.176 NA
ATOM      4  C   UNL d   1      25.722 -13.466  -3.465  0.00  0.00     0.074 C 
ATOM      5  C   UNL d   1      26.301 -13.128  -2.105  0.00  0.00     0.144 C 
ATOM      6  S   UNL d   1      26.677 -14.411  -0.980  0.00  0.00    -0.086 SA
ATOM      7  H   UNL d   1      25.169 -16.606  -3.319  0.00  0.00     0.191 HD
ENDROOT
BRANCH   1   8
ATOM      8  N   UNL d   1      25.682 -16.899  -1.011  0.00  0.00    -0.336 N 
ATOM      9  H   UNL d   1      26.282 -16.972  -0.196  0.00  0.00     0.168 HD
BRANCH   8  10
ATOM     10  C   UNL d   1      24.361 -17.351  -0.767  0.00  0.00     0.034 C 
ATOM     11  C   UNL d   1      24.064 -18.689  -0.530  0.00  0.00     0.032 C 
ATOM     12  C   UNL d   1      22.734 -19.153  -0.636  0.00  0.00     0.039 C 
ATOM     13  C   UNL d   1      21.676 -18.261  -0.832  0.00  0.00     0.069 C 
ATOM     14  C   UNL d   1      21.985 -16.919  -0.891  0.00  0.00     0.039 C 
ATOM     15  C   UNL d   1      23.291 -16.480  -0.952  0.00  0.00     0.032 C 
BRANCH  13  16
ATOM     16  O   UNL d   1      20.390 -18.720  -0.789  0.00  0.00    -0.347 OA
BRANCH  16  17
ATOM     17  C   UNL d   1      20.096 -19.878   0.028  0.00  0.00     0.120 C 
ATOM     18  C   UNL d   1      20.261 -19.451   1.489  0.00  0.00     0.040 C 
ATOM     19  C   UNL d   1      18.679 -20.452  -0.071  0.00  0.00     0.040 C 
ENDBRANCH  16  17
ENDBRANCH  13  16
ENDBRANCH   8  10
ENDBRANCH   1   8
BRANCH   4  20
ATOM     20  C   UNL d   1      25.766 -12.288  -4.360  0.00  0.00    -0.007 C 
ATOM     21  C   UNL d   1      25.926 -12.083  -5.728  0.00  0.00     0.016 C 
ATOM     22  C   UNL d   1      26.004 -10.674  -6.257  0.00  0.00     0.039 C 
ATOM     23  C   UNL d   1      25.902  -9.544  -5.360  0.00  0.00     0.090 C 
ATOM     24  C   UNL d   1      26.083  -9.996  -4.113  0.00  0.00     0.049 C 
ATOM     25  O   UNL d   1      25.884  -8.066  -5.219  0.00  0.00    -0.341 OA
ATOM     26  C   UNL d   1      25.790 -11.189  -3.572  0.00  0.00     0.040 C 
ATOM     27  N   UNL d   1      26.929  -9.213  -3.366  0.00  0.00    -0.225 NA
ATOM     28  C   UNL d   1      26.043  -8.457  -2.634  0.00  0.00     0.226 C 
ATOM     29  H   UNL d   1      27.357  -8.602  -4.085  0.00  0.00     0.136 HD
ATOM     30  O   UNL d   1      25.512  -8.765  -1.616  0.00  0.00    -0.277 OA
ATOM     31  C   UNL d   1      25.830  -7.346  -3.626  0.00  0.00     0.272 C 
ENDBRANCH   4  20
TORSDOF 5
ENDMDL
MODEL 4
REMARK VINA RESULT:    -9.295      3.999      9.897
REMARK INTER + INTRA:         -11.456
REMARK INTER:                 -10.787
REMARK INTRA:                  -0.669
REMARK CONF_INDEPENDENT:        1.492
REMARK UNBOUND:                -0.669
REMARK  5 active torsions:
REMARK  status: ('A' for Active; 'I' for Inactive)
REMARK    1  A    between atoms: C_2  and  O_4 
REMARK    2  A    between atoms: O_4  and  C_5 
REMARK    3  A    between atoms: C_8  and  N_9 
REMARK    4  A    between atoms: N_9  and  C_10 
REMARK    5  A    between atoms: C_13  and  C_14 
ROOT
ATOM      1  C   UNL d   1      25.620 -12.425  -4.363  0.00  0.00     0.161 C 
ATOM      2  N   UNL d   1      24.688 -13.354  -4.277  0.00  0.00    -0.257 N 
ATOM      3  N   UNL d   1      24.616 -14.533  -3.497  0.00  0.00    -0.176 NA
ATOM      4  C   UNL d   1      25.662 -14.770  -2.764  0.00  0.00     0.074 C 
ATOM      5  C   UNL d   1      26.891 -13.903  -2.575  0.00  0.00     0.144 C 
ATOM      6  S   UNL d   1      26.973 -12.336  -3.344  0.00  0.00    -0.086 SA
ATOM      7  H   UNL d   1      23.930 -13.204  -4.941  0.00  0.00     0.191 HD
ENDROOT
BRANCH   1   8
ATOM      8  N   UNL d   1      25.535 -11.519  -5.453  0.00  0.00    -0.336 N 
ATOM      9  H   UNL d   1      24.882 -11.838  -6.161  0.00  0.00     0.168 HD
BRANCH   8  10
ATOM     10  C   UNL d   1      25.506 -10.115  -5.266  0.00  0.00     0.034 C 
ATOM     11  C   UNL d   1      25.529  -9.532  -4.003  0.00  0.00     0.032 C 
ATOM     12  C   UNL d   1      25.155  -8.180  -3.837  0.00  0.00     0.039 C 
ATOM     13  C   UNL d   1      24.901  -7.364  -4.943  0.00  0.00     0.069 C 
ATOM     14  C   UNL d   1      25.055  -7.927  -6.192  0.00  0.00     0.039 C 
ATOM     15  C   UNL d   1      25.259  -9.281  -6.354  0.00  0.00     0.032 C 
BRANCH  13  16
ATOM     16  O   UNL d   1      24.680  -6.028  -4.760  0.00  0.00    -0.347 OA
BRANCH  16  17
ATOM     17  C   UNL d   1      23.323  -5.532  -4.856  0.00  0.00     0.120 C 
ATOM     18  C   UNL d   1      22.424  -6.736  -5.151  0.00  0.00     0.040 C 
ATOM     19  C   UNL d   1      22.734  -4.883  -3.600  0.00  0.00     0.040 C 
ENDBRANCH  16  17
ENDBRANCH  13  16
ENDBRANCH   8  10
ENDBRANCH   1   8
BRANCH   4  20
ATOM     20  C   UNL d   1      25.660 -15.893  -1.801  0.00  0.00    -0.007 C 
ATOM     21  C   UNL d   1      26.632 -16.681  -1.189  0.00  0.00     0.016 C 
ATOM     22  C   UNL d   1      26.204 -17.824  -0.304  0.00  0.00     0.039 C 
ATOM     23  C   UNL d   1      24.800 -18.095  -0.080  0.00  0.00     0.090 C 
ATOM     24  C   UNL d   1      24.103 -17.431  -1.009  0.00  0.00     0.049 C 
ATOM     25  O   UNL d   1      23.792 -18.945   0.603  0.00  0.00    -0.341 OA
ATOM     26  C   UNL d   1      24.373 -16.274  -1.634  0.00  0.00     0.040 C 
ATOM     27  N   UNL d   1      23.109 -18.183  -1.587  0.00  0.00    -0.225 NA
ATOM     28  C   UNL d   1      21.997 -17.763  -0.895  0.00  0.00     0.226 C 
ATOM     29  H   UNL d   1      23.344 -19.141  -1.269  0.00  0.00     0.136 HD
ATOM     30  O   UNL d   1      21.334 -16.804  -1.124  0.00  0.00    -0.277 OA
ATOM     31  C   UNL d   1      22.091 -18.712   0.269  0.00  0.00     0.272 C 
ENDBRANCH   4  20
TORSDOF 5
ENDMDL
MODEL 5
REMARK VINA RESULT:    -9.261      1.554      2.080
REMARK INTER + INTRA:         -11.595
REMARK INTER:                 -10.752
REMARK INTRA:                  -0.843
REMARK CONF_INDEPENDENT:        1.492
REMARK UNBOUND:                -0.843
REMARK  5 active torsions:
REMARK  status: ('A' for Active; 'I' for Inactive)
REMARK    1  A    between atoms: C_2  and  O_4 
REMARK    2  A    between atoms: O_4  and  C_5 
REMARK    3  A    between atoms: C_8  and  N_9 
REMARK    4  A    between atoms: N_9  and  C_10 
REMARK    5  A    between atoms: C_13  and  C_14 
ROOT
ATOM      1  C   UNL d   1      25.953 -15.676  -1.646  0.00  0.00     0.161 C 
ATOM      2  N   UNL d   1      27.195 -16.065  -1.857  0.00  0.00    -0.257 N 
ATOM      3  N   UNL d   1      28.051 -15.884  -2.970  0.00  0.00    -0.176 NA
ATOM      4  C   UNL d   1      27.516 -15.263  -3.978  0.00  0.00     0.074 C 
ATOM      5  C   UNL d   1      26.139 -14.636  -4.071  0.00  0.00     0.144 C 
ATOM      6  S   UNL d   1      25.090 -14.637  -2.672  0.00  0.00    -0.086 SA
ATOM      7  H   UNL d   1      27.554 -16.643  -1.100  0.00  0.00     0.191 HD
ENDROOT
BRANCH   1   8
ATOM      8  N   UNL d   1      25.267 -16.264  -0.551  0.00  0.00    -0.336 N 
ATOM      9  H   UNL d   1      25.120 -15.602   0.205  0.00  0.00     0.168 HD
BRANCH   8  10
ATOM     10  C   UNL d   1      24.174 -17.148  -0.732  0.00  0.00     0.034 C 
ATOM     11  C   UNL d   1      22.875 -16.693  -0.931  0.00  0.00     0.032 C 
ATOM     12  C   UNL d   1      21.780 -17.570  -0.761  0.00  0.00     0.039 C 
ATOM     13  C   UNL d   1      21.981 -18.935  -0.541  0.00  0.00     0.069 C 
ATOM     14  C   UNL d   1      23.284 -19.386  -0.520  0.00  0.00     0.039 C 
ATOM     15  C   UNL d   1      24.351 -18.513  -0.521  0.00  0.00     0.032 C 
BRANCH  13  16
ATOM     16  O   UNL d   1      20.909 -19.781  -0.522  0.00  0.00    -0.347 OA
BRANCH  16  17
ATOM     17  C   UNL d   1      19.865 -19.553   0.454  0.00  0.00     0.120 C 
ATOM     18  C   UNL d   1      18.998 -20.815   0.489  0.00  0.00     0.040 C 
ATOM     19  C   UNL d   1      20.310 -19.325   1.902  0.00  0.00     0.040 C 
ENDBRANCH  16  17
ENDBRANCH  13  16
ENDBRANCH   8  10
ENDBRANCH   1   8
BRANCH   4  20
ATOM     20  C   UNL d   1      28.341 -14.889  -5.148  0.00  0.00    -0.007 C 
ATOM     21  C   UNL d   1      28.249 -13.948  -6.172  0.00  0.00     0.016 C 
ATOM     22  C   UNL d   1      29.289 -13.944  -7.263  0.00  0.00     0.039 C 
ATOM     23  C   UNL d   1      30.378 -14.896  -7.246  0.00  0.00     0.090 C 
ATOM     24  C   UNL d   1      30.061 -15.864  -6.377  0.00  0.00     0.049 C 
ATOM     25  O   UNL d   1      31.611 -15.387  -7.913  0.00  0.00    -0.341 OA
ATOM     26  C   UNL d   1      29.321 -15.815  -5.258  0.00  0.00     0.040 C 
ATOM     27  N   UNL d   1      30.312 -17.128  -6.851  0.00  0.00    -0.225 NA
ATOM     28  C   UNL d   1      31.520 -17.418  -6.260  0.00  0.00     0.226 C 
ATOM     29  H   UNL d   1      30.479 -16.956  -7.859  0.00  0.00     0.136 HD
ATOM     30  O   UNL d   1      31.695 -17.849  -5.167  0.00  0.00    -0.277 OA
ATOM     31  C   UNL d   1      32.424 -16.808  -7.298  0.00  0.00     0.272 C 
ENDBRANCH   4  20
TORSDOF 5
ENDMDL
MODEL 6
REMARK VINA RESULT:    -9.122      5.263      7.314
REMARK INTER + INTRA:         -11.524
REMARK INTER:                 -10.614
REMARK INTRA:                  -0.910
REMARK CONF_INDEPENDENT:        1.492
REMARK UNBOUND:                -0.910
REMARK  5 active torsions:
REMARK  status: ('A' for Active; 'I' for Inactive)
REMARK    1  A    between atoms: C_2  and  O_4 
REMARK    2  A    between atoms: O_4  and  C_5 
REMARK    3  A    between atoms: C_8  and  N_9 
REMARK    4  A    between atoms: N_9  and  C_10 
REMARK    5  A    between atoms: C_13  and  C_14 
ROOT
ATOM      1  C   UNL d   1      26.378 -16.016  -0.630  0.00  0.00     0.161 C 
ATOM      2  N   UNL d   1      26.161 -14.716  -0.601  0.00  0.00    -0.257 N 
ATOM      3  N   UNL d   1      26.596 -13.719   0.305  0.00  0.00    -0.176 NA
ATOM      4  C   UNL d   1      27.299 -14.156   1.306  0.00  0.00     0.074 C 
ATOM      5  C   UNL d   1      27.780 -15.569   1.569  0.00  0.00     0.144 C 
ATOM      6  S   UNL d   1      27.460 -16.826   0.396  0.00  0.00    -0.086 SA
ATOM      7  H   UNL d   1      25.519 -14.414  -1.331  0.00  0.00     0.191 HD
ENDROOT
BRANCH   1   8
ATOM      8  N   UNL d   1      25.564 -16.790  -1.498  0.00  0.00    -0.336 N 
ATOM      9  H   UNL d   1      26.101 -17.494  -1.995  0.00  0.00     0.168 HD
BRANCH   8  10
ATOM     10  C   UNL d   1      24.276 -17.243  -1.119  0.00  0.00     0.034 C 
ATOM     11  C   UNL d   1      23.982 -18.593  -0.950  0.00  0.00     0.032 C 
ATOM     12  C   UNL d   1      22.639 -19.030  -0.917  0.00  0.00     0.039 C 
ATOM     13  C   UNL d   1      21.586 -18.112  -0.901  0.00  0.00     0.069 C 
ATOM     14  C   UNL d   1      21.915 -16.773  -0.895  0.00  0.00     0.039 C 
ATOM     15  C   UNL d   1      23.211 -16.347  -1.092  0.00  0.00     0.032 C 
BRANCH  13  16
ATOM     16  O   UNL d   1      20.306 -18.557  -0.726  0.00  0.00    -0.347 OA
BRANCH  16  17
ATOM     17  C   UNL d   1      20.094 -19.779   0.020  0.00  0.00     0.120 C 
ATOM     18  C   UNL d   1      20.253 -19.433   1.503  0.00  0.00     0.040 C 
ATOM     19  C   UNL d   1      18.714 -20.432  -0.100  0.00  0.00     0.040 C 
ENDBRANCH  16  17
ENDBRANCH  13  16
ENDBRANCH   8  10
ENDBRANCH   1   8
BRANCH   4  20
ATOM     20  C   UNL d   1      27.928 -13.205   2.249  0.00  0.00    -0.007 C 
ATOM     21  C   UNL d   1      28.440 -11.912   2.166  0.00  0.00     0.016 C 
ATOM     22  C   UNL d   1      29.099 -11.303   3.377  0.00  0.00     0.039 C 
ATOM     23  C   UNL d   1      29.190 -12.043   4.617  0.00  0.00     0.090 C 
ATOM     24  C   UNL d   1      28.933 -13.328   4.345  0.00  0.00     0.049 C 
ATOM     25  O   UNL d   1      29.638 -12.046   6.033  0.00  0.00    -0.341 OA
ATOM     26  C   UNL d   1      28.148 -13.875   3.404  0.00  0.00     0.040 C 
ATOM     27  N   UNL d   1      29.809 -14.198   4.946  0.00  0.00    -0.225 NA
ATOM     28  C   UNL d   1      29.092 -14.608   6.046  0.00  0.00     0.226 C 
ATOM     29  H   UNL d   1      30.562 -13.565   5.270  0.00  0.00     0.136 HD
ATOM     30  O   UNL d   1      28.281 -15.476   6.087  0.00  0.00    -0.277 OA
ATOM     31  C   UNL d   1      29.485 -13.503   6.988  0.00  0.00     0.272 C 
ENDBRANCH   4  20
TORSDOF 5
ENDMDL
MODEL 7
REMARK VINA RESULT:    -9.118      5.751      7.693
REMARK INTER + INTRA:         -11.442
REMARK INTER:                 -10.610
REMARK INTRA:                  -0.833
REMARK CONF_INDEPENDENT:        1.492
REMARK UNBOUND:                -0.833
REMARK  5 active torsions:
REMARK  status: ('A' for Active; 'I' for Inactive)
REMARK    1  A    between atoms: C_2  and  O_4 
REMARK    2  A    between atoms: O_4  and  C_5 
REMARK    3  A    between atoms: C_8  and  N_9 
REMARK    4  A    between atoms: N_9  and  C_10 
REMARK    5  A    between atoms: C_13  and  C_14 
ROOT
ATOM      1  C   UNL d   1      26.571 -15.034   0.050  0.00  0.00     0.161 C 
ATOM      2  N   UNL d   1      26.250 -13.773   0.265  0.00  0.00    -0.257 N 
ATOM      3  N   UNL d   1      26.560 -12.902   1.337  0.00  0.00    -0.176 NA
ATOM      4  C   UNL d   1      27.247 -13.441   2.300  0.00  0.00     0.074 C 
ATOM      5  C   UNL d   1      27.825 -14.840   2.371  0.00  0.00     0.144 C 
ATOM      6  S   UNL d   1      27.663 -15.916   1.003  0.00  0.00    -0.086 SA
ATOM      7  H   UNL d   1      25.622 -13.407  -0.448  0.00  0.00     0.191 HD
ENDROOT
BRANCH   1   8
ATOM      8  N   UNL d   1      25.863 -15.718  -0.973  0.00  0.00    -0.336 N 
ATOM      9  H   UNL d   1      26.476 -16.008  -1.729  0.00  0.00     0.168 HD
BRANCH   8  10
ATOM     10  C   UNL d   1      24.852 -16.667  -0.686  0.00  0.00     0.034 C 
ATOM     11  C   UNL d   1      25.138 -18.007  -0.443  0.00  0.00     0.032 C 
ATOM     12  C   UNL d   1      24.112 -18.976  -0.505  0.00  0.00     0.039 C 
ATOM     13  C   UNL d   1      22.775 -18.598  -0.661  0.00  0.00     0.069 C 
ATOM     14  C   UNL d   1      22.505 -17.247  -0.727  0.00  0.00     0.039 C 
ATOM     15  C   UNL d   1      23.513 -16.313  -0.830  0.00  0.00     0.032 C 
BRANCH  13  16
ATOM     16  O   UNL d   1      21.792 -19.542  -0.576  0.00  0.00    -0.347 OA
BRANCH  16  17
ATOM     17  C   UNL d   1      20.553 -19.193   0.087  0.00  0.00     0.120 C 
ATOM     18  C   UNL d   1      19.417 -19.504  -0.892  0.00  0.00     0.040 C 
ATOM     19  C   UNL d   1      20.211 -19.966   1.365  0.00  0.00     0.040 C 
ENDBRANCH  16  17
ENDBRANCH  13  16
ENDBRANCH   8  10
ENDBRANCH   1   8
BRANCH   4  20
ATOM     20  C   UNL d   1      27.752 -12.608   3.414  0.00  0.00    -0.007 C 
ATOM     21  C   UNL d   1      28.297 -12.853   4.672  0.00  0.00     0.016 C 
ATOM     22  C   UNL d   1      28.616 -11.689   5.575  0.00  0.00     0.039 C 
ATOM     23  C   UNL d   1      28.375 -10.330   5.138  0.00  0.00     0.090 C 
ATOM     24  C   UNL d   1      27.571 -10.383   4.070  0.00  0.00     0.049 C 
ATOM     25  O   UNL d   1      28.460  -8.885   5.468  0.00  0.00    -0.341 OA
ATOM     26  C   UNL d   1      27.452 -11.323   3.119  0.00  0.00     0.040 C 
ATOM     27  N   UNL d   1      26.546  -9.469   4.113  0.00  0.00    -0.225 NA
ATOM     28  C   UNL d   1      27.031  -8.460   3.314  0.00  0.00     0.226 C 
ATOM     29  H   UNL d   1      26.580  -9.146   5.097  0.00  0.00     0.136 HD
ATOM     30  O   UNL d   1      26.970  -8.396   2.129  0.00  0.00    -0.277 OA
ATOM     31  C   UNL d   1      27.801  -7.702   4.362  0.00  0.00     0.272 C 
ENDBRANCH   4  20
TORSDOF 5
ENDMDL
MODEL 8
REMARK VINA RESULT:    -9.083      2.448      3.246
REMARK INTER + INTRA:         -11.428
REMARK INTER:                 -10.574
REMARK INTRA:                  -0.853
REMARK CONF_INDEPENDENT:        1.492
REMARK UNBOUND:                -0.853
REMARK  5 active torsions:
REMARK  status: ('A' for Active; 'I' for Inactive)
REMARK    1  A    between atoms: C_2  and  O_4 
REMARK    2  A    between atoms: O_4  and  C_5 
REMARK    3  A    between atoms: C_8  and  N_9 
REMARK    4  A    between atoms: N_9  and  C_10 
REMARK    5  A    between atoms: C_13  and  C_14 
ROOT
ATOM      1  C   UNL d   1      25.754 -15.365  -2.853  0.00  0.00     0.161 C 
ATOM      2  N   UNL d   1      25.585 -14.208  -2.244  0.00  0.00    -0.257 N 
ATOM      3  N   UNL d   1      25.676 -12.880  -2.724  0.00  0.00    -0.176 NA
ATOM      4  C   UNL d   1      26.023 -12.770  -3.971  0.00  0.00     0.074 C 
ATOM      5  C   UNL d   1      26.249 -13.875  -4.983  0.00  0.00     0.144 C 
ATOM      6  S   UNL d   1      25.963 -15.539  -4.529  0.00  0.00    -0.086 SA
ATOM      7  H   UNL d   1      25.422 -14.319  -1.244  0.00  0.00     0.191 HD
ENDROOT
BRANCH   1   8
ATOM      8  N   UNL d   1      25.886 -16.517  -2.035  0.00  0.00    -0.336 N 
ATOM      9  H   UNL d   1      26.798 -16.566  -1.592  0.00  0.00     0.168 HD
BRANCH   8  10
ATOM     10  C   UNL d   1      24.839 -16.969  -1.194  0.00  0.00     0.034 C 
ATOM     11  C   UNL d   1      24.912 -18.168  -0.492  0.00  0.00     0.032 C 
ATOM     12  C   UNL d   1      23.744 -18.749   0.048  0.00  0.00     0.039 C 
ATOM     13  C   UNL d   1      22.524 -18.068   0.020  0.00  0.00     0.069 C 
ATOM     14  C   UNL d   1      22.519 -16.804  -0.531  0.00  0.00     0.039 C 
ATOM     15  C   UNL d   1      23.615 -16.304  -1.201  0.00  0.00     0.032 C 
BRANCH  13  16
ATOM     16  O   UNL d   1      21.444 -18.591   0.673  0.00  0.00    -0.347 OA
BRANCH  16  17
ATOM     17  C   UNL d   1      20.663 -19.614   0.010  0.00  0.00     0.120 C 
ATOM     18  C   UNL d   1      19.992 -20.448   1.105  0.00  0.00     0.040 C 
ATOM     19  C   UNL d   1      19.523 -19.136  -0.895  0.00  0.00     0.040 C 
ENDBRANCH  16  17
ENDBRANCH  13  16
ENDBRANCH   8  10
ENDBRANCH   1   8
BRANCH   4  20
ATOM     20  C   UNL d   1      26.022 -11.446  -4.632  0.00  0.00    -0.007 C 
ATOM     21  C   UNL d   1      25.541 -10.177  -4.319  0.00  0.00     0.016 C 
ATOM     22  C   UNL d   1      25.668  -9.071  -5.335  0.00  0.00     0.039 C 
ATOM     23  C   UNL d   1      26.293  -9.316  -6.617  0.00  0.00     0.090 C 
ATOM     24  C   UNL d   1      26.364 -10.641  -6.789  0.00  0.00     0.049 C 
ATOM     25  O   UNL d   1      26.715  -8.749  -7.923  0.00  0.00    -0.341 OA
ATOM     26  C   UNL d   1      26.492 -11.628  -5.887  0.00  0.00     0.040 C 
ATOM     27  N   UNL d   1      25.982 -11.050  -8.043  0.00  0.00    -0.225 NA
ATOM     28  C   UNL d   1      27.196 -11.214  -8.670  0.00  0.00     0.226 C 
ATOM     29  H   UNL d   1      25.534 -10.197  -8.426  0.00  0.00     0.136 HD
ATOM     30  O   UNL d   1      27.897 -12.172  -8.628  0.00  0.00    -0.277 OA
ATOM     31  C   UNL d   1      27.389  -9.800  -9.148  0.00  0.00     0.272 C 
ENDBRANCH   4  20
TORSDOF 5
ENDMDL
MODEL 9
REMARK VINA RESULT:    -9.058      2.546      3.564
REMARK INTER + INTRA:         -11.280
REMARK INTER:                 -10.549
REMARK INTRA:                  -0.731
REMARK CONF_INDEPENDENT:        1.492
REMARK UNBOUND:                -0.731
REMARK  5 active torsions:
REMARK  status: ('A' for Active; 'I' for Inactive)
REMARK    1  A    between atoms: C_2  and  O_4 
REMARK    2  A    between atoms: O_4  and  C_5 
REMARK    3  A    between atoms: C_8  and  N_9 
REMARK    4  A    between atoms: N_9  and  C_10 
REMARK    5  A    between atoms: C_13  and  C_14 
ROOT
ATOM      1  C   UNL d   1      26.672 -15.870  -2.666  0.00  0.00     0.161 C 
ATOM      2  N   UNL d   1      26.541 -15.574  -3.945  0.00  0.00    -0.257 N 
ATOM      3  N   UNL d   1      27.481 -15.574  -5.002  0.00  0.00    -0.176 NA
ATOM      4  C   UNL d   1      28.696 -15.879  -4.656  0.00  0.00     0.074 C 
ATOM      5  C   UNL d   1      29.202 -16.318  -3.296  0.00  0.00     0.144 C 
ATOM      6  S   UNL d   1      28.072 -16.540  -1.981  0.00  0.00    -0.086 SA
ATOM      7  H   UNL d   1      25.607 -15.233  -4.169  0.00  0.00     0.191 HD
ENDROOT
BRANCH   1   8
ATOM      8  N   UNL d   1      25.613 -15.491  -1.801  0.00  0.00    -0.336 N 
ATOM      9  H   UNL d   1      25.224 -14.587  -2.049  0.00  0.00     0.168 HD
BRANCH   8  10
ATOM     10  C   UNL d   1      24.630 -16.412  -1.363  0.00  0.00     0.034 C 
ATOM     11  C   UNL d   1      23.283 -16.075  -1.269  0.00  0.00     0.032 C 
ATOM     12  C   UNL d   1      22.399 -16.879  -0.516  0.00  0.00     0.039 C 
ATOM     13  C   UNL d   1      22.819 -18.100   0.022  0.00  0.00     0.069 C 
ATOM     14  C   UNL d   1      24.116 -18.489  -0.235  0.00  0.00     0.039 C 
ATOM     15  C   UNL d   1      25.023 -17.636  -0.827  0.00  0.00     0.032 C 
BRANCH  13  16
ATOM     16  O   UNL d   1      21.908 -18.922   0.623  0.00  0.00    -0.347 OA
BRANCH  16  17
ATOM     17  C   UNL d   1      20.908 -19.566  -0.202  0.00  0.00     0.120 C 
ATOM     18  C   UNL d   1      20.082 -20.470   0.718  0.00  0.00     0.040 C 
ATOM     19  C   UNL d   1      19.891 -18.654  -0.895  0.00  0.00     0.040 C 
ENDBRANCH  16  17
ENDBRANCH  13  16
ENDBRANCH   8  10
ENDBRANCH   1   8
BRANCH   4  20
ATOM     20  C   UNL d   1      29.746 -16.047  -5.685  0.00  0.00    -0.007 C 
ATOM     21  C   UNL d   1      30.325 -15.237  -6.659  0.00  0.00     0.016 C 
ATOM     22  C   UNL d   1      31.341 -15.830  -7.601  0.00  0.00     0.039 C 
ATOM     23  C   UNL d   1      31.723 -17.221  -7.491  0.00  0.00     0.090 C 
ATOM     24  C   UNL d   1      30.813 -17.835  -6.725  0.00  0.00     0.049 C 
ATOM     25  O   UNL d   1      32.571 -18.322  -8.014  0.00  0.00    -0.341 OA
ATOM     26  C   UNL d   1      30.069 -17.360  -5.714  0.00  0.00     0.040 C 
ATOM     27  N   UNL d   1      30.401 -19.044  -7.230  0.00  0.00    -0.225 NA
ATOM     28  C   UNL d   1      31.161 -19.929  -6.500  0.00  0.00     0.226 C 
ATOM     29  H   UNL d   1      30.775 -19.019  -8.196  0.00  0.00     0.136 HD
ATOM     30  O   UNL d   1      30.917 -20.356  -5.418  0.00  0.00    -0.277 OA
ATOM     31  C   UNL d   1      32.386 -19.939  -7.374  0.00  0.00     0.272 C 
ENDBRANCH   4  20
TORSDOF 5
ENDMDL
