MODEL 1
REMARK VINA RESULT:   -10.576      0.000      0.000
REMARK INTER + INTRA:         -14.028
REMARK INTER:                 -12.962
REMARK INTRA:                  -1.066
REMARK CONF_INDEPENDENT:        2.386
REMARK UNBOUND:                -1.066
REMARK  8 active torsions:
REMARK  status: ('A' for Active; 'I' for Inactive)
REMARK    1  A    between atoms: O_2  and  C_3 
REMARK    2  A    between atoms: C_6  and  C_7 
REMARK       I    between atoms: C_7  and  N_9 
REMARK    3  A    between atoms: N_9  and  C_10 
REMARK    4  A    between atoms: C_10  and  N_12 
REMARK    5  A    between atoms: N_12  and  C_13 
REMARK    6  A    between atoms: C_16  and  N_17 
REMARK       I    between atoms: N_17  and  C_18 
REMARK    7  A    between atoms: C_18  and  C_20 
REMARK    8  A    between atoms: C_30  and  N_31 
ROOT
ATOM      1  N   UNL d   1      27.052 -15.059  -1.752  0.00  0.00    -0.333 N 
ATOM      2  H   UNL d   1      28.017 -15.342  -1.639  0.00  0.00     0.168 HD
ENDROOT
BRANCH   1   3
ATOM      3  C   UNL d   1      26.724 -13.701  -2.030  0.00  0.00     0.179 C 
ATOM      4  S   UNL d   1      26.266 -13.160  -3.568  0.00  0.00    -0.040 SA
BRANCH   3   5
ATOM      5  N   UNL d   1      26.755 -12.843  -0.900  0.00  0.00    -0.299 N 
ATOM      6  C   UNL d   1      27.408 -13.145   0.327  0.00  0.00     0.257 C 
ATOM      7  O   UNL d   1      27.954 -14.212   0.577  0.00  0.00    -0.267 OA
ATOM      8  H   UNL d   1      26.278 -11.959  -0.988  0.00  0.00     0.171 HD
BRANCH   6   9
ATOM      9  C   UNL d   1      27.437 -12.190   1.476  0.00  0.00     0.035 A 
ATOM     10  C   UNL d   1      28.144 -12.565   2.635  0.00  0.00     0.020 A 
ATOM     11  C   UNL d   1      28.111 -11.783   3.800  0.00  0.00     0.040 A 
ATOM     12  C   UNL d   1      27.434 -10.551   3.827  0.00  0.00     0.101 A 
ATOM     13  C   UNL d   1      26.789 -10.144   2.647  0.00  0.00     0.137 A 
ATOM     14  C   UNL d   1      26.785 -10.969   1.489  0.00  0.00     0.056 A 
BRANCH  12  15
ATOM     15  O   UNL d   1      27.647  -9.834   4.971  0.00  0.00    -0.353 OA
ATOM     16  C   UNL d   1      28.638 -10.285   5.890  0.00  0.00     0.210 C 
ENDBRANCH  12  15
BRANCH  13  17
ATOM     17  N   UNL d   1      26.129  -8.847   2.462  0.00  0.00    -0.113 N 
ATOM     18  O   UNL d   1      25.121  -8.838   1.734  0.00  0.00    -0.532 OA
ATOM     19  O   UNL d   1      26.614  -7.834   2.966  0.00  0.00    -0.532 OA
ENDBRANCH  13  17
ENDBRANCH   6   9
ENDBRANCH   3   5
ENDBRANCH   1   3
BRANCH   1  20
ATOM     20  C   UNL d   1      26.073 -16.040  -1.352  0.00  0.00     0.034 A 
ATOM     21  C   UNL d   1      26.384 -17.223  -0.666  0.00  0.00     0.032 A 
ATOM     22  C   UNL d   1      25.351 -18.126  -0.262  0.00  0.00     0.032 A 
ATOM     23  C   UNL d   1      23.996 -17.830  -0.495  0.00  0.00     0.035 A 
ATOM     24  C   UNL d   1      23.725 -16.679  -1.220  0.00  0.00     0.032 A 
ATOM     25  C   UNL d   1      24.735 -15.829  -1.664  0.00  0.00     0.032 A 
BRANCH  23  26
ATOM     26  N   UNL d   1      22.946 -18.660   0.005  0.00  0.00    -0.323 N 
ATOM     27  C   UNL d   1      21.608 -18.556  -0.395  0.00  0.00     0.256 C 
ATOM     28  O   UNL d   1      21.142 -17.781  -1.215  0.00  0.00    -0.267 OA
ATOM     29  H   UNL d   1      23.193 -19.353   0.699  0.00  0.00     0.169 HD
BRANCH  27  30
ATOM     30  C   UNL d   1      20.607 -19.458   0.220  0.00  0.00     0.034 A 
ATOM     31  C   UNL d   1      19.488 -19.804  -0.564  0.00  0.00     0.017 A 
ATOM     32  C   UNL d   1      18.390 -20.443   0.007  0.00  0.00     0.003 A 
ATOM     33  C   UNL d   1      18.429 -20.796   1.353  0.00  0.00     0.024 A 
ATOM     34  C   UNL d   1      19.540 -20.454   2.129  0.00  0.00     0.035 A 
ATOM     35 CL   UNL d   1      19.537 -20.822   3.811  0.00  0.00    -0.084 Cl
ATOM     36  C   UNL d   1      20.630 -19.777   1.575  0.00  0.00     0.041 A 
ENDBRANCH  27  30
ENDBRANCH  23  26
ENDBRANCH   1  20
TORSDOF 8
ENDMDL
MODEL 2
REMARK VINA RESULT:    -9.938      1.256      1.468
REMARK INTER + INTRA:         -13.497
REMARK INTER:                 -12.324
REMARK INTRA:                  -1.172
REMARK CONF_INDEPENDENT:        2.386
REMARK UNBOUND:                -1.172
REMARK  8 active torsions:
REMARK  status: ('A' for Active; 'I' for Inactive)
REMARK    1  A    between atoms: O_2  and  C_3 
REMARK    2  A    between atoms: C_6  and  C_7 
REMARK       I    between atoms: C_7  and  N_9 
REMARK    3  A    between atoms: N_9  and  C_10 
REMARK    4  A    between atoms: C_10  and  N_12 
REMARK    5  A    between atoms: N_12  and  C_13 
REMARK    6  A    between atoms: C_16  and  N_17 
REMARK       I    between atoms: N_17  and  C_18 
REMARK    7  A    between atoms: C_18  and  C_20 
REMARK    8  A    between atoms: C_30  and  N_31 
ROOT
ATOM      1  N   UNL d   1      28.369 -15.298  -0.365  0.00  0.00    -0.333 N 
ATOM      2  H   UNL d   1      29.121 -15.521   0.273  0.00  0.00     0.168 HD
ENDROOT
BRANCH   1   3
ATOM      3  C   UNL d   1      28.341 -14.043  -1.040  0.00  0.00     0.179 C 
ATOM      4  S   UNL d   1      28.567 -13.890  -2.712  0.00  0.00    -0.040 SA
BRANCH   3   5
ATOM      5  N   UNL d   1      28.049 -12.932  -0.207  0.00  0.00    -0.299 N 
ATOM      6  C   UNL d   1      27.962 -12.985   1.211  0.00  0.00     0.257 C 
ATOM      7  O   UNL d   1      28.052 -14.012   1.873  0.00  0.00    -0.267 OA
ATOM      8  H   UNL d   1      27.898 -12.047  -0.666  0.00  0.00     0.171 HD
BRANCH   6   9
ATOM      9  C   UNL d   1      27.683 -11.776   2.044  0.00  0.00     0.035 A 
ATOM     10  C   UNL d   1      28.395 -11.621   3.250  0.00  0.00     0.020 A 
ATOM     11  C   UNL d   1      28.099 -10.582   4.148  0.00  0.00     0.040 A 
ATOM     12  C   UNL d   1      27.133  -9.609   3.837  0.00  0.00     0.101 A 
ATOM     13  C   UNL d   1      26.476  -9.725   2.600  0.00  0.00     0.137 A 
ATOM     14  C   UNL d   1      26.746 -10.809   1.723  0.00  0.00     0.056 A 
BRANCH  12  15
ATOM     15  O   UNL d   1      27.092  -8.574   4.729  0.00  0.00    -0.353 OA
ATOM     16  C   UNL d   1      27.755  -7.357   4.400  0.00  0.00     0.210 C 
ENDBRANCH  12  15
BRANCH  13  17
ATOM     17  N   UNL d   1      25.523  -8.745   2.068  0.00  0.00    -0.113 N 
ATOM     18  O   UNL d   1      25.901  -7.561   2.047  0.00  0.00    -0.532 OA
ATOM     19  O   UNL d   1      24.396  -9.106   1.729  0.00  0.00    -0.532 OA
ENDBRANCH  13  17
ENDBRANCH   6   9
ENDBRANCH   3   5
ENDBRANCH   1   3
BRANCH   1  20
ATOM     20  C   UNL d   1      27.241 -16.196  -0.324  0.00  0.00     0.034 A 
ATOM     21  C   UNL d   1      27.247 -17.431   0.340  0.00  0.00     0.032 A 
ATOM     22  C   UNL d   1      26.072 -18.246   0.375  0.00  0.00     0.032 A 
ATOM     23  C   UNL d   1      24.869 -17.813  -0.209  0.00  0.00     0.035 A 
ATOM     24  C   UNL d   1      24.911 -16.611  -0.903  0.00  0.00     0.032 A 
ATOM     25  C   UNL d   1      26.070 -15.844  -0.986  0.00  0.00     0.032 A 
BRANCH  23  26
ATOM     26  N   UNL d   1      23.657 -18.558  -0.082  0.00  0.00    -0.323 N 
ATOM     27  C   UNL d   1      22.386 -18.037  -0.355  0.00  0.00     0.256 C 
ATOM     28  O   UNL d   1      22.118 -16.912  -0.746  0.00  0.00    -0.267 OA
ATOM     29  H   UNL d   1      23.731 -19.514   0.237  0.00  0.00     0.169 HD
BRANCH  27  30
ATOM     30  C   UNL d   1      21.201 -18.905  -0.157  0.00  0.00     0.034 A 
ATOM     31  C   UNL d   1      20.360 -19.104  -1.269  0.00  0.00     0.017 A 
ATOM     32  C   UNL d   1      19.109 -19.700  -1.117  0.00  0.00     0.003 A 
ATOM     33  C   UNL d   1      18.718 -20.155   0.139  0.00  0.00     0.024 A 
ATOM     34  C   UNL d   1      19.555 -19.958   1.241  0.00  0.00     0.035 A 
ATOM     35 CL   UNL d   1      19.020 -20.451   2.801  0.00  0.00    -0.084 Cl
ATOM     36  C   UNL d   1      20.794 -19.325   1.106  0.00  0.00     0.041 A 
ENDBRANCH  27  30
ENDBRANCH  23  26
ENDBRANCH   1  20
TORSDOF 8
ENDMDL
MODEL 3
REMARK VINA RESULT:    -9.774      1.845      2.298
REMARK INTER + INTRA:         -13.128
REMARK INTER:                 -12.160
REMARK INTRA:                  -0.968
REMARK CONF_INDEPENDENT:        2.386
REMARK UNBOUND:                -0.968
REMARK  8 active torsions:
REMARK  status: ('A' for Active; 'I' for Inactive)
REMARK    1  A    between atoms: O_2  and  C_3 
REMARK    2  A    between atoms: C_6  and  C_7 
REMARK       I    between atoms: C_7  and  N_9 
REMARK    3  A    between atoms: N_9  and  C_10 
REMARK    4  A    between atoms: C_10  and  N_12 
REMARK    5  A    between atoms: N_12  and  C_13 
REMARK    6  A    between atoms: C_16  and  N_17 
REMARK       I    between atoms: N_17  and  C_18 
REMARK    7  A    between atoms: C_18  and  C_20 
REMARK    8  A    between atoms: C_30  and  N_31 
ROOT
ATOM      1  N   UNL d   1      28.144 -15.902  -1.430  0.00  0.00    -0.333 N 
ATOM      2  H   UNL d   1      28.232 -15.554  -2.376  0.00  0.00     0.168 HD
ENDROOT
BRANCH   1   3
ATOM      3  C   UNL d   1      29.286 -15.996  -0.583  0.00  0.00     0.179 C 
ATOM      4  S   UNL d   1      30.735 -16.727  -1.068  0.00  0.00    -0.040 SA
BRANCH   3   5
ATOM      5  N   UNL d   1      29.135 -15.373   0.683  0.00  0.00    -0.299 N 
ATOM      6  C   UNL d   1      28.379 -14.191   0.917  0.00  0.00     0.257 C 
ATOM      7  O   UNL d   1      27.834 -13.531   0.041  0.00  0.00    -0.267 OA
ATOM      8  H   UNL d   1      29.599 -15.811   1.463  0.00  0.00     0.171 HD
BRANCH   6   9
ATOM      9  C   UNL d   1      28.226 -13.595   2.279  0.00  0.00     0.035 A 
ATOM     10  C   UNL d   1      28.359 -14.444   3.396  0.00  0.00     0.020 A 
ATOM     11  C   UNL d   1      28.102 -13.988   4.699  0.00  0.00     0.040 A 
ATOM     12  C   UNL d   1      27.780 -12.641   4.945  0.00  0.00     0.101 A 
ATOM     13  C   UNL d   1      27.719 -11.780   3.836  0.00  0.00     0.137 A 
ATOM     14  C   UNL d   1      27.930 -12.264   2.516  0.00  0.00     0.056 A 
BRANCH  12  15
ATOM     15  O   UNL d   1      27.736 -12.323   6.273  0.00  0.00    -0.353 OA
ATOM     16  C   UNL d   1      28.680 -12.924   7.155  0.00  0.00     0.210 C 
ENDBRANCH  12  15
BRANCH  13  17
ATOM     17  N   UNL d   1      27.504 -10.331   3.917  0.00  0.00    -0.113 N 
ATOM     18  O   UNL d   1      28.524  -9.625   4.004  0.00  0.00    -0.532 OA
ATOM     19  O   UNL d   1      26.359  -9.882   3.958  0.00  0.00    -0.532 OA
ENDBRANCH  13  17
ENDBRANCH   6   9
ENDBRANCH   3   5
ENDBRANCH   1   3
BRANCH   1  20
ATOM     20  C   UNL d   1      26.880 -16.525  -1.120  0.00  0.00     0.034 A 
ATOM     21  C   UNL d   1      25.713 -16.347  -1.877  0.00  0.00     0.032 A 
ATOM     22  C   UNL d   1      24.508 -17.036  -1.532  0.00  0.00     0.032 A 
ATOM     23  C   UNL d   1      24.472 -17.945  -0.460  0.00  0.00     0.035 A 
ATOM     24  C   UNL d   1      25.628 -18.058   0.300  0.00  0.00     0.032 A 
ATOM     25  C   UNL d   1      26.784 -17.344  -0.001  0.00  0.00     0.032 A 
BRANCH  23  26
ATOM     26  N   UNL d   1      23.313 -18.729  -0.174  0.00  0.00    -0.323 N 
ATOM     27  C   UNL d   1      22.000 -18.302  -0.410  0.00  0.00     0.256 C 
ATOM     28  O   UNL d   1      21.647 -17.238  -0.894  0.00  0.00    -0.267 OA
ATOM     29  H   UNL d   1      23.459 -19.643   0.234  0.00  0.00     0.169 HD
BRANCH  27  30
ATOM     30  C   UNL d   1      20.880 -19.200  -0.045  0.00  0.00     0.034 A 
ATOM     31  C   UNL d   1      19.907 -19.446  -1.033  0.00  0.00     0.017 A 
ATOM     32  C   UNL d   1      18.706 -20.075  -0.708  0.00  0.00     0.003 A 
ATOM     33  C   UNL d   1      18.497 -20.516   0.596  0.00  0.00     0.024 A 
ATOM     34  C   UNL d   1      19.464 -20.272   1.575  0.00  0.00     0.035 A 
ATOM     35 CL   UNL d   1      19.155 -20.748   3.200  0.00  0.00    -0.084 Cl
ATOM     36  C   UNL d   1      20.655 -19.606   1.268  0.00  0.00     0.041 A 
ENDBRANCH  27  30
ENDBRANCH  23  26
ENDBRANCH   1  20
TORSDOF 8
ENDMDL
MODEL 4
REMARK VINA RESULT:    -9.546      1.586      2.135
REMARK INTER + INTRA:         -13.289
REMARK INTER:                 -11.932
REMARK INTRA:                  -1.356
REMARK CONF_INDEPENDENT:        2.386
REMARK UNBOUND:                -1.356
REMARK  8 active torsions:
REMARK  status: ('A' for Active; 'I' for Inactive)
REMARK    1  A    between atoms: O_2  and  C_3 
REMARK    2  A    between atoms: C_6  and  C_7 
REMARK       I    between atoms: C_7  and  N_9 
REMARK    3  A    between atoms: N_9  and  C_10 
REMARK    4  A    between atoms: C_10  and  N_12 
REMARK    5  A    between atoms: N_12  and  C_13 
REMARK    6  A    between atoms: C_16  and  N_17 
REMARK       I    between atoms: N_17  and  C_18 
REMARK    7  A    between atoms: C_18  and  C_20 
REMARK    8  A    between atoms: C_30  and  N_31 
ROOT
ATOM      1  N   UNL d   1      26.824 -14.985  -1.945  0.00  0.00    -0.333 N 
ATOM      2  H   UNL d   1      27.738 -15.052  -1.515  0.00  0.00     0.168 HD
ENDROOT
BRANCH   1   3
ATOM      3  C   UNL d   1      26.462 -13.832  -2.700  0.00  0.00     0.179 C 
ATOM      4  S   UNL d   1      25.763 -13.922  -4.240  0.00  0.00    -0.040 SA
BRANCH   3   5
ATOM      5  N   UNL d   1      26.677 -12.598  -2.033  0.00  0.00    -0.299 N 
ATOM      6  C   UNL d   1      27.668 -12.381  -1.037  0.00  0.00     0.257 C 
ATOM      7  O   UNL d   1      28.400 -13.252  -0.584  0.00  0.00    -0.267 OA
ATOM      8  H   UNL d   1      26.081 -11.830  -2.296  0.00  0.00     0.171 HD
BRANCH   6   9
ATOM      9  C   UNL d   1      27.874 -11.050  -0.389  0.00  0.00     0.035 A 
ATOM     10  C   UNL d   1      29.018 -10.307  -0.745  0.00  0.00     0.020 A 
ATOM     11  C   UNL d   1      29.349  -9.111  -0.088  0.00  0.00     0.040 A 
ATOM     12  C   UNL d   1      28.506  -8.567   0.897  0.00  0.00     0.101 A 
ATOM     13  C   UNL d   1      27.329  -9.273   1.199  0.00  0.00     0.137 A 
ATOM     14  C   UNL d   1      27.030 -10.510   0.565  0.00  0.00     0.056 A 
BRANCH  12  15
ATOM     15  O   UNL d   1      28.878  -7.318   1.307  0.00  0.00    -0.353 OA
ATOM     16  C   UNL d   1      28.931  -6.267   0.347  0.00  0.00     0.210 C 
ENDBRANCH  12  15
BRANCH  13  17
ATOM     17  N   UNL d   1      26.287  -8.802   2.118  0.00  0.00    -0.113 N 
ATOM     18  O   UNL d   1      26.641  -8.581   3.289  0.00  0.00    -0.532 OA
ATOM     19  O   UNL d   1      25.124  -8.703   1.728  0.00  0.00    -0.532 OA
ENDBRANCH  13  17
ENDBRANCH   6   9
ENDBRANCH   3   5
ENDBRANCH   1   3
BRANCH   1  20
ATOM     20  C   UNL d   1      25.871 -15.980  -1.517  0.00  0.00     0.034 A 
ATOM     21  C   UNL d   1      26.223 -17.182  -0.888  0.00  0.00     0.032 A 
ATOM     22  C   UNL d   1      25.215 -18.099  -0.451  0.00  0.00     0.032 A 
ATOM     23  C   UNL d   1      23.849 -17.799  -0.594  0.00  0.00     0.035 A 
ATOM     24  C   UNL d   1      23.535 -16.627  -1.267  0.00  0.00     0.032 A 
ATOM     25  C   UNL d   1      24.516 -15.762  -1.744  0.00  0.00     0.032 A 
BRANCH  23  26
ATOM     26  N   UNL d   1      22.830 -18.646  -0.058  0.00  0.00    -0.323 N 
ATOM     27  C   UNL d   1      21.482 -18.579  -0.429  0.00  0.00     0.256 C 
ATOM     28  O   UNL d   1      20.979 -17.829  -1.251  0.00  0.00    -0.267 OA
ATOM     29  H   UNL d   1      23.109 -19.322   0.640  0.00  0.00     0.169 HD
BRANCH  27  30
ATOM     30  C   UNL d   1      20.516 -19.496   0.221  0.00  0.00     0.034 A 
ATOM     31  C   UNL d   1      19.400 -19.896  -0.540  0.00  0.00     0.017 A 
ATOM     32  C   UNL d   1      18.329 -20.554   0.062  0.00  0.00     0.003 A 
ATOM     33  C   UNL d   1      18.394 -20.870   1.416  0.00  0.00     0.024 A 
ATOM     34  C   UNL d   1      19.503 -20.473   2.169  0.00  0.00     0.035 A 
ATOM     35 CL   UNL d   1      19.531 -20.796   3.859  0.00  0.00    -0.084 Cl
ATOM     36  C   UNL d   1      20.565 -19.777   1.584  0.00  0.00     0.041 A 
ENDBRANCH  27  30
ENDBRANCH  23  26
ENDBRANCH   1  20
TORSDOF 8
ENDMDL
MODEL 5
REMARK VINA RESULT:    -9.235      1.889      2.708
REMARK INTER + INTRA:         -12.972
REMARK INTER:                 -11.622
REMARK INTRA:                  -1.350
REMARK CONF_INDEPENDENT:        2.386
REMARK UNBOUND:                -1.350
REMARK  8 active torsions:
REMARK  status: ('A' for Active; 'I' for Inactive)
REMARK    1  A    between atoms: O_2  and  C_3 
REMARK    2  A    between atoms: C_6  and  C_7 
REMARK       I    between atoms: C_7  and  N_9 
REMARK    3  A    between atoms: N_9  and  C_10 
REMARK    4  A    between atoms: C_10  and  N_12 
REMARK    5  A    between atoms: N_12  and  C_13 
REMARK    6  A    between atoms: C_16  and  N_17 
REMARK       I    between atoms: N_17  and  C_18 
REMARK    7  A    between atoms: C_18  and  C_20 
REMARK    8  A    between atoms: C_30  and  N_31 
ROOT
ATOM      1  N   UNL d   1      28.451 -15.332  -0.248  0.00  0.00    -0.333 N 
ATOM      2  H   UNL d   1      28.905 -15.165   0.641  0.00  0.00     0.168 HD
ENDROOT
BRANCH   1   3
ATOM      3  C   UNL d   1      28.758 -14.523  -1.380  0.00  0.00     0.179 C 
ATOM      4  S   UNL d   1      29.521 -15.129  -2.766  0.00  0.00    -0.040 SA
BRANCH   3   5
ATOM      5  N   UNL d   1      28.320 -13.177  -1.280  0.00  0.00    -0.299 N 
ATOM      6  C   UNL d   1      28.077 -12.495  -0.057  0.00  0.00     0.257 C 
ATOM      7  O   UNL d   1      28.144 -13.013   1.051  0.00  0.00    -0.267 OA
ATOM      8  H   UNL d   1      28.177 -12.681  -2.146  0.00  0.00     0.171 HD
BRANCH   6   9
ATOM      9  C   UNL d   1      27.646 -11.065  -0.008  0.00  0.00     0.035 A 
ATOM     10  C   UNL d   1      27.973 -10.235  -1.099  0.00  0.00     0.020 A 
ATOM     11  C   UNL d   1      27.719  -8.854  -1.072  0.00  0.00     0.040 A 
ATOM     12  C   UNL d   1      27.054  -8.260   0.015  0.00  0.00     0.101 A 
ATOM     13  C   UNL d   1      26.664  -9.103   1.070  0.00  0.00     0.137 A 
ATOM     14  C   UNL d   1      26.973 -10.490   1.056  0.00  0.00     0.056 A 
BRANCH  12  15
ATOM     15  O   UNL d   1      26.727  -6.950  -0.193  0.00  0.00    -0.353 OA
ATOM     16  C   UNL d   1      25.358  -6.563  -0.117  0.00  0.00     0.210 C 
ENDBRANCH  12  15
BRANCH  13  17
ATOM     17  N   UNL d   1      25.870  -8.677   2.227  0.00  0.00    -0.113 N 
ATOM     18  O   UNL d   1      26.387  -7.822   2.968  0.00  0.00    -0.532 OA
ATOM     19  O   UNL d   1      24.783  -9.206   2.455  0.00  0.00    -0.532 OA
ENDBRANCH  13  17
ENDBRANCH   6   9
ENDBRANCH   3   5
ENDBRANCH   1   3
BRANCH   1  20
ATOM     20  C   UNL d   1      27.323 -16.230  -0.203  0.00  0.00     0.034 A 
ATOM     21  C   UNL d   1      27.273 -17.385   0.590  0.00  0.00     0.032 A 
ATOM     22  C   UNL d   1      26.099 -18.202   0.616  0.00  0.00     0.032 A 
ATOM     23  C   UNL d   1      24.949 -17.845  -0.110  0.00  0.00     0.035 A 
ATOM     24  C   UNL d   1      25.049 -16.725  -0.925  0.00  0.00     0.032 A 
ATOM     25  C   UNL d   1      26.212 -15.963  -0.994  0.00  0.00     0.032 A 
BRANCH  23  26
ATOM     26  N   UNL d   1      23.730 -18.582  -0.004  0.00  0.00    -0.323 N 
ATOM     27  C   UNL d   1      22.471 -18.062  -0.326  0.00  0.00     0.256 C 
ATOM     28  O   UNL d   1      22.220 -16.945  -0.750  0.00  0.00    -0.267 OA
ATOM     29  H   UNL d   1      23.790 -19.532   0.338  0.00  0.00     0.169 HD
BRANCH  27  30
ATOM     30  C   UNL d   1      21.276 -18.921  -0.146  0.00  0.00     0.034 A 
ATOM     31  C   UNL d   1      20.449 -19.113  -1.270  0.00  0.00     0.017 A 
ATOM     32  C   UNL d   1      19.192 -19.698  -1.136  0.00  0.00     0.003 A 
ATOM     33  C   UNL d   1      18.779 -20.152   0.114  0.00  0.00     0.024 A 
ATOM     34  C   UNL d   1      19.602 -19.961   1.228  0.00  0.00     0.035 A 
ATOM     35 CL   UNL d   1      19.041 -20.451   2.780  0.00  0.00    -0.084 Cl
ATOM     36  C   UNL d   1      20.848 -19.339   1.111  0.00  0.00     0.041 A 
ENDBRANCH  27  30
ENDBRANCH  23  26
ENDBRANCH   1  20
TORSDOF 8
ENDMDL
MODEL 6
REMARK VINA RESULT:    -9.150      4.952      7.956
REMARK INTER + INTRA:         -12.884
REMARK INTER:                 -11.537
REMARK INTRA:                  -1.348
REMARK CONF_INDEPENDENT:        2.386
REMARK UNBOUND:                -1.348
REMARK  8 active torsions:
REMARK  status: ('A' for Active; 'I' for Inactive)
REMARK    1  A    between atoms: O_2  and  C_3 
REMARK    2  A    between atoms: C_6  and  C_7 
REMARK       I    between atoms: C_7  and  N_9 
REMARK    3  A    between atoms: N_9  and  C_10 
REMARK    4  A    between atoms: C_10  and  N_12 
REMARK    5  A    between atoms: N_12  and  C_13 
REMARK    6  A    between atoms: C_16  and  N_17 
REMARK       I    between atoms: N_17  and  C_18 
REMARK    7  A    between atoms: C_18  and  C_20 
REMARK    8  A    between atoms: C_30  and  N_31 
ROOT
ATOM      1  N   UNL d   1      26.621 -15.238  -2.600  0.00  0.00    -0.333 N 
ATOM      2  H   UNL d   1      27.413 -14.970  -2.031  0.00  0.00     0.168 HD
ENDROOT
BRANCH   1   3
ATOM      3  C   UNL d   1      26.433 -14.670  -3.894  0.00  0.00     0.179 C 
ATOM      4  S   UNL d   1      25.142 -13.641  -4.270  0.00  0.00    -0.040 SA
BRANCH   3   5
ATOM      5  N   UNL d   1      27.450 -14.988  -4.831  0.00  0.00    -0.299 N 
ATOM      6  C   UNL d   1      28.736 -15.491  -4.489  0.00  0.00     0.257 C 
ATOM      7  O   UNL d   1      29.142 -15.636  -3.342  0.00  0.00    -0.267 OA
ATOM      8  H   UNL d   1      27.232 -14.845  -5.804  0.00  0.00     0.171 HD
BRANCH   6   9
ATOM      9  C   UNL d   1      29.760 -15.841  -5.520  0.00  0.00     0.035 A 
ATOM     10  C   UNL d   1      30.477 -14.791  -6.128  0.00  0.00     0.020 A 
ATOM     11  C   UNL d   1      31.360 -15.027  -7.193  0.00  0.00     0.040 A 
ATOM     12  C   UNL d   1      31.624 -16.334  -7.640  0.00  0.00     0.101 A 
ATOM     13  C   UNL d   1      30.962 -17.385  -6.983  0.00  0.00     0.137 A 
ATOM     14  C   UNL d   1      30.030 -17.131  -5.941  0.00  0.00     0.056 A 
BRANCH  12  15
ATOM     15  O   UNL d   1      32.634 -16.405  -8.558  0.00  0.00    -0.353 OA
ATOM     16  C   UNL d   1      33.854 -17.041  -8.188  0.00  0.00     0.210 C 
ENDBRANCH  12  15
BRANCH  13  17
ATOM     17  N   UNL d   1      31.197 -18.809  -7.244  0.00  0.00    -0.113 N 
ATOM     18  O   UNL d   1      31.942 -19.403  -6.445  0.00  0.00    -0.532 OA
ATOM     19  O   UNL d   1      30.715 -19.338  -8.246  0.00  0.00    -0.532 OA
ENDBRANCH  13  17
ENDBRANCH   6   9
ENDBRANCH   3   5
ENDBRANCH   1   3
BRANCH   1  20
ATOM     20  C   UNL d   1      25.600 -15.993  -1.915  0.00  0.00     0.034 A 
ATOM     21  C   UNL d   1      24.254 -15.607  -1.847  0.00  0.00     0.032 A 
ATOM     22  C   UNL d   1      23.290 -16.434  -1.188  0.00  0.00     0.032 A 
ATOM     23  C   UNL d   1      23.654 -17.674  -0.635  0.00  0.00     0.035 A 
ATOM     24  C   UNL d   1      25.002 -18.002  -0.674  0.00  0.00     0.032 A 
ATOM     25  C   UNL d   1      25.950 -17.171  -1.265  0.00  0.00     0.032 A 
BRANCH  23  26
ATOM     26  N   UNL d   1      22.687 -18.566  -0.079  0.00  0.00    -0.323 N 
ATOM     27  C   UNL d   1      21.333 -18.575  -0.439  0.00  0.00     0.256 C 
ATOM     28  O   UNL d   1      20.784 -17.863  -1.265  0.00  0.00    -0.267 OA
ATOM     29  H   UNL d   1      23.006 -19.217   0.625  0.00  0.00     0.169 HD
BRANCH  27  30
ATOM     30  C   UNL d   1      20.423 -19.532   0.232  0.00  0.00     0.034 A 
ATOM     31  C   UNL d   1      19.326 -20.005  -0.515  0.00  0.00     0.017 A 
ATOM     32  C   UNL d   1      18.296 -20.711   0.104  0.00  0.00     0.003 A 
ATOM     33  C   UNL d   1      18.385 -21.001   1.463  0.00  0.00     0.024 A 
ATOM     34  C   UNL d   1      19.475 -20.531   2.202  0.00  0.00     0.035 A 
ATOM     35 CL   UNL d   1      19.530 -20.825   3.897  0.00  0.00    -0.084 Cl
ATOM     36  C   UNL d   1      20.494 -19.788   1.599  0.00  0.00     0.041 A 
ENDBRANCH  27  30
ENDBRANCH  23  26
ENDBRANCH   1  20
TORSDOF 8
ENDMDL
MODEL 7
REMARK VINA RESULT:    -8.721      5.105      8.323
REMARK INTER + INTRA:         -12.022
REMARK INTER:                 -11.107
REMARK INTRA:                  -0.915
REMARK CONF_INDEPENDENT:        2.386
REMARK UNBOUND:                -0.915
REMARK  8 active torsions:
REMARK  status: ('A' for Active; 'I' for Inactive)
REMARK    1  A    between atoms: O_2  and  C_3 
REMARK    2  A    between atoms: C_6  and  C_7 
REMARK       I    between atoms: C_7  and  N_9 
REMARK    3  A    between atoms: N_9  and  C_10 
REMARK    4  A    between atoms: C_10  and  N_12 
REMARK    5  A    between atoms: N_12  and  C_13 
REMARK    6  A    between atoms: C_16  and  N_17 
REMARK       I    between atoms: N_17  and  C_18 
REMARK    7  A    between atoms: C_18  and  C_20 
REMARK    8  A    between atoms: C_30  and  N_31 
ROOT
ATOM      1  N   UNL d   1      28.095 -14.806  -1.666  0.00  0.00    -0.333 N 
ATOM      2  H   UNL d   1      28.392 -14.313  -0.834  0.00  0.00     0.168 HD
ENDROOT
BRANCH   1   3
ATOM      3  C   UNL d   1      28.515 -14.368  -2.955  0.00  0.00     0.179 C 
ATOM      4  S   UNL d   1      28.193 -12.815  -3.551  0.00  0.00    -0.040 SA
BRANCH   3   5
ATOM      5  N   UNL d   1      29.278 -15.318  -3.682  0.00  0.00    -0.299 N 
ATOM      6  C   UNL d   1      29.059 -15.658  -5.045  0.00  0.00     0.257 C 
ATOM      7  O   UNL d   1      28.139 -15.226  -5.729  0.00  0.00    -0.267 OA
ATOM      8  H   UNL d   1      30.026 -15.776  -3.185  0.00  0.00     0.171 HD
BRANCH   6   9
ATOM      9  C   UNL d   1      29.915 -16.644  -5.773  0.00  0.00     0.035 A 
ATOM     10  C   UNL d   1      30.621 -16.201  -6.908  0.00  0.00     0.020 A 
ATOM     11  C   UNL d   1      31.341 -17.094  -7.718  0.00  0.00     0.040 A 
ATOM     12  C   UNL d   1      31.450 -18.454  -7.379  0.00  0.00     0.101 A 
ATOM     13  C   UNL d   1      30.804 -18.879  -6.206  0.00  0.00     0.137 A 
ATOM     14  C   UNL d   1      30.034 -17.978  -5.422  0.00  0.00     0.056 A 
BRANCH  12  15
ATOM     15  O   UNL d   1      32.327 -19.146  -8.167  0.00  0.00    -0.353 OA
ATOM     16  C   UNL d   1      31.844 -19.755  -9.361  0.00  0.00     0.210 C 
ENDBRANCH  12  15
BRANCH  13  17
ATOM     17  N   UNL d   1      30.900 -20.231  -5.646  0.00  0.00    -0.113 N 
ATOM     18  O   UNL d   1      29.914 -20.635  -5.004  0.00  0.00    -0.532 OA
ATOM     19  O   UNL d   1      31.941 -20.876  -5.772  0.00  0.00    -0.532 OA
ENDBRANCH  13  17
ENDBRANCH   6   9
ENDBRANCH   3   5
ENDBRANCH   1   3
BRANCH   1  20
ATOM     20  C   UNL d   1      27.041 -15.770  -1.465  0.00  0.00     0.034 A 
ATOM     21  C   UNL d   1      27.178 -16.930  -0.690  0.00  0.00     0.032 A 
ATOM     22  C   UNL d   1      26.071 -17.816  -0.500  0.00  0.00     0.032 A 
ATOM     23  C   UNL d   1      24.806 -17.525  -1.042  0.00  0.00     0.035 A 
ATOM     24  C   UNL d   1      24.717 -16.397  -1.846  0.00  0.00     0.032 A 
ATOM     25  C   UNL d   1      25.810 -15.566  -2.078  0.00  0.00     0.032 A 
BRANCH  23  26
ATOM     26  N   UNL d   1      23.662 -18.334  -0.764  0.00  0.00    -0.323 N 
ATOM     27  C   UNL d   1      22.380 -17.823  -0.529  0.00  0.00     0.256 C 
ATOM     28  O   UNL d   1      22.041 -16.650  -0.538  0.00  0.00    -0.267 OA
ATOM     29  H   UNL d   1      23.800 -19.336  -0.726  0.00  0.00     0.169 HD
BRANCH  27  30
ATOM     30  C   UNL d   1      21.279 -18.767  -0.225  0.00  0.00     0.034 A 
ATOM     31  C   UNL d   1      20.351 -19.022  -1.253  0.00  0.00     0.017 A 
ATOM     32  C   UNL d   1      19.163 -19.699  -0.986  0.00  0.00     0.003 A 
ATOM     33  C   UNL d   1      18.923 -20.179   0.299  0.00  0.00     0.024 A 
ATOM     34  C   UNL d   1      19.846 -19.926   1.318  0.00  0.00     0.035 A 
ATOM     35 CL   UNL d   1      19.497 -20.452   2.919  0.00  0.00    -0.084 Cl
ATOM     36  C   UNL d   1      21.023 -19.213   1.069  0.00  0.00     0.041 A 
ENDBRANCH  27  30
ENDBRANCH  23  26
ENDBRANCH   1  20
TORSDOF 8
ENDMDL
MODEL 8
REMARK VINA RESULT:    -8.685      2.727      3.736
REMARK INTER + INTRA:         -12.439
REMARK INTER:                 -11.071
REMARK INTRA:                  -1.367
REMARK CONF_INDEPENDENT:        2.386
REMARK UNBOUND:                -1.367
REMARK  8 active torsions:
REMARK  status: ('A' for Active; 'I' for Inactive)
REMARK    1  A    between atoms: O_2  and  C_3 
REMARK    2  A    between atoms: C_6  and  C_7 
REMARK       I    between atoms: C_7  and  N_9 
REMARK    3  A    between atoms: N_9  and  C_10 
REMARK    4  A    between atoms: C_10  and  N_12 
REMARK    5  A    between atoms: N_12  and  C_13 
REMARK    6  A    between atoms: C_16  and  N_17 
REMARK       I    between atoms: N_17  and  C_18 
REMARK    7  A    between atoms: C_18  and  C_20 
REMARK    8  A    between atoms: C_30  and  N_31 
ROOT
ATOM      1  N   UNL d   1      26.711 -14.882  -1.946  0.00  0.00    -0.333 N 
ATOM      2  H   UNL d   1      27.280 -14.481  -1.212  0.00  0.00     0.168 HD
ENDROOT
BRANCH   1   3
ATOM      3  C   UNL d   1      26.668 -14.282  -3.238  0.00  0.00     0.179 C 
ATOM      4  S   UNL d   1      26.820 -15.170  -4.672  0.00  0.00    -0.040 SA
BRANCH   3   5
ATOM      5  N   UNL d   1      26.428 -12.883  -3.231  0.00  0.00    -0.299 N 
ATOM      6  C   UNL d   1      26.842 -11.997  -2.198  0.00  0.00     0.257 C 
ATOM      7  O   UNL d   1      27.387 -12.349  -1.160  0.00  0.00    -0.267 OA
ATOM      8  H   UNL d   1      25.930 -12.504  -4.021  0.00  0.00     0.171 HD
BRANCH   6   9
ATOM      9  C   UNL d   1      26.591 -10.525  -2.257  0.00  0.00     0.035 A 
ATOM     10  C   UNL d   1      26.299  -9.950  -3.510  0.00  0.00     0.020 A 
ATOM     11  C   UNL d   1      26.179  -8.560  -3.668  0.00  0.00     0.040 A 
ATOM     12  C   UNL d   1      26.267  -7.694  -2.564  0.00  0.00     0.101 A 
ATOM     13  C   UNL d   1      26.487  -8.277  -1.304  0.00  0.00     0.137 A 
ATOM     14  C   UNL d   1      26.659  -9.680  -1.163  0.00  0.00     0.056 A 
BRANCH  12  15
ATOM     15  O   UNL d   1      25.952  -6.397  -2.859  0.00  0.00    -0.353 OA
ATOM     16  C   UNL d   1      24.766  -6.129  -3.600  0.00  0.00     0.210 C 
ENDBRANCH  12  15
BRANCH  13  17
ATOM     17  N   UNL d   1      26.498  -7.540  -0.036  0.00  0.00    -0.113 N 
ATOM     18  O   UNL d   1      25.546  -7.752   0.736  0.00  0.00    -0.532 OA
ATOM     19  O   UNL d   1      27.387  -6.718   0.189  0.00  0.00    -0.532 OA
ENDBRANCH  13  17
ENDBRANCH   6   9
ENDBRANCH   3   5
ENDBRANCH   1   3
BRANCH   1  20
ATOM     20  C   UNL d   1      25.779 -15.897  -1.517  0.00  0.00     0.034 A 
ATOM     21  C   UNL d   1      26.157 -17.087  -0.878  0.00  0.00     0.032 A 
ATOM     22  C   UNL d   1      25.170 -18.025  -0.441  0.00  0.00     0.032 A 
ATOM     23  C   UNL d   1      23.798 -17.760  -0.593  0.00  0.00     0.035 A 
ATOM     24  C   UNL d   1      23.459 -16.599  -1.274  0.00  0.00     0.032 A 
ATOM     25  C   UNL d   1      24.422 -15.714  -1.752  0.00  0.00     0.032 A 
BRANCH  23  26
ATOM     26  N   UNL d   1      22.798 -18.627  -0.056  0.00  0.00    -0.323 N 
ATOM     27  C   UNL d   1      21.444 -18.573  -0.409  0.00  0.00     0.256 C 
ATOM     28  O   UNL d   1      20.920 -17.817  -1.212  0.00  0.00    -0.267 OA
ATOM     29  H   UNL d   1      23.094 -19.310   0.628  0.00  0.00     0.169 HD
BRANCH  27  30
ATOM     30  C   UNL d   1      20.498 -19.512   0.240  0.00  0.00     0.034 A 
ATOM     31  C   UNL d   1      19.397 -19.943  -0.524  0.00  0.00     0.017 A 
ATOM     32  C   UNL d   1      18.339 -20.626   0.074  0.00  0.00     0.003 A 
ATOM     33  C   UNL d   1      18.406 -20.936   1.430  0.00  0.00     0.024 A 
ATOM     34  C   UNL d   1      19.501 -20.508   2.186  0.00  0.00     0.035 A 
ATOM     35 CL   UNL d   1      19.530 -20.826   3.878  0.00  0.00    -0.084 Cl
ATOM     36  C   UNL d   1      20.548 -19.787   1.604  0.00  0.00     0.041 A 
ENDBRANCH  27  30
ENDBRANCH  23  26
ENDBRANCH   1  20
TORSDOF 8
ENDMDL
MODEL 9
REMARK VINA RESULT:    -8.005      5.477      8.359
REMARK INTER + INTRA:         -11.754
REMARK INTER:                 -10.391
REMARK INTRA:                  -1.363
REMARK CONF_INDEPENDENT:        2.386
REMARK UNBOUND:                -1.363
REMARK  8 active torsions:
REMARK  status: ('A' for Active; 'I' for Inactive)
REMARK    1  A    between atoms: O_2  and  C_3 
REMARK    2  A    between atoms: C_6  and  C_7 
REMARK       I    between atoms: C_7  and  N_9 
REMARK    3  A    between atoms: N_9  and  C_10 
REMARK    4  A    between atoms: C_10  and  N_12 
REMARK    5  A    between atoms: N_12  and  C_13 
REMARK    6  A    between atoms: C_16  and  N_17 
REMARK       I    between atoms: N_17  and  C_18 
REMARK    7  A    between atoms: C_18  and  C_20 
REMARK    8  A    between atoms: C_30  and  N_31 
ROOT
ATOM      1  N   UNL d   1      27.095 -15.895  -2.746  0.00  0.00    -0.333 N 
ATOM      2  H   UNL d   1      26.896 -15.646  -3.706  0.00  0.00     0.168 HD
ENDROOT
BRANCH   1   3
ATOM      3  C   UNL d   1      28.440 -16.054  -2.304  0.00  0.00     0.179 C 
ATOM      4  S   UNL d   1      28.951 -15.647  -0.741  0.00  0.00    -0.040 SA
BRANCH   3   5
ATOM      5  N   UNL d   1      29.311 -16.639  -3.260  0.00  0.00    -0.299 N 
ATOM      6  C   UNL d   1      29.208 -16.454  -4.666  0.00  0.00     0.257 C 
ATOM      7  O   UNL d   1      28.311 -15.831  -5.220  0.00  0.00    -0.267 OA
ATOM      8  H   UNL d   1      30.051 -17.222  -2.903  0.00  0.00     0.171 HD
BRANCH   6   9
ATOM      9  C   UNL d   1      30.173 -17.068  -5.628  0.00  0.00     0.035 A 
ATOM     10  C   UNL d   1      30.450 -18.444  -5.505  0.00  0.00     0.020 A 
ATOM     11  C   UNL d   1      31.438 -19.066  -6.284  0.00  0.00     0.040 A 
ATOM     12  C   UNL d   1      32.134 -18.353  -7.277  0.00  0.00     0.101 A 
ATOM     13  C   UNL d   1      31.804 -16.998  -7.447  0.00  0.00     0.137 A 
ATOM     14  C   UNL d   1      30.839 -16.366  -6.617  0.00  0.00     0.056 A 
BRANCH  12  15
ATOM     15  O   UNL d   1      32.929 -19.141  -8.062  0.00  0.00    -0.353 OA
ATOM     16  C   UNL d   1      33.944 -19.925  -7.443  0.00  0.00     0.210 C 
ENDBRANCH  12  15
BRANCH  13  17
ATOM     17  N   UNL d   1      32.349 -16.133  -8.499  0.00  0.00    -0.113 N 
ATOM     18  O   UNL d   1      33.246 -16.623  -9.208  0.00  0.00    -0.532 OA
ATOM     19  O   UNL d   1      31.957 -14.971  -8.603  0.00  0.00    -0.532 OA
ENDBRANCH  13  17
ENDBRANCH   6   9
ENDBRANCH   3   5
ENDBRANCH   1   3
BRANCH   1  20
ATOM     20  C   UNL d   1      25.955 -16.325  -1.974  0.00  0.00     0.034 A 
ATOM     21  C   UNL d   1      24.717 -15.667  -1.972  0.00  0.00     0.032 A 
ATOM     22  C   UNL d   1      23.619 -16.182  -1.215  0.00  0.00     0.032 A 
ATOM     23  C   UNL d   1      23.732 -17.384  -0.495  0.00  0.00     0.035 A 
ATOM     24  C   UNL d   1      24.984 -17.983  -0.476  0.00  0.00     0.032 A 
ATOM     25  C   UNL d   1      26.070 -17.450  -1.166  0.00  0.00     0.032 A 
BRANCH  23  26
ATOM     26  N   UNL d   1      22.614 -17.975   0.169  0.00  0.00    -0.323 N 
ATOM     27  C   UNL d   1      21.673 -18.797  -0.464  0.00  0.00     0.256 C 
ATOM     28  O   UNL d   1      21.665 -19.144  -1.634  0.00  0.00    -0.267 OA
ATOM     29  H   UNL d   1      22.496 -17.770   1.152  0.00  0.00     0.169 HD
BRANCH  27  30
ATOM     30  C   UNL d   1      20.540 -19.328   0.330  0.00  0.00     0.034 A 
ATOM     31  C   UNL d   1      20.674 -19.308   1.732  0.00  0.00     0.017 A 
ATOM     32  C   UNL d   1      19.774 -19.999   2.542  0.00  0.00     0.003 A 
ATOM     33  C   UNL d   1      18.699 -20.662   1.958  0.00  0.00     0.024 A 
ATOM     34  C   UNL d   1      18.567 -20.679   0.566  0.00  0.00     0.035 A 
ATOM     35 CL   UNL d   1      17.280 -21.575  -0.145  0.00  0.00    -0.084 Cl
ATOM     36  C   UNL d   1      19.486 -20.024  -0.258  0.00  0.00     0.041 A 
ENDBRANCH  27  30
ENDBRANCH  23  26
ENDBRANCH   1  20
TORSDOF 8
ENDMDL
