MODEL 1
REMARK VINA RESULT:    -6.669      0.000      0.000
REMARK INTER + INTRA:          -9.682
REMARK INTER:                  -8.459
REMARK INTRA:                  -1.223
REMARK CONF_INDEPENDENT:        1.790
REMARK UNBOUND:                -1.223
REMARK  6 active torsions:
REMARK  status: ('A' for Active; 'I' for Inactive)
REMARK    1  A    between atoms: C_2  and  C_3 
REMARK       I    between atoms: C_2  and  N_14 
REMARK    2  A    between atoms: C_4  and  C_5 
REMARK    3  A    between atoms: C_10  and  N_11 
REMARK    4  A    between atoms: N_14  and  N_15 
REMARK       I    between atoms: N_15  and  C_16 
REMARK       I    between atoms: C_16  and  N_18 
REMARK    5  A    between atoms: N_18  and  C_19 
REMARK    6  A    between atoms: C_19  and  C_20 
ROOT
ATOM      1  O   UNL d   1      23.302 -13.766  -3.895  0.00  0.00    -0.267 OA
ATOM      2  C   UNL d   1      24.525 -13.899  -3.929  0.00  0.00     0.259 C 
ATOM      3  N   UNL d   1      25.287 -13.312  -4.925  0.00  0.00    -0.263 N 
ATOM      4  H   UNL d   1      24.780 -12.802  -5.649  0.00  0.00     0.190 HD
ENDROOT
BRANCH   2   5
ATOM      5  C   UNL d   1      25.232 -14.675  -2.873  0.00  0.00     0.076 C 
ATOM      6  C   UNL d   1      25.155 -16.014  -2.768  0.00  0.00     0.019 C 
BRANCH   6   7
ATOM      7  C   UNL d   1      25.571 -16.735  -1.541  0.00  0.00    -0.003 A 
ATOM      8  C   UNL d   1      26.946 -16.700  -1.213  0.00  0.00     0.014 A 
ATOM      9  C   UNL d   1      27.465 -17.428  -0.130  0.00  0.00     0.001 A 
ATOM     10  C   UNL d   1      26.615 -18.153   0.694  0.00  0.00     0.002 A 
ATOM     11  C   UNL d   1      25.255 -18.201   0.404  0.00  0.00     0.037 A 
ATOM     12  C   UNL d   1      24.726 -17.521  -0.715  0.00  0.00     0.113 A 
BRANCH  12  13
ATOM     13  N   UNL d   1      23.271 -17.703  -0.934  0.00  0.00    -0.115 N 
ATOM     14  O   UNL d   1      22.530 -16.753  -0.659  0.00  0.00    -0.532 OA
ATOM     15  O   UNL d   1      22.842 -18.772  -1.393  0.00  0.00    -0.532 OA
ENDBRANCH  12  13
ENDBRANCH   6   7
ENDBRANCH   2   5
BRANCH   3  16
ATOM     16  N   UNL d   1      26.710 -13.342  -5.072  0.00  0.00    -0.249 N 
ATOM     17  C   UNL d   1      27.302 -14.510  -5.552  0.00  0.00     0.334 C 
ATOM     18  O   UNL d   1      26.666 -15.543  -5.756  0.00  0.00    -0.246 OA
ATOM     19  N   UNL d   1      28.673 -14.419  -5.722  0.00  0.00    -0.341 N 
ATOM     20  H   UNL d   1      29.137 -13.537  -5.580  0.00  0.00     0.164 HD
ATOM     21  H   UNL d   1      27.197 -12.462  -5.159  0.00  0.00     0.192 HD
BRANCH  19  22
ATOM     22  C   UNL d   1      29.464 -15.575  -6.149  0.00  0.00     0.129 C 
BRANCH  22  23
ATOM     23  C   UNL d   1      30.317 -16.163  -5.044  0.00  0.00     0.003 A 
ATOM     24  C   UNL d   1      29.664 -16.799  -3.828  0.00  0.00     0.007 A 
ATOM     25  C   UNL d   1      30.357 -17.669  -4.833  0.00  0.00     0.007 A 
ENDBRANCH  22  23
ENDBRANCH  19  22
ENDBRANCH   3  16
TORSDOF 6
ENDMDL
MODEL 2
REMARK VINA RESULT:    -6.284      4.337      6.525
REMARK INTER + INTRA:          -9.212
REMARK INTER:                  -8.073
REMARK INTRA:                  -1.139
REMARK CONF_INDEPENDENT:        1.790
REMARK UNBOUND:                -1.139
REMARK  6 active torsions:
REMARK  status: ('A' for Active; 'I' for Inactive)
REMARK    1  A    between atoms: C_2  and  C_3 
REMARK       I    between atoms: C_2  and  N_14 
REMARK    2  A    between atoms: C_4  and  C_5 
REMARK    3  A    between atoms: C_10  and  N_11 
REMARK    4  A    between atoms: N_14  and  N_15 
REMARK       I    between atoms: N_15  and  C_16 
REMARK       I    between atoms: C_16  and  N_18 
REMARK    5  A    between atoms: N_18  and  C_19 
REMARK    6  A    between atoms: C_19  and  C_20 
ROOT
ATOM      1  O   UNL d   1      30.816 -14.878  -2.477  0.00  0.00    -0.267 OA
ATOM      2  C   UNL d   1      30.220 -15.209  -1.453  0.00  0.00     0.259 C 
ATOM      3  N   UNL d   1      30.688 -14.856  -0.199  0.00  0.00    -0.263 N 
ATOM      4  H   UNL d   1      31.572 -14.347  -0.167  0.00  0.00     0.190 HD
ENDROOT
BRANCH   2   5
ATOM      5  C   UNL d   1      28.947 -15.978  -1.533  0.00  0.00     0.076 C 
ATOM      6  C   UNL d   1      27.734 -15.409  -1.401  0.00  0.00     0.019 C 
BRANCH   6   7
ATOM      7  C   UNL d   1      26.512 -16.208  -1.143  0.00  0.00    -0.003 A 
ATOM      8  C   UNL d   1      26.549 -17.096  -0.042  0.00  0.00     0.014 A 
ATOM      9  C   UNL d   1      25.486 -17.970   0.235  0.00  0.00     0.001 A 
ATOM     10  C   UNL d   1      24.332 -17.933  -0.536  0.00  0.00     0.002 A 
ATOM     11  C   UNL d   1      24.261 -17.065  -1.620  0.00  0.00     0.037 A 
ATOM     12  C   UNL d   1      25.344 -16.220  -1.947  0.00  0.00     0.113 A 
BRANCH  12  13
ATOM     13  N   UNL d   1      25.151 -15.387  -3.159  0.00  0.00    -0.115 N 
ATOM     14  O   UNL d   1      25.810 -15.680  -4.163  0.00  0.00    -0.532 OA
ATOM     15  O   UNL d   1      24.339 -14.450  -3.144  0.00  0.00    -0.532 OA
ENDBRANCH  12  13
ENDBRANCH   6   7
ENDBRANCH   2   5
BRANCH   3  16
ATOM     16  N   UNL d   1      30.086 -15.129   1.070  0.00  0.00    -0.249 N 
ATOM     17  C   UNL d   1      29.082 -14.274   1.525  0.00  0.00     0.334 C 
ATOM     18  O   UNL d   1      28.767 -13.243   0.932  0.00  0.00    -0.246 OA
ATOM     19  N   UNL d   1      28.517 -14.658   2.729  0.00  0.00    -0.341 N 
ATOM     20  H   UNL d   1      28.785 -15.532   3.150  0.00  0.00     0.164 HD
ATOM     21  H   UNL d   1      30.142 -16.071   1.429  0.00  0.00     0.192 HD
BRANCH  19  22
ATOM     22  C   UNL d   1      27.500 -13.836   3.387  0.00  0.00     0.129 C 
BRANCH  22  23
ATOM     23  C   UNL d   1      27.419 -14.060   4.883  0.00  0.00     0.003 A 
ATOM     24  C   UNL d   1      28.506 -14.842   5.601  0.00  0.00     0.007 A 
ATOM     25  C   UNL d   1      28.402 -13.363   5.811  0.00  0.00     0.007 A 
ENDBRANCH  22  23
ENDBRANCH  19  22
ENDBRANCH   3  16
TORSDOF 6
ENDMDL
MODEL 3
REMARK VINA RESULT:    -5.725      3.063      6.866
REMARK INTER + INTRA:         -10.554
REMARK INTER:                  -7.515
REMARK INTRA:                  -3.039
REMARK CONF_INDEPENDENT:        1.790
REMARK UNBOUND:                -3.039
REMARK  6 active torsions:
REMARK  status: ('A' for Active; 'I' for Inactive)
REMARK    1  A    between atoms: C_2  and  C_3 
REMARK       I    between atoms: C_2  and  N_14 
REMARK    2  A    between atoms: C_4  and  C_5 
REMARK    3  A    between atoms: C_10  and  N_11 
REMARK    4  A    between atoms: N_14  and  N_15 
REMARK       I    between atoms: N_15  and  C_16 
REMARK       I    between atoms: C_16  and  N_18 
REMARK    5  A    between atoms: N_18  and  C_19 
REMARK    6  A    between atoms: C_19  and  C_20 
ROOT
ATOM      1  O   UNL d   1      28.637 -15.122   1.030  0.00  0.00    -0.267 OA
ATOM      2  C   UNL d   1      27.810 -15.286   0.133  0.00  0.00     0.259 C 
ATOM      3  N   UNL d   1      26.934 -16.357   0.146  0.00  0.00    -0.263 N 
ATOM      4  H   UNL d   1      27.037 -17.024   0.912  0.00  0.00     0.190 HD
ENDROOT
BRANCH   2   5
ATOM      5  C   UNL d   1      27.704 -14.310  -0.987  0.00  0.00     0.076 C 
ATOM      6  C   UNL d   1      26.618 -13.544  -1.195  0.00  0.00     0.019 C 
BRANCH   6   7
ATOM      7  C   UNL d   1      26.383 -12.840  -2.479  0.00  0.00    -0.003 A 
ATOM      8  C   UNL d   1      26.756 -11.477  -2.539  0.00  0.00     0.014 A 
ATOM      9  C   UNL d   1      26.488 -10.689  -3.670  0.00  0.00     0.001 A 
ATOM     10  C   UNL d   1      25.905 -11.257  -4.795  0.00  0.00     0.002 A 
ATOM     11  C   UNL d   1      25.535 -12.598  -4.771  0.00  0.00     0.037 A 
ATOM     12  C   UNL d   1      25.745 -13.390  -3.620  0.00  0.00     0.113 A 
BRANCH  12  13
ATOM     13  N   UNL d   1      25.252 -14.785  -3.717  0.00  0.00    -0.115 N 
ATOM     14  O   UNL d   1      24.589 -15.222  -2.770  0.00  0.00    -0.532 OA
ATOM     15  O   UNL d   1      25.496 -15.460  -4.728  0.00  0.00    -0.532 OA
ENDBRANCH  12  13
ENDBRANCH   6   7
ENDBRANCH   2   5
BRANCH   3  16
ATOM     16  N   UNL d   1      25.899 -16.654  -0.796  0.00  0.00    -0.249 N 
ATOM     17  C   UNL d   1      24.974 -17.648  -0.474  0.00  0.00     0.334 C 
ATOM     18  O   UNL d   1      25.072 -18.346   0.534  0.00  0.00    -0.246 OA
ATOM     19  N   UNL d   1      23.974 -17.816  -1.416  0.00  0.00    -0.341 N 
ATOM     20  H   UNL d   1      23.919 -17.189  -2.202  0.00  0.00     0.164 HD
ATOM     21  H   UNL d   1      25.656 -15.946  -1.473  0.00  0.00     0.192 HD
BRANCH  19  22
ATOM     22  C   UNL d   1      22.963 -18.865  -1.273  0.00  0.00     0.129 C 
BRANCH  22  23
ATOM     23  C   UNL d   1      21.710 -18.401  -0.560  0.00  0.00     0.003 A 
ATOM     24  C   UNL d   1      20.363 -19.021  -0.895  0.00  0.00     0.007 A 
ATOM     25  C   UNL d   1      21.007 -19.325   0.423  0.00  0.00     0.007 A 
ENDBRANCH  22  23
ENDBRANCH  19  22
ENDBRANCH   3  16
TORSDOF 6
ENDMDL
MODEL 4
REMARK VINA RESULT:    -5.518      2.978      6.946
REMARK INTER + INTRA:         -10.147
REMARK INTER:                  -7.308
REMARK INTRA:                  -2.839
REMARK CONF_INDEPENDENT:        1.790
REMARK UNBOUND:                -2.839
REMARK  6 active torsions:
REMARK  status: ('A' for Active; 'I' for Inactive)
REMARK    1  A    between atoms: C_2  and  C_3 
REMARK       I    between atoms: C_2  and  N_14 
REMARK    2  A    between atoms: C_4  and  C_5 
REMARK    3  A    between atoms: C_10  and  N_11 
REMARK    4  A    between atoms: N_14  and  N_15 
REMARK       I    between atoms: N_15  and  C_16 
REMARK       I    between atoms: C_16  and  N_18 
REMARK    5  A    between atoms: N_18  and  C_19 
REMARK    6  A    between atoms: C_19  and  C_20 
ROOT
ATOM      1  O   UNL d   1      31.154 -17.784  -0.772  0.00  0.00    -0.267 OA
ATOM      2  C   UNL d   1      30.037 -17.529  -1.223  0.00  0.00     0.259 C 
ATOM      3  N   UNL d   1      28.887 -17.841  -0.518  0.00  0.00    -0.263 N 
ATOM      4  H   UNL d   1      29.011 -18.328   0.370  0.00  0.00     0.190 HD
ENDROOT
BRANCH   2   5
ATOM      5  C   UNL d   1      29.889 -16.842  -2.535  0.00  0.00     0.076 C 
ATOM      6  C   UNL d   1      29.127 -15.747  -2.711  0.00  0.00     0.019 C 
BRANCH   6   7
ATOM      7  C   UNL d   1      28.716 -15.279  -4.057  0.00  0.00    -0.003 A 
ATOM      8  C   UNL d   1      29.750 -15.002  -4.981  0.00  0.00     0.014 A 
ATOM      9  C   UNL d   1      29.480 -14.461  -6.248  0.00  0.00     0.001 A 
ATOM     10  C   UNL d   1      28.169 -14.246  -6.651  0.00  0.00     0.002 A 
ATOM     11  C   UNL d   1      27.128 -14.517  -5.768  0.00  0.00     0.037 A 
ATOM     12  C   UNL d   1      27.386 -15.007  -4.469  0.00  0.00     0.113 A 
BRANCH  12  13
ATOM     13  N   UNL d   1      26.187 -15.199  -3.618  0.00  0.00    -0.115 N 
ATOM     14  O   UNL d   1      25.101 -14.822  -4.071  0.00  0.00    -0.532 OA
ATOM     15  O   UNL d   1      26.296 -15.736  -2.505  0.00  0.00    -0.532 OA
ENDBRANCH  12  13
ENDBRANCH   6   7
ENDBRANCH   2   5
BRANCH   3  16
ATOM     16  N   UNL d   1      27.532 -17.571  -0.889  0.00  0.00    -0.249 N 
ATOM     17  C   UNL d   1      26.511 -18.071  -0.082  0.00  0.00     0.334 C 
ATOM     18  O   UNL d   1      26.723 -18.817   0.873  0.00  0.00    -0.246 OA
ATOM     19  N   UNL d   1      25.239 -17.701  -0.485  0.00  0.00    -0.341 N 
ATOM     20  H   UNL d   1      25.126 -17.056  -1.250  0.00  0.00     0.164 HD
ATOM     21  H   UNL d   1      27.353 -16.778  -1.488  0.00  0.00     0.192 HD
BRANCH  19  22
ATOM     22  C   UNL d   1      24.048 -18.198   0.206  0.00  0.00     0.129 C 
BRANCH  22  23
ATOM     23  C   UNL d   1      22.951 -18.653  -0.735  0.00  0.00     0.003 A 
ATOM     24  C   UNL d   1      21.619 -19.134  -0.183  0.00  0.00     0.007 A 
ATOM     25  C   UNL d   1      21.690 -17.817  -0.894  0.00  0.00     0.007 A 
ENDBRANCH  22  23
ENDBRANCH  19  22
ENDBRANCH   3  16
TORSDOF 6
ENDMDL
MODEL 5
REMARK VINA RESULT:    -5.330      2.401      6.781
REMARK INTER + INTRA:          -9.937
REMARK INTER:                  -7.120
REMARK INTRA:                  -2.817
REMARK CONF_INDEPENDENT:        1.790
REMARK UNBOUND:                -2.817
REMARK  6 active torsions:
REMARK  status: ('A' for Active; 'I' for Inactive)
REMARK    1  A    between atoms: C_2  and  C_3 
REMARK       I    between atoms: C_2  and  N_14 
REMARK    2  A    between atoms: C_4  and  C_5 
REMARK    3  A    between atoms: C_10  and  N_11 
REMARK    4  A    between atoms: N_14  and  N_15 
REMARK       I    between atoms: N_15  and  C_16 
REMARK       I    between atoms: C_16  and  N_18 
REMARK    5  A    between atoms: N_18  and  C_19 
REMARK    6  A    between atoms: C_19  and  C_20 
ROOT
ATOM      1  O   UNL d   1      25.652 -10.299  -6.053  0.00  0.00    -0.267 OA
ATOM      2  C   UNL d   1      26.231 -11.330  -5.713  0.00  0.00     0.259 C 
ATOM      3  N   UNL d   1      25.664 -12.210  -4.806  0.00  0.00    -0.263 N 
ATOM      4  H   UNL d   1      24.766 -11.939  -4.405  0.00  0.00     0.190 HD
ENDROOT
BRANCH   2   5
ATOM      5  C   UNL d   1      27.555 -11.683  -6.295  0.00  0.00     0.076 C 
ATOM      6  C   UNL d   1      27.781 -12.823  -6.972  0.00  0.00     0.019 C 
BRANCH   6   7
ATOM      7  C   UNL d   1      29.151 -13.320  -7.247  0.00  0.00    -0.003 A 
ATOM      8  C   UNL d   1      29.958 -12.532  -8.101  0.00  0.00     0.014 A 
ATOM      9  C   UNL d   1      31.233 -12.956  -8.507  0.00  0.00     0.001 A 
ATOM     10  C   UNL d   1      31.764 -14.142  -8.017  0.00  0.00     0.002 A 
ATOM     11  C   UNL d   1      30.999 -14.936  -7.169  0.00  0.00     0.037 A 
ATOM     12  C   UNL d   1      29.692 -14.552  -6.797  0.00  0.00     0.113 A 
BRANCH  12  13
ATOM     13  N   UNL d   1      28.973 -15.519  -5.933  0.00  0.00    -0.115 N 
ATOM     14  O   UNL d   1      27.832 -15.216  -5.564  0.00  0.00    -0.532 OA
ATOM     15  O   UNL d   1      29.511 -16.591  -5.621  0.00  0.00    -0.532 OA
ENDBRANCH  12  13
ENDBRANCH   6   7
ENDBRANCH   2   5
BRANCH   3  16
ATOM     16  N   UNL d   1      26.193 -13.459  -4.350  0.00  0.00    -0.249 N 
ATOM     17  C   UNL d   1      25.319 -14.376  -3.766  0.00  0.00     0.334 C 
ATOM     18  O   UNL d   1      24.139 -14.115  -3.535  0.00  0.00    -0.246 OA
ATOM     19  N   UNL d   1      25.911 -15.578  -3.419  0.00  0.00    -0.341 N 
ATOM     20  H   UNL d   1      26.870 -15.753  -3.668  0.00  0.00     0.164 HD
ATOM     21  H   UNL d   1      27.061 -13.782  -4.752  0.00  0.00     0.192 HD
BRANCH  19  22
ATOM     22  C   UNL d   1      25.155 -16.626  -2.729  0.00  0.00     0.129 C 
BRANCH  22  23
ATOM     23  C   UNL d   1      24.891 -16.317  -1.270  0.00  0.00     0.003 A 
ATOM     24  C   UNL d   1      23.734 -16.982  -0.543  0.00  0.00     0.007 A 
ATOM     25  C   UNL d   1      25.139 -17.379  -0.210  0.00  0.00     0.007 A 
ENDBRANCH  22  23
ENDBRANCH  19  22
ENDBRANCH   3  16
TORSDOF 6
ENDMDL
MODEL 6
REMARK VINA RESULT:    -4.476      2.623      4.105
REMARK INTER + INTRA:          -9.226
REMARK INTER:                  -6.266
REMARK INTRA:                  -2.960
REMARK CONF_INDEPENDENT:        1.790
REMARK UNBOUND:                -2.960
REMARK  6 active torsions:
REMARK  status: ('A' for Active; 'I' for Inactive)
REMARK    1  A    between atoms: C_2  and  C_3 
REMARK       I    between atoms: C_2  and  N_14 
REMARK    2  A    between atoms: C_4  and  C_5 
REMARK    3  A    between atoms: C_10  and  N_11 
REMARK    4  A    between atoms: N_14  and  N_15 
REMARK       I    between atoms: N_15  and  C_16 
REMARK       I    between atoms: C_16  and  N_18 
REMARK    5  A    between atoms: N_18  and  C_19 
REMARK    6  A    between atoms: C_19  and  C_20 
ROOT
ATOM      1  O   UNL d   1      30.231 -17.078   0.233  0.00  0.00    -0.267 OA
ATOM      2  C   UNL d   1      29.362 -16.456  -0.377  0.00  0.00     0.259 C 
ATOM      3  N   UNL d   1      29.688 -15.552  -1.374  0.00  0.00    -0.263 N 
ATOM      4  H   UNL d   1      30.682 -15.398  -1.545  0.00  0.00     0.190 HD
ENDROOT
BRANCH   2   5
ATOM      5  C   UNL d   1      27.920 -16.683  -0.083  0.00  0.00     0.076 C 
ATOM      6  C   UNL d   1      27.080 -17.289  -0.942  0.00  0.00     0.019 C 
BRANCH   6   7
ATOM      7  C   UNL d   1      25.607 -17.208  -0.796  0.00  0.00    -0.003 A 
ATOM      8  C   UNL d   1      24.983 -18.228  -0.040  0.00  0.00     0.014 A 
ATOM      9  C   UNL d   1      23.586 -18.305   0.080  0.00  0.00     0.001 A 
ATOM     10  C   UNL d   1      22.781 -17.328  -0.490  0.00  0.00     0.002 A 
ATOM     11  C   UNL d   1      23.364 -16.306  -1.232  0.00  0.00     0.037 A 
ATOM     12  C   UNL d   1      24.764 -16.247  -1.411  0.00  0.00     0.113 A 
BRANCH  12  13
ATOM     13  N   UNL d   1      25.244 -15.136  -2.269  0.00  0.00    -0.115 N 
ATOM     14  O   UNL d   1      24.780 -15.057  -3.412  0.00  0.00    -0.532 OA
ATOM     15  O   UNL d   1      26.066 -14.321  -1.825  0.00  0.00    -0.532 OA
ENDBRANCH  12  13
ENDBRANCH   6   7
ENDBRANCH   2   5
BRANCH   3  16
ATOM     16  N   UNL d   1      28.794 -14.793  -2.194  0.00  0.00    -0.249 N 
ATOM     17  C   UNL d   1      28.497 -15.271  -3.470  0.00  0.00     0.334 C 
ATOM     18  O   UNL d   1      29.048 -16.258  -3.955  0.00  0.00    -0.246 OA
ATOM     19  N   UNL d   1      27.574 -14.504  -4.159  0.00  0.00    -0.341 N 
ATOM     20  H   UNL d   1      27.124 -13.729  -3.699  0.00  0.00     0.164 HD
ATOM     21  H   UNL d   1      28.158 -14.155  -1.738  0.00  0.00     0.192 HD
BRANCH  19  22
ATOM     22  C   UNL d   1      27.202 -14.820  -5.540  0.00  0.00     0.129 C 
BRANCH  22  23
ATOM     23  C   UNL d   1      28.196 -14.312  -6.563  0.00  0.00     0.003 A 
ATOM     24  C   UNL d   1      29.538 -13.756  -6.118  0.00  0.00     0.007 A 
ATOM     25  C   UNL d   1      29.484 -15.079  -6.819  0.00  0.00     0.007 A 
ENDBRANCH  22  23
ENDBRANCH  19  22
ENDBRANCH   3  16
TORSDOF 6
ENDMDL
MODEL 7
REMARK VINA RESULT:    -4.415      4.002      5.927
REMARK INTER + INTRA:          -9.180
REMARK INTER:                  -6.205
REMARK INTRA:                  -2.974
REMARK CONF_INDEPENDENT:        1.790
REMARK UNBOUND:                -2.974
REMARK  6 active torsions:
REMARK  status: ('A' for Active; 'I' for Inactive)
REMARK    1  A    between atoms: C_2  and  C_3 
REMARK       I    between atoms: C_2  and  N_14 
REMARK    2  A    between atoms: C_4  and  C_5 
REMARK    3  A    between atoms: C_10  and  N_11 
REMARK    4  A    between atoms: N_14  and  N_15 
REMARK       I    between atoms: N_15  and  C_16 
REMARK       I    between atoms: C_16  and  N_18 
REMARK    5  A    between atoms: N_18  and  C_19 
REMARK    6  A    between atoms: C_19  and  C_20 
ROOT
ATOM      1  O   UNL d   1      28.595 -11.162   0.422  0.00  0.00    -0.267 OA
ATOM      2  C   UNL d   1      27.747 -11.514  -0.397  0.00  0.00     0.259 C 
ATOM      3  N   UNL d   1      27.396 -10.705  -1.465  0.00  0.00    -0.263 N 
ATOM      4  H   UNL d   1      27.844  -9.789  -1.512  0.00  0.00     0.190 HD
ENDROOT
BRANCH   2   5
ATOM      5  C   UNL d   1      27.090 -12.845  -0.284  0.00  0.00     0.076 C 
ATOM      6  C   UNL d   1      27.309 -13.850  -1.151  0.00  0.00     0.019 C 
BRANCH   6   7
ATOM      7  C   UNL d   1      26.415 -15.031  -1.234  0.00  0.00    -0.003 A 
ATOM      8  C   UNL d   1      26.530 -15.993  -0.204  0.00  0.00     0.014 A 
ATOM      9  C   UNL d   1      25.804 -17.195  -0.234  0.00  0.00     0.001 A 
ATOM     10  C   UNL d   1      24.895 -17.436  -1.256  0.00  0.00     0.002 A 
ATOM     11  C   UNL d   1      24.752 -16.505  -2.280  0.00  0.00     0.037 A 
ATOM     12  C   UNL d   1      25.517 -15.317  -2.294  0.00  0.00     0.113 A 
BRANCH  12  13
ATOM     13  N   UNL d   1      25.302 -14.443  -3.472  0.00  0.00    -0.115 N 
ATOM     14  O   UNL d   1      25.238 -14.986  -4.581  0.00  0.00    -0.532 OA
ATOM     15  O   UNL d   1      25.176 -13.219  -3.321  0.00  0.00    -0.532 OA
ENDBRANCH  12  13
ENDBRANCH   6   7
ENDBRANCH   2   5
BRANCH   3  16
ATOM     16  N   UNL d   1      26.467 -10.993  -2.514  0.00  0.00    -0.249 N 
ATOM     17  C   UNL d   1      26.411 -10.127  -3.606  0.00  0.00     0.334 C 
ATOM     18  O   UNL d   1      27.050  -9.078  -3.656  0.00  0.00    -0.246 OA
ATOM     19  N   UNL d   1      25.531 -10.526  -4.597  0.00  0.00    -0.341 N 
ATOM     20  H   UNL d   1      25.064 -11.414  -4.523  0.00  0.00     0.164 HD
ATOM     21  H   UNL d   1      26.141 -11.944  -2.611  0.00  0.00     0.192 HD
BRANCH  19  22
ATOM     22  C   UNL d   1      25.293  -9.697  -5.781  0.00  0.00     0.129 C 
BRANCH  22  23
ATOM     23  C   UNL d   1      24.765  -8.315  -5.453  0.00  0.00     0.003 A 
ATOM     24  C   UNL d   1      24.080  -7.483  -6.525  0.00  0.00     0.007 A 
ATOM     25  C   UNL d   1      23.266  -8.064  -5.410  0.00  0.00     0.007 A 
ENDBRANCH  22  23
ENDBRANCH  19  22
ENDBRANCH   3  16
TORSDOF 6
ENDMDL
MODEL 8
REMARK VINA RESULT:    -4.329      3.012      5.555
REMARK INTER + INTRA:          -9.257
REMARK INTER:                  -6.119
REMARK INTRA:                  -3.138
REMARK CONF_INDEPENDENT:        1.790
REMARK UNBOUND:                -3.138
REMARK  6 active torsions:
REMARK  status: ('A' for Active; 'I' for Inactive)
REMARK    1  A    between atoms: C_2  and  C_3 
REMARK       I    between atoms: C_2  and  N_14 
REMARK    2  A    between atoms: C_4  and  C_5 
REMARK    3  A    between atoms: C_10  and  N_11 
REMARK    4  A    between atoms: N_14  and  N_15 
REMARK       I    between atoms: N_15  and  C_16 
REMARK       I    between atoms: C_16  and  N_18 
REMARK    5  A    between atoms: N_18  and  C_19 
REMARK    6  A    between atoms: C_19  and  C_20 
ROOT
ATOM      1  O   UNL d   1      27.291 -17.670   0.975  0.00  0.00    -0.267 OA
ATOM      2  C   UNL d   1      27.785 -17.196  -0.048  0.00  0.00     0.259 C 
ATOM      3  N   UNL d   1      29.021 -17.614  -0.512  0.00  0.00    -0.263 N 
ATOM      4  H   UNL d   1      29.517 -18.299   0.059  0.00  0.00     0.190 HD
ENDROOT
BRANCH   2   5
ATOM      5  C   UNL d   1      27.048 -16.175  -0.842  0.00  0.00     0.076 C 
ATOM      6  C   UNL d   1      26.625 -16.388  -2.102  0.00  0.00     0.019 C 
BRANCH   6   7
ATOM      7  C   UNL d   1      26.206 -15.278  -2.991  0.00  0.00    -0.003 A 
ATOM      8  C   UNL d   1      24.949 -14.686  -2.726  0.00  0.00     0.014 A 
ATOM      9  C   UNL d   1      24.409 -13.696  -3.563  0.00  0.00     0.001 A 
ATOM     10  C   UNL d   1      25.140 -13.223  -4.646  0.00  0.00     0.002 A 
ATOM     11  C   UNL d   1      26.383 -13.779  -4.929  0.00  0.00     0.037 A 
ATOM     12  C   UNL d   1      26.914 -14.816  -4.130  0.00  0.00     0.113 A 
BRANCH  12  13
ATOM     13  N   UNL d   1      28.222 -15.350  -4.579  0.00  0.00    -0.115 N 
ATOM     14  O   UNL d   1      28.360 -15.579  -5.786  0.00  0.00    -0.532 OA
ATOM     15  O   UNL d   1      29.132 -15.535  -3.757  0.00  0.00    -0.532 OA
ENDBRANCH  12  13
ENDBRANCH   6   7
ENDBRANCH   2   5
BRANCH   3  16
ATOM     16  N   UNL d   1      29.700 -17.190  -1.698  0.00  0.00    -0.249 N 
ATOM     17  C   UNL d   1      30.670 -18.032  -2.243  0.00  0.00     0.334 C 
ATOM     18  O   UNL d   1      31.035 -19.070  -1.693  0.00  0.00    -0.246 OA
ATOM     19  N   UNL d   1      31.221 -17.566  -3.424  0.00  0.00    -0.341 N 
ATOM     20  H   UNL d   1      30.856 -16.731  -3.851  0.00  0.00     0.164 HD
ATOM     21  H   UNL d   1      29.249 -16.501  -2.282  0.00  0.00     0.192 HD
BRANCH  19  22
ATOM     22  C   UNL d   1      32.305 -18.289  -4.094  0.00  0.00     0.129 C 
BRANCH  22  23
ATOM     23  C   UNL d   1      31.831 -19.162  -5.237  0.00  0.00     0.003 A 
ATOM     24  C   UNL d   1      30.404 -19.681  -5.265  0.00  0.00     0.007 A 
ATOM     25  C   UNL d   1      30.822 -18.622  -6.239  0.00  0.00     0.007 A 
ENDBRANCH  22  23
ENDBRANCH  19  22
ENDBRANCH   3  16
TORSDOF 6
ENDMDL
MODEL 9
REMARK VINA RESULT:    -4.001      2.906      3.751
REMARK INTER + INTRA:          -9.132
REMARK INTER:                  -5.791
REMARK INTRA:                  -3.341
REMARK CONF_INDEPENDENT:        1.790
REMARK UNBOUND:                -3.341
REMARK  6 active torsions:
REMARK  status: ('A' for Active; 'I' for Inactive)
REMARK    1  A    between atoms: C_2  and  C_3 
REMARK       I    between atoms: C_2  and  N_14 
REMARK    2  A    between atoms: C_4  and  C_5 
REMARK    3  A    between atoms: C_10  and  N_11 
REMARK    4  A    between atoms: N_14  and  N_15 
REMARK       I    between atoms: N_15  and  C_16 
REMARK       I    between atoms: C_16  and  N_18 
REMARK    5  A    between atoms: N_18  and  C_19 
REMARK    6  A    between atoms: C_19  and  C_20 
ROOT
ATOM      1  O   UNL d   1      28.176 -11.296   0.900  0.00  0.00    -0.267 OA
ATOM      2  C   UNL d   1      27.545 -11.784  -0.036  0.00  0.00     0.259 C 
ATOM      3  N   UNL d   1      27.397 -11.109  -1.236  0.00  0.00    -0.263 N 
ATOM      4  H   UNL d   1      27.800 -10.173  -1.288  0.00  0.00     0.190 HD
ENDROOT
BRANCH   2   5
ATOM      5  C   UNL d   1      26.943 -13.141   0.081  0.00  0.00     0.076 C 
ATOM      6  C   UNL d   1      27.208 -14.141  -0.779  0.00  0.00     0.019 C 
BRANCH   6   7
ATOM      7  C   UNL d   1      26.364 -15.357  -0.860  0.00  0.00    -0.003 A 
ATOM      8  C   UNL d   1      26.565 -16.342   0.136  0.00  0.00     0.014 A 
ATOM      9  C   UNL d   1      25.892 -17.574   0.100  0.00  0.00     0.001 A 
ATOM     10  C   UNL d   1      24.951 -17.827  -0.891  0.00  0.00     0.002 A 
ATOM     11  C   UNL d   1      24.724 -16.875  -1.879  0.00  0.00     0.037 A 
ATOM     12  C   UNL d   1      25.435 -15.655  -1.890  0.00  0.00     0.113 A 
BRANCH  12  13
ATOM     13  N   UNL d   1      25.131 -14.758  -3.031  0.00  0.00    -0.115 N 
ATOM     14  O   UNL d   1      24.877 -13.576  -2.776  0.00  0.00    -0.532 OA
ATOM     15  O   UNL d   1      25.155 -15.200  -4.190  0.00  0.00    -0.532 OA
ENDBRANCH  12  13
ENDBRANCH   6   7
ENDBRANCH   2   5
BRANCH   3  16
ATOM     16  N   UNL d   1      26.733 -11.562  -2.420  0.00  0.00    -0.249 N 
ATOM     17  C   UNL d   1      27.509 -12.059  -3.467  0.00  0.00     0.334 C 
ATOM     18  O   UNL d   1      28.738 -12.029  -3.456  0.00  0.00    -0.246 OA
ATOM     19  N   UNL d   1      26.773 -12.533  -4.539  0.00  0.00    -0.341 N 
ATOM     20  H   UNL d   1      25.769 -12.572  -4.478  0.00  0.00     0.164 HD
ATOM     21  H   UNL d   1      25.762 -11.829  -2.346  0.00  0.00     0.192 HD
BRANCH  19  22
ATOM     22  C   UNL d   1      27.428 -13.023  -5.754  0.00  0.00     0.129 C 
BRANCH  22  23
ATOM     23  C   UNL d   1      27.535 -14.533  -5.814  0.00  0.00     0.003 A 
ATOM     24  C   UNL d   1      28.879 -15.197  -6.062  0.00  0.00     0.007 A 
ATOM     25  C   UNL d   1      28.249 -15.290  -4.706  0.00  0.00     0.007 A 
ENDBRANCH  22  23
ENDBRANCH  19  22
ENDBRANCH   3  16
TORSDOF 6
ENDMDL
