MODEL 1
REMARK VINA RESULT:    -7.984      0.000      0.000
REMARK INTER + INTRA:          -9.934
REMARK INTER:                  -9.177
REMARK INTRA:                  -0.757
REMARK CONF_INDEPENDENT:        1.193
REMARK UNBOUND:                -0.757
REMARK  4 active torsions:
REMARK  status: ('A' for Active; 'I' for Inactive)
REMARK    1  A    between atoms: C_7  and  N_8 
REMARK       I    between atoms: N_8  and  C_9 
REMARK    2  A    between atoms: C_11  and  C_9 
REMARK    3  A    between atoms: C_11  and  N_13 
REMARK       I    between atoms: N_13  and  C_14 
REMARK    4  A    between atoms: C_14  and  C_16 
ROOT
ATOM      1  C   UNL d   1      27.751 -16.203   0.491  0.00  0.00     0.173 C 
ATOM      2  C   UNL d   1      28.380 -15.931  -0.890  0.00  0.00     0.042 C 
ENDROOT
BRANCH   1   3
ATOM      3  N   UNL d   1      26.462 -16.892   0.354  0.00  0.00    -0.344 N 
ATOM      4  C   UNL d   1      25.449 -16.384  -0.425  0.00  0.00     0.252 C 
ATOM      5  O   UNL d   1      25.565 -15.357  -1.095  0.00  0.00    -0.268 OA
ATOM      6  H   UNL d   1      26.336 -17.768   0.847  0.00  0.00     0.163 HD
BRANCH   4   7
ATOM      7  C   UNL d   1      24.229 -17.190  -0.581  0.00  0.00     0.032 A 
ATOM      8  C   UNL d   1      24.282 -18.572  -0.438  0.00  0.00     0.018 A 
ATOM      9  C   UNL d   1      23.101 -19.311  -0.521  0.00  0.00     0.025 A 
ATOM     10  C   UNL d   1      21.882 -18.671  -0.759  0.00  0.00     0.034 A 
ATOM     11 CL   UNL d   1      20.440 -19.599  -0.875  0.00  0.00    -0.084 Cl
ATOM     12  C   UNL d   1      21.824 -17.287  -0.895  0.00  0.00     0.025 A 
ATOM     13  C   UNL d   1      23.000 -16.546  -0.795  0.00  0.00     0.018 A 
ENDBRANCH   4   7
ENDBRANCH   1   3
BRANCH   1  14
ATOM     14  C   UNL d   1      27.699 -14.832   1.219  0.00  0.00     0.244 C 
ATOM     15  N   UNL d   1      27.956 -14.833   2.584  0.00  0.00    -0.325 N 
ATOM     16  H   UNL d   1      28.275 -15.705   2.990  0.00  0.00     0.169 HD
ATOM     17  O   UNL d   1      27.543 -13.820   0.533  0.00  0.00    -0.271 OA
BRANCH  15  18
ATOM     18  C   UNL d   1      27.963 -13.712   3.444  0.00  0.00     0.041 A 
ATOM     19  C   UNL d   1      28.181 -13.849   4.831  0.00  0.00    -0.035 A 
ATOM     20  C   UNL d   1      28.164 -12.696   5.640  0.00  0.00     0.009 A 
ATOM     21  C   UNL d   1      28.405 -15.171   5.507  0.00  0.00     0.050 C 
ATOM     22  C   UNL d   1      27.948 -11.431   5.090  0.00  0.00     0.007 A 
ATOM     23  C   UNL d   1      27.745 -11.297   3.725  0.00  0.00    -0.060 A 
ATOM     24  C   UNL d   1      27.519  -9.980   3.055  0.00  0.00     0.048 C 
ATOM     25  C   UNL d   1      27.749 -12.436   2.927  0.00  0.00     0.037 A 
ENDBRANCH  15  18
ENDBRANCH   1  14
TORSDOF 4
ENDMDL
MODEL 2
REMARK VINA RESULT:    -7.340      5.273      8.086
REMARK INTER + INTRA:         -10.176
REMARK INTER:                  -8.533
REMARK INTRA:                  -1.643
REMARK CONF_INDEPENDENT:        1.193
REMARK UNBOUND:                -1.643
REMARK  4 active torsions:
REMARK  status: ('A' for Active; 'I' for Inactive)
REMARK    1  A    between atoms: C_7  and  N_8 
REMARK       I    between atoms: N_8  and  C_9 
REMARK    2  A    between atoms: C_11  and  C_9 
REMARK    3  A    between atoms: C_11  and  N_13 
REMARK       I    between atoms: N_13  and  C_14 
REMARK    4  A    between atoms: C_14  and  C_16 
ROOT
ATOM      1  C   UNL d   1      26.417 -13.434  -3.446  0.00  0.00     0.173 C 
ATOM      2  C   UNL d   1      25.206 -13.433  -4.399  0.00  0.00     0.042 C 
ENDROOT
BRANCH   1   3
ATOM      3  N   UNL d   1      27.639 -13.842  -4.151  0.00  0.00    -0.344 N 
ATOM      4  C   UNL d   1      27.656 -14.917  -5.008  0.00  0.00     0.252 C 
ATOM      5  O   UNL d   1      26.652 -15.575  -5.282  0.00  0.00    -0.268 OA
ATOM      6  H   UNL d   1      28.480 -13.299  -3.996  0.00  0.00     0.163 HD
BRANCH   4   7
ATOM      7  C   UNL d   1      28.900 -15.193  -5.743  0.00  0.00     0.032 A 
ATOM      8  C   UNL d   1      29.406 -14.253  -6.635  0.00  0.00     0.018 A 
ATOM      9  C   UNL d   1      30.623 -14.505  -7.270  0.00  0.00     0.025 A 
ATOM     10  C   UNL d   1      31.316 -15.693  -7.024  0.00  0.00     0.034 A 
ATOM     11 CL   UNL d   1      32.805 -15.993  -7.829  0.00  0.00    -0.084 Cl
ATOM     12  C   UNL d   1      30.816 -16.632  -6.127  0.00  0.00     0.025 A 
ATOM     13  C   UNL d   1      29.609 -16.374  -5.478  0.00  0.00     0.018 A 
ENDBRANCH   4   7
ENDBRANCH   1   3
BRANCH   1  14
ATOM     14  C   UNL d   1      26.016 -14.326  -2.240  0.00  0.00     0.244 C 
ATOM     15  N   UNL d   1      25.637 -15.632  -2.518  0.00  0.00    -0.325 N 
ATOM     16  H   UNL d   1      25.760 -15.952  -3.472  0.00  0.00     0.169 HD
ATOM     17  O   UNL d   1      26.160 -13.862  -1.107  0.00  0.00    -0.271 OA
BRANCH  15  18
ATOM     18  C   UNL d   1      25.235 -16.615  -1.586  0.00  0.00     0.041 A 
ATOM     19  C   UNL d   1      26.155 -17.202  -0.691  0.00  0.00    -0.035 A 
ATOM     20  C   UNL d   1      25.698 -18.186   0.206  0.00  0.00     0.009 A 
ATOM     21  C   UNL d   1      27.616 -16.855  -0.660  0.00  0.00     0.050 C 
ATOM     22  C   UNL d   1      24.357 -18.575   0.230  0.00  0.00     0.007 A 
ATOM     23  C   UNL d   1      23.452 -17.989  -0.642  0.00  0.00    -0.060 A 
ATOM     24  C   UNL d   1      21.999 -18.339  -0.674  0.00  0.00     0.048 C 
ATOM     25  C   UNL d   1      23.905 -17.027  -1.538  0.00  0.00     0.037 A 
ENDBRANCH  15  18
ENDBRANCH   1  14
TORSDOF 4
ENDMDL
MODEL 3
REMARK VINA RESULT:    -7.209      1.035      2.386
REMARK INTER + INTRA:          -9.984
REMARK INTER:                  -8.402
REMARK INTRA:                  -1.582
REMARK CONF_INDEPENDENT:        1.193
REMARK UNBOUND:                -1.582
REMARK  4 active torsions:
REMARK  status: ('A' for Active; 'I' for Inactive)
REMARK    1  A    between atoms: C_7  and  N_8 
REMARK       I    between atoms: N_8  and  C_9 
REMARK    2  A    between atoms: C_11  and  C_9 
REMARK    3  A    between atoms: C_11  and  N_13 
REMARK       I    between atoms: N_13  and  C_14 
REMARK    4  A    between atoms: C_14  and  C_16 
ROOT
ATOM      1  C   UNL d   1      28.349 -16.672  -0.507  0.00  0.00     0.173 C 
ATOM      2  C   UNL d   1      28.559 -15.961  -1.858  0.00  0.00     0.042 C 
ENDROOT
BRANCH   1   3
ATOM      3  N   UNL d   1      27.008 -17.264  -0.428  0.00  0.00    -0.344 N 
ATOM      4  C   UNL d   1      25.872 -16.488  -0.434  0.00  0.00     0.252 C 
ATOM      5  O   UNL d   1      25.896 -15.263  -0.555  0.00  0.00    -0.268 OA
ATOM      6  H   UNL d   1      26.936 -18.273  -0.378  0.00  0.00     0.163 HD
BRANCH   4   7
ATOM      7  C   UNL d   1      24.570 -17.171  -0.450  0.00  0.00     0.032 A 
ATOM      8  C   UNL d   1      23.396 -16.434  -0.551  0.00  0.00     0.018 A 
ATOM      9  C   UNL d   1      22.175 -17.105  -0.633  0.00  0.00     0.025 A 
ATOM     10  C   UNL d   1      22.133 -18.501  -0.600  0.00  0.00     0.034 A 
ATOM     11 CL   UNL d   1      20.620 -19.311  -0.685  0.00  0.00    -0.084 Cl
ATOM     12  C   UNL d   1      23.308 -19.243  -0.506  0.00  0.00     0.025 A 
ATOM     13  C   UNL d   1      24.529 -18.574  -0.442  0.00  0.00     0.018 A 
ENDBRANCH   4   7
ENDBRANCH   1   3
BRANCH   1  14
ATOM     14  C   UNL d   1      28.679 -15.622   0.589  0.00  0.00     0.244 C 
ATOM     15  N   UNL d   1      27.652 -15.268   1.453  0.00  0.00    -0.325 N 
ATOM     16  H   UNL d   1      26.793 -15.802   1.387  0.00  0.00     0.169 HD
ATOM     17  O   UNL d   1      29.849 -15.250   0.697  0.00  0.00    -0.271 OA
BRANCH  15  18
ATOM     18  C   UNL d   1      27.722 -14.340   2.517  0.00  0.00     0.041 A 
ATOM     19  C   UNL d   1      27.368 -12.986   2.340  0.00  0.00    -0.035 A 
ATOM     20  C   UNL d   1      27.472 -12.107   3.434  0.00  0.00     0.009 A 
ATOM     21  C   UNL d   1      26.909 -12.416   1.028  0.00  0.00     0.050 C 
ATOM     22  C   UNL d   1      27.904 -12.556   4.683  0.00  0.00     0.007 A 
ATOM     23  C   UNL d   1      28.241 -13.889   4.859  0.00  0.00    -0.060 A 
ATOM     24  C   UNL d   1      28.701 -14.454   6.165  0.00  0.00     0.048 C 
ATOM     25  C   UNL d   1      28.152 -14.757   3.776  0.00  0.00     0.037 A 
ENDBRANCH  15  18
ENDBRANCH   1  14
TORSDOF 4
ENDMDL
MODEL 4
REMARK VINA RESULT:    -7.199      5.234      7.808
REMARK INTER + INTRA:         -10.060
REMARK INTER:                  -8.392
REMARK INTRA:                  -1.668
REMARK CONF_INDEPENDENT:        1.193
REMARK UNBOUND:                -1.668
REMARK  4 active torsions:
REMARK  status: ('A' for Active; 'I' for Inactive)
REMARK    1  A    between atoms: C_7  and  N_8 
REMARK       I    between atoms: N_8  and  C_9 
REMARK    2  A    between atoms: C_11  and  C_9 
REMARK    3  A    between atoms: C_11  and  N_13 
REMARK       I    between atoms: N_13  and  C_14 
REMARK    4  A    between atoms: C_14  and  C_16 
ROOT
ATOM      1  C   UNL d   1      26.826 -14.128  -4.087  0.00  0.00     0.173 C 
ATOM      2  C   UNL d   1      25.963 -13.238  -5.003  0.00  0.00     0.042 C 
ENDROOT
BRANCH   1   3
ATOM      3  N   UNL d   1      27.763 -14.938  -4.875  0.00  0.00    -0.344 N 
ATOM      4  C   UNL d   1      28.852 -15.551  -4.300  0.00  0.00     0.252 C 
ATOM      5  O   UNL d   1      29.088 -15.507  -3.092  0.00  0.00    -0.268 OA
ATOM      6  H   UNL d   1      27.582 -15.046  -5.866  0.00  0.00     0.163 HD
BRANCH   4   7
ATOM      7  C   UNL d   1      29.681 -16.421  -5.147  0.00  0.00     0.032 A 
ATOM      8  C   UNL d   1      30.030 -17.694  -4.710  0.00  0.00     0.018 A 
ATOM      9  C   UNL d   1      30.759 -18.529  -5.557  0.00  0.00     0.025 A 
ATOM     10  C   UNL d   1      31.145 -18.086  -6.825  0.00  0.00     0.034 A 
ATOM     11 CL   UNL d   1      32.057 -19.122  -7.849  0.00  0.00    -0.084 Cl
ATOM     12  C   UNL d   1      30.791 -16.815  -7.269  0.00  0.00     0.025 A 
ATOM     13  C   UNL d   1      30.047 -15.987  -6.430  0.00  0.00     0.018 A 
ENDBRANCH   4   7
ENDBRANCH   1   3
BRANCH   1  14
ATOM     14  C   UNL d   1      25.832 -14.931  -3.204  0.00  0.00     0.244 C 
ATOM     15  N   UNL d   1      26.377 -15.836  -2.304  0.00  0.00    -0.325 N 
ATOM     16  H   UNL d   1      27.385 -15.828  -2.199  0.00  0.00     0.169 HD
ATOM     17  O   UNL d   1      24.635 -14.643  -3.275  0.00  0.00    -0.271 OA
BRANCH  15  18
ATOM     18  C   UNL d   1      25.669 -16.669  -1.407  0.00  0.00     0.041 A 
ATOM     19  C   UNL d   1      26.330 -17.371  -0.377  0.00  0.00    -0.035 A 
ATOM     20  C   UNL d   1      25.573 -18.196   0.478  0.00  0.00     0.009 A 
ATOM     21  C   UNL d   1      27.814 -17.312  -0.154  0.00  0.00     0.050 C 
ATOM     22  C   UNL d   1      24.190 -18.315   0.328  0.00  0.00     0.007 A 
ATOM     23  C   UNL d   1      23.541 -17.616  -0.678  0.00  0.00    -0.060 A 
ATOM     24  C   UNL d   1      22.064 -17.679  -0.900  0.00  0.00     0.048 C 
ATOM     25  C   UNL d   1      24.289 -16.811  -1.531  0.00  0.00     0.037 A 
ENDBRANCH  15  18
ENDBRANCH   1  14
TORSDOF 4
ENDMDL
MODEL 5
REMARK VINA RESULT:    -7.092      5.128      7.098
REMARK INTER + INTRA:          -9.513
REMARK INTER:                  -8.286
REMARK INTRA:                  -1.227
REMARK CONF_INDEPENDENT:        1.193
REMARK UNBOUND:                -1.227
REMARK  4 active torsions:
REMARK  status: ('A' for Active; 'I' for Inactive)
REMARK    1  A    between atoms: C_7  and  N_8 
REMARK       I    between atoms: N_8  and  C_9 
REMARK    2  A    between atoms: C_11  and  C_9 
REMARK    3  A    between atoms: C_11  and  N_13 
REMARK       I    between atoms: N_13  and  C_14 
REMARK    4  A    between atoms: C_14  and  C_16 
ROOT
ATOM      1  C   UNL d   1      26.272 -14.641  -2.772  0.00  0.00     0.173 C 
ATOM      2  C   UNL d   1      27.540 -15.396  -3.214  0.00  0.00     0.042 C 
ENDROOT
BRANCH   1   3
ATOM      3  N   UNL d   1      25.218 -15.577  -2.364  0.00  0.00    -0.344 N 
ATOM      4  C   UNL d   1      25.309 -16.309  -1.203  0.00  0.00     0.252 C 
ATOM      5  O   UNL d   1      26.243 -16.196  -0.409  0.00  0.00    -0.268 OA
ATOM      6  H   UNL d   1      24.405 -15.667  -2.962  0.00  0.00     0.163 HD
BRANCH   4   7
ATOM      7  C   UNL d   1      24.163 -17.149  -0.826  0.00  0.00     0.032 A 
ATOM      8  C   UNL d   1      22.874 -16.627  -0.858  0.00  0.00     0.018 A 
ATOM      9  C   UNL d   1      21.794 -17.460  -0.562  0.00  0.00     0.025 A 
ATOM     10  C   UNL d   1      22.007 -18.800  -0.225  0.00  0.00     0.034 A 
ATOM     11 CL   UNL d   1      20.667 -19.807   0.153  0.00  0.00    -0.084 Cl
ATOM     12  C   UNL d   1      23.295 -19.328  -0.200  0.00  0.00     0.025 A 
ATOM     13  C   UNL d   1      24.373 -18.501  -0.512  0.00  0.00     0.018 A 
ENDBRANCH   4   7
ENDBRANCH   1   3
BRANCH   1  14
ATOM     14  C   UNL d   1      25.902 -13.694  -3.947  0.00  0.00     0.244 C 
ATOM     15  N   UNL d   1      26.863 -12.775  -4.344  0.00  0.00    -0.325 N 
ATOM     16  H   UNL d   1      27.781 -12.861  -3.922  0.00  0.00     0.169 HD
ATOM     17  O   UNL d   1      24.830 -13.885  -4.525  0.00  0.00    -0.271 OA
BRANCH  15  18
ATOM     18  C   UNL d   1      26.748 -11.822  -5.381  0.00  0.00     0.041 A 
ATOM     19  C   UNL d   1      27.462 -11.959  -6.591  0.00  0.00    -0.035 A 
ATOM     20  C   UNL d   1      27.316 -10.971  -7.582  0.00  0.00     0.009 A 
ATOM     21  C   UNL d   1      28.400 -13.097  -6.873  0.00  0.00     0.050 C 
ATOM     22  C   UNL d   1      26.473  -9.875  -7.391  0.00  0.00     0.007 A 
ATOM     23  C   UNL d   1      25.763  -9.747  -6.207  0.00  0.00    -0.060 A 
ATOM     24  C   UNL d   1      24.832  -8.611  -5.926  0.00  0.00     0.048 C 
ATOM     25  C   UNL d   1      25.916 -10.716  -5.221  0.00  0.00     0.037 A 
ENDBRANCH  15  18
ENDBRANCH   1  14
TORSDOF 4
ENDMDL
MODEL 6
REMARK VINA RESULT:    -7.078      4.090      6.049
REMARK INTER + INTRA:          -9.954
REMARK INTER:                  -8.271
REMARK INTRA:                  -1.683
REMARK CONF_INDEPENDENT:        1.193
REMARK UNBOUND:                -1.683
REMARK  4 active torsions:
REMARK  status: ('A' for Active; 'I' for Inactive)
REMARK    1  A    between atoms: C_7  and  N_8 
REMARK       I    between atoms: N_8  and  C_9 
REMARK    2  A    between atoms: C_11  and  C_9 
REMARK    3  A    between atoms: C_11  and  N_13 
REMARK       I    between atoms: N_13  and  C_14 
REMARK    4  A    between atoms: C_14  and  C_16 
ROOT
ATOM      1  C   UNL d   1      28.199 -16.729  -0.515  0.00  0.00     0.173 C 
ATOM      2  C   UNL d   1      29.298 -17.810  -0.521  0.00  0.00     0.042 C 
ENDROOT
BRANCH   1   3
ATOM      3  N   UNL d   1      26.864 -17.338  -0.509  0.00  0.00    -0.344 N 
ATOM      4  C   UNL d   1      25.720 -16.579  -0.595  0.00  0.00     0.252 C 
ATOM      5  O   UNL d   1      25.735 -15.355  -0.733  0.00  0.00    -0.268 OA
ATOM      6  H   UNL d   1      26.802 -18.348  -0.448  0.00  0.00     0.163 HD
BRANCH   4   7
ATOM      7  C   UNL d   1      24.431 -17.280  -0.680  0.00  0.00     0.032 A 
ATOM      8  C   UNL d   1      24.373 -18.658  -0.502  0.00  0.00     0.018 A 
ATOM      9  C   UNL d   1      23.131 -19.295  -0.518  0.00  0.00     0.025 A 
ATOM     10  C   UNL d   1      21.962 -18.558  -0.724  0.00  0.00     0.034 A 
ATOM     11 CL   UNL d   1      20.443 -19.362  -0.758  0.00  0.00    -0.084 Cl
ATOM     12  C   UNL d   1      22.016 -17.178  -0.895  0.00  0.00     0.025 A 
ATOM     13  C   UNL d   1      23.254 -16.538  -0.862  0.00  0.00     0.018 A 
ENDBRANCH   4   7
ENDBRANCH   1   3
BRANCH   1  14
ATOM     14  C   UNL d   1      28.501 -15.799  -1.721  0.00  0.00     0.244 C 
ATOM     15  N   UNL d   1      27.535 -15.721  -2.715  0.00  0.00    -0.325 N 
ATOM     16  H   UNL d   1      26.650 -16.180  -2.531  0.00  0.00     0.169 HD
ATOM     17  O   UNL d   1      29.521 -15.109  -1.676  0.00  0.00    -0.271 OA
BRANCH  15  18
ATOM     18  C   UNL d   1      27.594 -14.945  -3.895  0.00  0.00     0.041 A 
ATOM     19  C   UNL d   1      26.637 -13.945  -4.169  0.00  0.00    -0.035 A 
ATOM     20  C   UNL d   1      26.741 -13.214  -5.368  0.00  0.00     0.009 A 
ATOM     21  C   UNL d   1      25.483 -13.632  -3.259  0.00  0.00     0.050 C 
ATOM     22  C   UNL d   1      27.776 -13.454  -6.273  0.00  0.00     0.007 A 
ATOM     23  C   UNL d   1      28.723 -14.429  -5.997  0.00  0.00    -0.060 A 
ATOM     24  C   UNL d   1      29.868 -14.741  -6.906  0.00  0.00     0.048 C 
ATOM     25  C   UNL d   1      28.614 -15.161  -4.819  0.00  0.00     0.037 A 
ENDBRANCH  15  18
ENDBRANCH   1  14
TORSDOF 4
ENDMDL
MODEL 7
REMARK VINA RESULT:    -6.751      4.045      5.759
REMARK INTER + INTRA:          -9.584
REMARK INTER:                  -7.944
REMARK INTRA:                  -1.640
REMARK CONF_INDEPENDENT:        1.193
REMARK UNBOUND:                -1.640
REMARK  4 active torsions:
REMARK  status: ('A' for Active; 'I' for Inactive)
REMARK    1  A    between atoms: C_7  and  N_8 
REMARK       I    between atoms: N_8  and  C_9 
REMARK    2  A    between atoms: C_11  and  C_9 
REMARK    3  A    between atoms: C_11  and  N_13 
REMARK       I    between atoms: N_13  and  C_14 
REMARK    4  A    between atoms: C_14  and  C_16 
ROOT
ATOM      1  C   UNL d   1      28.164 -16.670  -0.480  0.00  0.00     0.173 C 
ATOM      2  C   UNL d   1      29.274 -17.738  -0.537  0.00  0.00     0.042 C 
ENDROOT
BRANCH   1   3
ATOM      3  N   UNL d   1      26.836 -17.294  -0.471  0.00  0.00    -0.344 N 
ATOM      4  C   UNL d   1      25.684 -16.546  -0.405  0.00  0.00     0.252 C 
ATOM      5  O   UNL d   1      25.682 -15.315  -0.400  0.00  0.00    -0.268 OA
ATOM      6  H   UNL d   1      26.785 -18.305  -0.525  0.00  0.00     0.163 HD
BRANCH   4   7
ATOM      7  C   UNL d   1      24.397 -17.251  -0.500  0.00  0.00     0.032 A 
ATOM      8  C   UNL d   1      24.315 -18.601  -0.176  0.00  0.00     0.018 A 
ATOM      9  C   UNL d   1      23.072 -19.234  -0.207  0.00  0.00     0.025 A 
ATOM     10  C   UNL d   1      21.926 -18.523  -0.572  0.00  0.00     0.034 A 
ATOM     11 CL   UNL d   1      20.405 -19.323  -0.621  0.00  0.00    -0.084 Cl
ATOM     12  C   UNL d   1      22.003 -17.170  -0.889  0.00  0.00     0.025 A 
ATOM     13  C   UNL d   1      23.241 -16.532  -0.842  0.00  0.00     0.018 A 
ENDBRANCH   4   7
ENDBRANCH   1   3
BRANCH   1  14
ATOM     14  C   UNL d   1      28.437 -15.701  -1.663  0.00  0.00     0.244 C 
ATOM     15  N   UNL d   1      27.406 -15.509  -2.572  0.00  0.00    -0.325 N 
ATOM     16  H   UNL d   1      26.508 -15.919  -2.340  0.00  0.00     0.169 HD
ATOM     17  O   UNL d   1      29.502 -15.081  -1.666  0.00  0.00    -0.271 OA
BRANCH  15  18
ATOM     18  C   UNL d   1      27.428 -14.679  -3.716  0.00  0.00     0.041 A 
ATOM     19  C   UNL d   1      28.206 -15.004  -4.847  0.00  0.00    -0.035 A 
ATOM     20  C   UNL d   1      28.198 -14.130  -5.951  0.00  0.00     0.009 A 
ATOM     21  C   UNL d   1      29.073 -16.227  -4.932  0.00  0.00     0.050 C 
ATOM     22  C   UNL d   1      27.429 -12.966  -5.946  0.00  0.00     0.007 A 
ATOM     23  C   UNL d   1      26.656 -12.653  -4.837  0.00  0.00    -0.060 A 
ATOM     24  C   UNL d   1      25.796 -11.433  -4.754  0.00  0.00     0.048 C 
ATOM     25  C   UNL d   1      26.673 -13.508  -3.741  0.00  0.00     0.037 A 
ENDBRANCH  15  18
ENDBRANCH   1  14
TORSDOF 4
ENDMDL
MODEL 8
REMARK VINA RESULT:    -6.668      4.525      6.802
REMARK INTER + INTRA:          -9.480
REMARK INTER:                  -7.862
REMARK INTRA:                  -1.619
REMARK CONF_INDEPENDENT:        1.193
REMARK UNBOUND:                -1.619
REMARK  4 active torsions:
REMARK  status: ('A' for Active; 'I' for Inactive)
REMARK    1  A    between atoms: C_7  and  N_8 
REMARK       I    between atoms: N_8  and  C_9 
REMARK    2  A    between atoms: C_11  and  C_9 
REMARK    3  A    between atoms: C_11  and  N_13 
REMARK       I    between atoms: N_13  and  C_14 
REMARK    4  A    between atoms: C_14  and  C_16 
ROOT
ATOM      1  C   UNL d   1      26.474 -14.492  -3.277  0.00  0.00     0.173 C 
ATOM      2  C   UNL d   1      27.237 -13.795  -2.134  0.00  0.00     0.042 C 
ENDROOT
BRANCH   1   3
ATOM      3  N   UNL d   1      25.414 -15.358  -2.748  0.00  0.00    -0.344 N 
ATOM      4  C   UNL d   1      25.664 -16.300  -1.776  0.00  0.00     0.252 C 
ATOM      5  O   UNL d   1      26.768 -16.447  -1.251  0.00  0.00    -0.268 OA
ATOM      6  H   UNL d   1      24.476 -15.240  -3.113  0.00  0.00     0.163 HD
BRANCH   4   7
ATOM      7  C   UNL d   1      24.523 -17.055  -1.237  0.00  0.00     0.032 A 
ATOM      8  C   UNL d   1      24.727 -18.289  -0.631  0.00  0.00     0.018 A 
ATOM      9  C   UNL d   1      23.640 -18.957  -0.065  0.00  0.00     0.025 A 
ATOM     10  C   UNL d   1      22.360 -18.398  -0.120  0.00  0.00     0.034 A 
ATOM     11 CL   UNL d   1      21.031 -19.243   0.566  0.00  0.00    -0.084 Cl
ATOM     12  C   UNL d   1      22.154 -17.159  -0.720  0.00  0.00     0.025 A 
ATOM     13  C   UNL d   1      23.242 -16.483  -1.270  0.00  0.00     0.018 A 
ENDBRANCH   4   7
ENDBRANCH   1   3
BRANCH   1  14
ATOM     14  C   UNL d   1      27.549 -15.208  -4.140  0.00  0.00     0.244 C 
ATOM     15  N   UNL d   1      28.551 -15.890  -3.463  0.00  0.00    -0.325 N 
ATOM     16  H   UNL d   1      28.449 -15.975  -2.458  0.00  0.00     0.169 HD
ATOM     17  O   UNL d   1      27.392 -15.221  -5.362  0.00  0.00    -0.271 OA
BRANCH  15  18
ATOM     18  C   UNL d   1      29.624 -16.608  -4.037  0.00  0.00     0.041 A 
ATOM     19  C   UNL d   1      30.408 -17.498  -3.274  0.00  0.00    -0.035 A 
ATOM     20  C   UNL d   1      31.473 -18.175  -3.899  0.00  0.00     0.009 A 
ATOM     21  C   UNL d   1      30.188 -17.748  -1.809  0.00  0.00     0.050 C 
ATOM     22  C   UNL d   1      31.752 -17.987  -5.254  0.00  0.00     0.007 A 
ATOM     23  C   UNL d   1      30.974 -17.120  -6.006  0.00  0.00    -0.060 A 
ATOM     24  C   UNL d   1      31.198 -16.870  -7.463  0.00  0.00     0.048 C 
ATOM     25  C   UNL d   1      29.930 -16.441  -5.387  0.00  0.00     0.037 A 
ENDBRANCH  15  18
ENDBRANCH   1  14
TORSDOF 4
ENDMDL
MODEL 9
REMARK VINA RESULT:    -6.607      4.578      8.188
REMARK INTER + INTRA:          -9.505
REMARK INTER:                  -7.800
REMARK INTRA:                  -1.704
REMARK CONF_INDEPENDENT:        1.193
REMARK UNBOUND:                -1.704
REMARK  4 active torsions:
REMARK  status: ('A' for Active; 'I' for Inactive)
REMARK    1  A    between atoms: C_7  and  N_8 
REMARK       I    between atoms: N_8  and  C_9 
REMARK    2  A    between atoms: C_11  and  C_9 
REMARK    3  A    between atoms: C_11  and  N_13 
REMARK       I    between atoms: N_13  and  C_14 
REMARK    4  A    between atoms: C_14  and  C_16 
ROOT
ATOM      1  C   UNL d   1      30.590 -16.953  -0.917  0.00  0.00     0.173 C 
ATOM      2  C   UNL d   1      31.491 -17.448   0.231  0.00  0.00     0.042 C 
ENDROOT
BRANCH   1   3
ATOM      3  N   UNL d   1      29.174 -17.196  -0.616  0.00  0.00    -0.344 N 
ATOM      4  C   UNL d   1      28.167 -16.599  -1.337  0.00  0.00     0.252 C 
ATOM      5  O   UNL d   1      28.376 -15.868  -2.306  0.00  0.00    -0.268 OA
ATOM      6  H   UNL d   1      28.952 -17.831   0.142  0.00  0.00     0.163 HD
BRANCH   4   7
ATOM      7  C   UNL d   1      26.780 -16.976  -1.026  0.00  0.00     0.032 A 
ATOM      8  C   UNL d   1      25.746 -16.593  -1.874  0.00  0.00     0.018 A 
ATOM      9  C   UNL d   1      24.446 -17.019  -1.598  0.00  0.00     0.025 A 
ATOM     10  C   UNL d   1      24.185 -17.809  -0.476  0.00  0.00     0.034 A 
ATOM     11 CL   UNL d   1      22.576 -18.311  -0.142  0.00  0.00    -0.084 Cl
ATOM     12  C   UNL d   1      25.219 -18.200   0.371  0.00  0.00     0.025 A 
ATOM     13  C   UNL d   1      26.520 -17.790   0.087  0.00  0.00     0.018 A 
ENDBRANCH   4   7
ENDBRANCH   1   3
BRANCH   1  14
ATOM     14  C   UNL d   1      31.122 -17.635  -2.208  0.00  0.00     0.244 C 
ATOM     15  N   UNL d   1      30.292 -17.615  -3.320  0.00  0.00    -0.325 N 
ATOM     16  H   UNL d   1      29.448 -17.057  -3.253  0.00  0.00     0.169 HD
ATOM     17  O   UNL d   1      32.281 -18.054  -2.203  0.00  0.00    -0.271 OA
BRANCH  15  18
ATOM     18  C   UNL d   1      30.565 -18.169  -4.591  0.00  0.00     0.041 A 
ATOM     19  C   UNL d   1      30.510 -17.386  -5.764  0.00  0.00    -0.035 A 
ATOM     20  C   UNL d   1      30.779 -17.997  -7.003  0.00  0.00     0.009 A 
ATOM     21  C   UNL d   1      30.148 -15.928  -5.770  0.00  0.00     0.050 C 
ATOM     22  C   UNL d   1      31.110 -19.351  -7.084  0.00  0.00     0.007 A 
ATOM     23  C   UNL d   1      31.175 -20.117  -5.930  0.00  0.00    -0.060 A 
ATOM     24  C   UNL d   1      31.532 -21.568  -5.927  0.00  0.00     0.048 C 
ATOM     25  C   UNL d   1      30.896 -19.518  -4.707  0.00  0.00     0.037 A 
ENDBRANCH  15  18
ENDBRANCH   1  14
TORSDOF 4
ENDMDL
