MODEL 1
REMARK VINA RESULT:    -9.625      0.000      0.000
REMARK INTER + INTRA:         -12.954
REMARK INTER:                 -11.714
REMARK INTRA:                  -1.240
REMARK CONF_INDEPENDENT:        2.088
REMARK UNBOUND:                -1.240
REMARK  7 active torsions:
REMARK  status: ('A' for Active; 'I' for Inactive)
REMARK    1  A    between atoms: C_7  and  N_8 
REMARK       I    between atoms: N_8  and  C_9 
REMARK    2  A    between atoms: C_9  and  C_11 
REMARK    3  A    between atoms: C_11  and  N_12 
REMARK    4  A    between atoms: N_12  and  C_13 
REMARK    5  A    between atoms: C_16  and  C_17 
REMARK       I    between atoms: C_17  and  N_19 
REMARK    6  A    between atoms: N_19  and  C_20 
REMARK    7  A    between atoms: C_20  and  C_21 
ROOT
ATOM      1  C   UNL d   1      26.616 -17.181   0.030  0.00  0.00     0.028 A 
ATOM      2  C   UNL d   1      25.862 -18.203   0.618  0.00  0.00     0.030 A 
ATOM      3  C   UNL d   1      24.512 -18.400   0.284  0.00  0.00     0.019 A 
ATOM      4  C   UNL d   1      23.861 -17.543  -0.613  0.00  0.00     0.032 A 
ATOM      5  C   UNL d   1      24.623 -16.538  -1.223  0.00  0.00     0.019 A 
ATOM      6  C   UNL d   1      25.977 -16.362  -0.897  0.00  0.00     0.030 A 
ENDROOT
BRANCH   1   7
ATOM      7  N   UNL d   1      27.927 -17.002   0.405  0.00  0.00    -0.381 N 
ATOM      8  H   UNL d   1      28.499 -17.845   0.528  0.00  0.00     0.160 HD
BRANCH   7   9
ATOM      9  C   UNL d   1      28.707 -15.776   0.185  0.00  0.00     0.223 C 
BRANCH   9  10
ATOM     10  C   UNL d   1      28.176 -14.688   1.128  0.00  0.00     0.239 C 
ATOM     11  N   UNL d   1      28.822 -14.559   2.359  0.00  0.00    -0.325 N 
ATOM     12  H   UNL d   1      29.595 -15.180   2.568  0.00  0.00     0.169 HD
ATOM     13  O   UNL d   1      27.214 -14.018   0.741  0.00  0.00    -0.271 OA
BRANCH  11  14
ATOM     14  C   UNL d   1      28.480 -13.602   3.364  0.00  0.00     0.041 A 
ATOM     15  C   UNL d   1      28.619 -13.881   4.740  0.00  0.00    -0.035 A 
ATOM     16  C   UNL d   1      28.265 -12.888   5.685  0.00  0.00     0.009 A 
ATOM     17  C   UNL d   1      29.129 -15.194   5.270  0.00  0.00     0.050 C 
ATOM     18  C   UNL d   1      27.780 -11.640   5.289  0.00  0.00     0.007 A 
ATOM     19  C   UNL d   1      27.642 -11.358   3.940  0.00  0.00    -0.060 A 
ATOM     20  C   UNL d   1      27.129 -10.043   3.435  0.00  0.00     0.048 C 
ATOM     21  C   UNL d   1      27.991 -12.337   3.008  0.00  0.00     0.037 A 
ENDBRANCH  11  14
ENDBRANCH   9  10
ENDBRANCH   7   9
ENDBRANCH   1   7
BRANCH   4  22
ATOM     22  C   UNL d   1      22.378 -17.707  -0.828  0.00  0.00     0.251 C 
ATOM     23  O   UNL d   1      21.645 -16.720  -0.891  0.00  0.00    -0.268 OA
ATOM     24  N   UNL d   1      21.896 -18.985  -0.985  0.00  0.00    -0.351 N 
ATOM     25  H   UNL d   1      22.526 -19.761  -0.918  0.00  0.00     0.163 HD
BRANCH  24  26
ATOM     26  C   UNL d   1      20.493 -19.289  -1.253  0.00  0.00     0.187 C 
BRANCH  26  27
ATOM     27  C   UNL d   1      19.852 -19.789   0.004  0.00  0.00     0.070 A 
ATOM     28  C   UNL d   1      18.686 -20.491   0.251  0.00  0.00     0.036 A 
ATOM     29  C   UNL d   1      18.602 -20.686   1.644  0.00  0.00     0.027 A 
ATOM     30  C   UNL d   1      19.707 -20.074   2.181  0.00  0.00     0.142 A 
ATOM     31  O   UNL d   1      20.477 -19.527   1.197  0.00  0.00    -0.325 OA
ENDBRANCH  26  27
ENDBRANCH  24  26
ENDBRANCH   4  22
TORSDOF 7
ENDMDL
MODEL 2
REMARK VINA RESULT:    -9.545      0.552      1.730
REMARK INTER + INTRA:         -12.691
REMARK INTER:                 -11.633
REMARK INTRA:                  -1.058
REMARK CONF_INDEPENDENT:        2.088
REMARK UNBOUND:                -1.058
REMARK  7 active torsions:
REMARK  status: ('A' for Active; 'I' for Inactive)
REMARK    1  A    between atoms: C_7  and  N_8 
REMARK       I    between atoms: N_8  and  C_9 
REMARK    2  A    between atoms: C_9  and  C_11 
REMARK    3  A    between atoms: C_11  and  N_12 
REMARK    4  A    between atoms: N_12  and  C_13 
REMARK    5  A    between atoms: C_16  and  C_17 
REMARK       I    between atoms: C_17  and  N_19 
REMARK    6  A    between atoms: N_19  and  C_20 
REMARK    7  A    between atoms: C_20  and  C_21 
ROOT
ATOM      1  C   UNL d   1      26.663 -17.223  -0.109  0.00  0.00     0.028 A 
ATOM      2  C   UNL d   1      25.912 -18.214   0.535  0.00  0.00     0.030 A 
ATOM      3  C   UNL d   1      24.554 -18.412   0.234  0.00  0.00     0.019 A 
ATOM      4  C   UNL d   1      23.894 -17.586  -0.685  0.00  0.00     0.032 A 
ATOM      5  C   UNL d   1      24.653 -16.614  -1.350  0.00  0.00     0.019 A 
ATOM      6  C   UNL d   1      26.014 -16.437  -1.056  0.00  0.00     0.030 A 
ENDROOT
BRANCH   1   7
ATOM      7  N   UNL d   1      27.983 -17.042   0.235  0.00  0.00    -0.381 N 
ATOM      8  H   UNL d   1      28.590 -17.869   0.219  0.00  0.00     0.160 HD
BRANCH   7   9
ATOM      9  C   UNL d   1      28.707 -15.766   0.152  0.00  0.00     0.223 C 
BRANCH   9  10
ATOM     10  C   UNL d   1      28.189 -14.842   1.262  0.00  0.00     0.239 C 
ATOM     11  N   UNL d   1      29.029 -14.655   2.362  0.00  0.00    -0.325 N 
ATOM     12  H   UNL d   1      29.923 -15.132   2.375  0.00  0.00     0.169 HD
ATOM     13  O   UNL d   1      27.070 -14.343   1.113  0.00  0.00    -0.271 OA
BRANCH  11  14
ATOM     14  C   UNL d   1      28.728 -13.827   3.488  0.00  0.00     0.041 A 
ATOM     15  C   UNL d   1      28.224 -12.518   3.339  0.00  0.00    -0.035 A 
ATOM     16  C   UNL d   1      27.944 -11.751   4.496  0.00  0.00     0.009 A 
ATOM     17  C   UNL d   1      27.962 -11.879   2.002  0.00  0.00     0.050 C 
ATOM     18  C   UNL d   1      28.157 -12.257   5.780  0.00  0.00     0.007 A 
ATOM     19  C   UNL d   1      28.651 -13.542   5.934  0.00  0.00    -0.060 A 
ATOM     20  C   UNL d   1      28.906 -14.157   7.277  0.00  0.00     0.048 C 
ATOM     21  C   UNL d   1      28.926 -14.299   4.794  0.00  0.00     0.037 A 
ENDBRANCH  11  14
ENDBRANCH   9  10
ENDBRANCH   7   9
ENDBRANCH   1   7
BRANCH   4  22
ATOM     22  C   UNL d   1      22.406 -17.745  -0.866  0.00  0.00     0.251 C 
ATOM     23  O   UNL d   1      21.673 -16.756  -0.893  0.00  0.00    -0.268 OA
ATOM     24  N   UNL d   1      21.918 -19.019  -1.033  0.00  0.00    -0.351 N 
ATOM     25  H   UNL d   1      22.548 -19.797  -0.995  0.00  0.00     0.163 HD
BRANCH  24  26
ATOM     26  C   UNL d   1      20.509 -19.317  -1.270  0.00  0.00     0.187 C 
BRANCH  26  27
ATOM     27  C   UNL d   1      19.893 -19.817  -0.000  0.00  0.00     0.070 A 
ATOM     28  C   UNL d   1      18.749 -20.547   0.267  0.00  0.00     0.036 A 
ATOM     29  C   UNL d   1      18.682 -20.724   1.664  0.00  0.00     0.027 A 
ATOM     30  C   UNL d   1      19.775 -20.072   2.182  0.00  0.00     0.142 A 
ATOM     31  O   UNL d   1      20.520 -19.519   1.183  0.00  0.00    -0.325 OA
ENDBRANCH  26  27
ENDBRANCH  24  26
ENDBRANCH   4  22
TORSDOF 7
ENDMDL
MODEL 3
REMARK VINA RESULT:    -8.907      3.841      5.722
REMARK INTER + INTRA:         -12.293
REMARK INTER:                 -10.995
REMARK INTRA:                  -1.298
REMARK CONF_INDEPENDENT:        2.088
REMARK UNBOUND:                -1.298
REMARK  7 active torsions:
REMARK  status: ('A' for Active; 'I' for Inactive)
REMARK    1  A    between atoms: C_7  and  N_8 
REMARK       I    between atoms: N_8  and  C_9 
REMARK    2  A    between atoms: C_9  and  C_11 
REMARK    3  A    between atoms: C_11  and  N_12 
REMARK    4  A    between atoms: N_12  and  C_13 
REMARK    5  A    between atoms: C_16  and  C_17 
REMARK       I    between atoms: C_17  and  N_19 
REMARK    6  A    between atoms: N_19  and  C_20 
REMARK    7  A    between atoms: C_20  and  C_21 
ROOT
ATOM      1  C   UNL d   1      26.087 -16.849  -0.131  0.00  0.00     0.028 A 
ATOM      2  C   UNL d   1      25.569 -18.114   0.167  0.00  0.00     0.030 A 
ATOM      3  C   UNL d   1      24.241 -18.451  -0.142  0.00  0.00     0.019 A 
ATOM      4  C   UNL d   1      23.375 -17.509  -0.714  0.00  0.00     0.032 A 
ATOM      5  C   UNL d   1      23.902 -16.253  -1.039  0.00  0.00     0.019 A 
ATOM      6  C   UNL d   1      25.236 -15.933  -0.743  0.00  0.00     0.030 A 
ENDROOT
BRANCH   1   7
ATOM      7  N   UNL d   1      27.384 -16.548   0.215  0.00  0.00    -0.381 N 
ATOM      8  H   UNL d   1      27.527 -15.992   1.065  0.00  0.00     0.160 HD
BRANCH   7   9
ATOM      9  C   UNL d   1      28.567 -17.311  -0.207  0.00  0.00     0.223 C 
BRANCH   9  10
ATOM     10  C   UNL d   1      28.850 -16.992  -1.681  0.00  0.00     0.239 C 
ATOM     11  N   UNL d   1      28.042 -16.022  -2.276  0.00  0.00    -0.325 N 
ATOM     12  H   UNL d   1      27.319 -15.584  -1.717  0.00  0.00     0.169 HD
ATOM     13  O   UNL d   1      29.756 -17.620  -2.236  0.00  0.00    -0.271 OA
BRANCH  11  14
ATOM     14  C   UNL d   1      28.157 -15.583  -3.632  0.00  0.00     0.041 A 
ATOM     15  C   UNL d   1      27.132 -14.851  -4.270  0.00  0.00    -0.035 A 
ATOM     16  C   UNL d   1      27.310 -14.443  -5.614  0.00  0.00     0.009 A 
ATOM     17  C   UNL d   1      25.842 -14.472  -3.594  0.00  0.00     0.050 C 
ATOM     18  C   UNL d   1      28.472 -14.750  -6.325  0.00  0.00     0.007 A 
ATOM     19  C   UNL d   1      29.482 -15.467  -5.705  0.00  0.00    -0.060 A 
ATOM     20  C   UNL d   1      30.759 -15.835  -6.400  0.00  0.00     0.048 C 
ATOM     21  C   UNL d   1      29.308 -15.868  -4.379  0.00  0.00     0.037 A 
ENDBRANCH  11  14
ENDBRANCH   9  10
ENDBRANCH   7   9
ENDBRANCH   1   7
BRANCH   4  22
ATOM     22  C   UNL d   1      21.924 -17.873  -0.895  0.00  0.00     0.251 C 
ATOM     23  O   UNL d   1      21.066 -16.993  -0.969  0.00  0.00    -0.268 OA
ATOM     24  N   UNL d   1      21.611 -19.207  -1.007  0.00  0.00    -0.351 N 
ATOM     25  H   UNL d   1      22.338 -19.891  -0.932  0.00  0.00     0.163 HD
BRANCH  24  26
ATOM     26  C   UNL d   1      20.256 -19.700  -1.237  0.00  0.00     0.187 C 
BRANCH  26  27
ATOM     27  C   UNL d   1      19.645 -20.084   0.074  0.00  0.00     0.070 A 
ATOM     28  C   UNL d   1      19.999 -19.832   1.387  0.00  0.00     0.036 A 
ATOM     29  C   UNL d   1      19.035 -20.452   2.207  0.00  0.00     0.027 A 
ATOM     30  C   UNL d   1      18.155 -21.074   1.355  0.00  0.00     0.142 A 
ATOM     31  O   UNL d   1      18.512 -20.856   0.057  0.00  0.00    -0.325 OA
ENDBRANCH  26  27
ENDBRANCH  24  26
ENDBRANCH   4  22
TORSDOF 7
ENDMDL
MODEL 4
REMARK VINA RESULT:    -8.903      3.819      5.438
REMARK INTER + INTRA:         -12.285
REMARK INTER:                 -10.991
REMARK INTRA:                  -1.293
REMARK CONF_INDEPENDENT:        2.088
REMARK UNBOUND:                -1.293
REMARK  7 active torsions:
REMARK  status: ('A' for Active; 'I' for Inactive)
REMARK    1  A    between atoms: C_7  and  N_8 
REMARK       I    between atoms: N_8  and  C_9 
REMARK    2  A    between atoms: C_9  and  C_11 
REMARK    3  A    between atoms: C_11  and  N_12 
REMARK    4  A    between atoms: N_12  and  C_13 
REMARK    5  A    between atoms: C_16  and  C_17 
REMARK       I    between atoms: C_17  and  N_19 
REMARK    6  A    between atoms: N_19  and  C_20 
REMARK    7  A    between atoms: C_20  and  C_21 
ROOT
ATOM      1  C   UNL d   1      26.425 -17.056  -0.076  0.00  0.00     0.028 A 
ATOM      2  C   UNL d   1      25.753 -18.200   0.368  0.00  0.00     0.030 A 
ATOM      3  C   UNL d   1      24.401 -18.421   0.053  0.00  0.00     0.019 A 
ATOM      4  C   UNL d   1      23.669 -17.472  -0.673  0.00  0.00     0.032 A 
ATOM      5  C   UNL d   1      24.350 -16.342  -1.142  0.00  0.00     0.019 A 
ATOM      6  C   UNL d   1      25.705 -16.140  -0.838  0.00  0.00     0.030 A 
ENDROOT
BRANCH   1   7
ATOM      7  N   UNL d   1      27.741 -16.862   0.278  0.00  0.00    -0.381 N 
ATOM      8  H   UNL d   1      27.947 -16.747   1.276  0.00  0.00     0.160 HD
BRANCH   7   9
ATOM      9  C   UNL d   1      28.899 -17.272  -0.529  0.00  0.00     0.223 C 
BRANCH   9  10
ATOM     10  C   UNL d   1      29.039 -16.300  -1.707  0.00  0.00     0.239 C 
ATOM     11  N   UNL d   1      28.019 -16.325  -2.661  0.00  0.00    -0.325 N 
ATOM     12  H   UNL d   1      27.251 -16.974  -2.533  0.00  0.00     0.169 HD
ATOM     13  O   UNL d   1      30.041 -15.580  -1.737  0.00  0.00    -0.271 OA
BRANCH  11  14
ATOM     14  C   UNL d   1      27.966 -15.492  -3.822  0.00  0.00     0.041 A 
ATOM     15  C   UNL d   1      28.855 -15.661  -4.905  0.00  0.00    -0.035 A 
ATOM     16  C   UNL d   1      28.748 -14.804  -6.026  0.00  0.00     0.009 A 
ATOM     17  C   UNL d   1      29.927 -16.717  -4.938  0.00  0.00     0.050 C 
ATOM     18  C   UNL d   1      27.786 -13.793  -6.086  0.00  0.00     0.007 A 
ATOM     19  C   UNL d   1      26.909 -13.622  -5.028  0.00  0.00    -0.060 A 
ATOM     20  C   UNL d   1      25.850 -12.561  -5.016  0.00  0.00     0.048 C 
ATOM     21  C   UNL d   1      27.014 -14.468  -3.922  0.00  0.00     0.037 A 
ENDBRANCH  11  14
ENDBRANCH   9  10
ENDBRANCH   7   9
ENDBRANCH   1   7
BRANCH   4  22
ATOM     22  C   UNL d   1      22.189 -17.687  -0.861  0.00  0.00     0.251 C 
ATOM     23  O   UNL d   1      21.419 -16.726  -0.895  0.00  0.00    -0.268 OA
ATOM     24  N   UNL d   1      21.749 -18.979  -1.027  0.00  0.00    -0.351 N 
ATOM     25  H   UNL d   1      22.407 -19.733  -0.983  0.00  0.00     0.163 HD
BRANCH  24  26
ATOM     26  C   UNL d   1      20.353 -19.329  -1.270  0.00  0.00     0.187 C 
BRANCH  26  27
ATOM     27  C   UNL d   1      19.753 -19.859  -0.005  0.00  0.00     0.070 A 
ATOM     28  C   UNL d   1      20.092 -19.718   1.328  0.00  0.00     0.036 A 
ATOM     29  C   UNL d   1      19.150 -20.450   2.079  0.00  0.00     0.027 A 
ATOM     30  C   UNL d   1      18.298 -21.021   1.166  0.00  0.00     0.142 A 
ATOM     31  O   UNL d   1      18.650 -20.669  -0.103  0.00  0.00    -0.325 OA
ENDBRANCH  26  27
ENDBRANCH  24  26
ENDBRANCH   4  22
TORSDOF 7
ENDMDL
MODEL 5
REMARK VINA RESULT:    -8.521      3.504      6.340
REMARK INTER + INTRA:         -12.221
REMARK INTER:                 -10.609
REMARK INTRA:                  -1.612
REMARK CONF_INDEPENDENT:        2.088
REMARK UNBOUND:                -1.612
REMARK  7 active torsions:
REMARK  status: ('A' for Active; 'I' for Inactive)
REMARK    1  A    between atoms: C_7  and  N_8 
REMARK       I    between atoms: N_8  and  C_9 
REMARK    2  A    between atoms: C_9  and  C_11 
REMARK    3  A    between atoms: C_11  and  N_12 
REMARK    4  A    between atoms: N_12  and  C_13 
REMARK    5  A    between atoms: C_16  and  C_17 
REMARK       I    between atoms: C_17  and  N_19 
REMARK    6  A    between atoms: N_19  and  C_20 
REMARK    7  A    between atoms: C_20  and  C_21 
ROOT
ATOM      1  C   UNL d   1      26.659 -16.702   0.135  0.00  0.00     0.028 A 
ATOM      2  C   UNL d   1      25.741 -16.013  -0.666  0.00  0.00     0.030 A 
ATOM      3  C   UNL d   1      24.510 -16.587  -1.024  0.00  0.00     0.019 A 
ATOM      4  C   UNL d   1      24.184 -17.892  -0.632  0.00  0.00     0.032 A 
ATOM      5  C   UNL d   1      25.090 -18.570   0.194  0.00  0.00     0.019 A 
ATOM      6  C   UNL d   1      26.309 -17.980   0.562  0.00  0.00     0.030 A 
ENDROOT
BRANCH   1   7
ATOM      7  N   UNL d   1      27.867 -16.117   0.440  0.00  0.00    -0.381 N 
ATOM      8  H   UNL d   1      28.422 -16.549   1.186  0.00  0.00     0.160 HD
BRANCH   7   9
ATOM      9  C   UNL d   1      28.646 -15.269  -0.473  0.00  0.00     0.223 C 
BRANCH   9  10
ATOM     10  C   UNL d   1      29.179 -16.145  -1.613  0.00  0.00     0.239 C 
ATOM     11  N   UNL d   1      29.111 -15.605  -2.899  0.00  0.00    -0.325 N 
ATOM     12  H   UNL d   1      28.718 -14.679  -3.016  0.00  0.00     0.169 HD
ATOM     13  O   UNL d   1      29.615 -17.262  -1.319  0.00  0.00    -0.271 OA
BRANCH  11  14
ATOM     14  C   UNL d   1      29.564 -16.263  -4.086  0.00  0.00     0.041 A 
ATOM     15  C   UNL d   1      29.565 -15.619  -5.342  0.00  0.00    -0.035 A 
ATOM     16  C   UNL d   1      30.030 -16.325  -6.478  0.00  0.00     0.009 A 
ATOM     17  C   UNL d   1      29.095 -14.205  -5.548  0.00  0.00     0.050 C 
ATOM     18  C   UNL d   1      30.484 -17.642  -6.386  0.00  0.00     0.007 A 
ATOM     19  C   UNL d   1      30.487 -18.280  -5.157  0.00  0.00    -0.060 A 
ATOM     20  C   UNL d   1      30.959 -19.691  -4.976  0.00  0.00     0.048 C 
ATOM     21  C   UNL d   1      30.030 -17.584  -4.036  0.00  0.00     0.037 A 
ENDBRANCH  11  14
ENDBRANCH   9  10
ENDBRANCH   7   9
ENDBRANCH   1   7
BRANCH   4  22
ATOM     22  C   UNL d   1      22.917 -18.514  -1.161  0.00  0.00     0.251 C 
ATOM     23  O   UNL d   1      22.928 -19.150  -2.216  0.00  0.00    -0.268 OA
ATOM     24  N   UNL d   1      21.776 -18.374  -0.407  0.00  0.00    -0.351 N 
ATOM     25  H   UNL d   1      21.809 -17.841   0.441  0.00  0.00     0.163 HD
BRANCH  24  26
ATOM     26  C   UNL d   1      20.493 -18.967  -0.770  0.00  0.00     0.187 C 
BRANCH  26  27
ATOM     27  C   UNL d   1      19.891 -19.612   0.440  0.00  0.00     0.070 A 
ATOM     28  C   UNL d   1      18.780 -20.414   0.625  0.00  0.00     0.036 A 
ATOM     29  C   UNL d   1      18.711 -20.725   1.997  0.00  0.00     0.027 A 
ATOM     30  C   UNL d   1      19.770 -20.078   2.587  0.00  0.00     0.142 A 
ATOM     31  O   UNL d   1      20.496 -19.400   1.653  0.00  0.00    -0.325 OA
ENDBRANCH  26  27
ENDBRANCH  24  26
ENDBRANCH   4  22
TORSDOF 7
ENDMDL
MODEL 6
REMARK VINA RESULT:    -8.304      5.160      7.825
REMARK INTER + INTRA:         -11.873
REMARK INTER:                 -10.392
REMARK INTRA:                  -1.481
REMARK CONF_INDEPENDENT:        2.088
REMARK UNBOUND:                -1.481
REMARK  7 active torsions:
REMARK  status: ('A' for Active; 'I' for Inactive)
REMARK    1  A    between atoms: C_7  and  N_8 
REMARK       I    between atoms: N_8  and  C_9 
REMARK    2  A    between atoms: C_9  and  C_11 
REMARK    3  A    between atoms: C_11  and  N_12 
REMARK    4  A    between atoms: N_12  and  C_13 
REMARK    5  A    between atoms: C_16  and  C_17 
REMARK       I    between atoms: C_17  and  N_19 
REMARK    6  A    between atoms: N_19  and  C_20 
REMARK    7  A    between atoms: C_20  and  C_21 
ROOT
ATOM      1  C   UNL d   1      25.946 -14.061  -3.823  0.00  0.00     0.028 A 
ATOM      2  C   UNL d   1      24.648 -14.327  -3.372  0.00  0.00     0.030 A 
ATOM      3  C   UNL d   1      24.410 -15.233  -2.325  0.00  0.00     0.019 A 
ATOM      4  C   UNL d   1      25.465 -15.941  -1.734  0.00  0.00     0.032 A 
ATOM      5  C   UNL d   1      26.766 -15.652  -2.165  0.00  0.00     0.019 A 
ATOM      6  C   UNL d   1      26.995 -14.731  -3.198  0.00  0.00     0.030 A 
ENDROOT
BRANCH   1   7
ATOM      7  N   UNL d   1      26.136 -13.188  -4.870  0.00  0.00    -0.381 N 
ATOM      8  H   UNL d   1      25.426 -12.461  -5.009  0.00  0.00     0.160 HD
BRANCH   7   9
ATOM      9  C   UNL d   1      27.433 -12.885  -5.489  0.00  0.00     0.223 C 
BRANCH   9  10
ATOM     10  C   UNL d   1      28.094 -14.207  -5.902  0.00  0.00     0.239 C 
ATOM     11  N   UNL d   1      29.484 -14.193  -6.038  0.00  0.00    -0.325 N 
ATOM     12  H   UNL d   1      29.980 -13.328  -5.863  0.00  0.00     0.169 HD
ATOM     13  O   UNL d   1      27.357 -15.177  -6.097  0.00  0.00    -0.271 OA
BRANCH  11  14
ATOM     14  C   UNL d   1      30.280 -15.324  -6.405  0.00  0.00     0.041 A 
ATOM     15  C   UNL d   1      31.345 -15.220  -7.325  0.00  0.00    -0.035 A 
ATOM     16  C   UNL d   1      32.096 -16.378  -7.643  0.00  0.00     0.009 A 
ATOM     17  C   UNL d   1      31.735 -13.932  -7.997  0.00  0.00     0.050 C 
ATOM     18  C   UNL d   1      31.806 -17.619  -7.072  0.00  0.00     0.007 A 
ATOM     19  C   UNL d   1      30.763 -17.727  -6.167  0.00  0.00    -0.060 A 
ATOM     20  C   UNL d   1      30.391 -19.023  -5.511  0.00  0.00     0.048 C 
ATOM     21  C   UNL d   1      30.023 -16.586  -5.852  0.00  0.00     0.037 A 
ENDBRANCH  11  14
ENDBRANCH   9  10
ENDBRANCH   7   9
ENDBRANCH   1   7
BRANCH   4  22
ATOM     22  C   UNL d   1      25.144 -17.006  -0.716  0.00  0.00     0.251 C 
ATOM     23  O   UNL d   1      25.976 -17.326   0.134  0.00  0.00    -0.268 OA
ATOM     24  N   UNL d   1      23.889 -17.567  -0.756  0.00  0.00    -0.351 N 
ATOM     25  H   UNL d   1      23.246 -17.284  -1.470  0.00  0.00     0.163 HD
BRANCH  24  26
ATOM     26  C   UNL d   1      23.425 -18.569   0.199  0.00  0.00     0.187 C 
BRANCH  26  27
ATOM     27  C   UNL d   1      22.017 -18.949  -0.137  0.00  0.00     0.070 A 
ATOM     28  C   UNL d   1      20.939 -19.345   0.635  0.00  0.00     0.036 A 
ATOM     29  C   UNL d   1      19.858 -19.572  -0.240  0.00  0.00     0.027 A 
ATOM     30  C   UNL d   1      20.335 -19.327  -1.505  0.00  0.00     0.142 A 
ATOM     31  O   UNL d   1      21.643 -18.946  -1.457  0.00  0.00    -0.325 OA
ENDBRANCH  26  27
ENDBRANCH  24  26
ENDBRANCH   4  22
TORSDOF 7
ENDMDL
MODEL 7
REMARK VINA RESULT:    -8.161      4.766      7.457
REMARK INTER + INTRA:         -11.979
REMARK INTER:                 -10.250
REMARK INTRA:                  -1.729
REMARK CONF_INDEPENDENT:        2.088
REMARK UNBOUND:                -1.729
REMARK  7 active torsions:
REMARK  status: ('A' for Active; 'I' for Inactive)
REMARK    1  A    between atoms: C_7  and  N_8 
REMARK       I    between atoms: N_8  and  C_9 
REMARK    2  A    between atoms: C_9  and  C_11 
REMARK    3  A    between atoms: C_11  and  N_12 
REMARK    4  A    between atoms: N_12  and  C_13 
REMARK    5  A    between atoms: C_16  and  C_17 
REMARK       I    between atoms: C_17  and  N_19 
REMARK    6  A    between atoms: N_19  and  C_20 
REMARK    7  A    between atoms: C_20  and  C_21 
ROOT
ATOM      1  C   UNL d   1      26.537 -14.308  -3.571  0.00  0.00     0.028 A 
ATOM      2  C   UNL d   1      27.415 -15.132  -2.856  0.00  0.00     0.030 A 
ATOM      3  C   UNL d   1      26.938 -16.091  -1.947  0.00  0.00     0.019 A 
ATOM      4  C   UNL d   1      25.566 -16.217  -1.689  0.00  0.00     0.032 A 
ATOM      5  C   UNL d   1      24.688 -15.413  -2.426  0.00  0.00     0.019 A 
ATOM      6  C   UNL d   1      25.173 -14.471  -3.346  0.00  0.00     0.030 A 
ENDROOT
BRANCH   1   7
ATOM      7  N   UNL d   1      27.045 -13.361  -4.430  0.00  0.00    -0.381 N 
ATOM      8  H   UNL d   1      26.704 -12.399  -4.323  0.00  0.00     0.160 HD
BRANCH   7   9
ATOM      9  C   UNL d   1      28.330 -13.466  -5.136  0.00  0.00     0.223 C 
BRANCH   9  10
ATOM     10  C   UNL d   1      28.558 -14.936  -5.511  0.00  0.00     0.239 C 
ATOM     11  N   UNL d   1      29.810 -15.472  -5.200  0.00  0.00    -0.325 N 
ATOM     12  H   UNL d   1      30.495 -14.875  -4.752  0.00  0.00     0.169 HD
ATOM     13  O   UNL d   1      27.633 -15.534  -6.068  0.00  0.00    -0.271 OA
BRANCH  11  14
ATOM     14  C   UNL d   1      30.209 -16.820  -5.461  0.00  0.00     0.041 A 
ATOM     15  C   UNL d   1      30.346 -17.772  -4.429  0.00  0.00    -0.035 A 
ATOM     16  C   UNL d   1      30.741 -19.092  -4.756  0.00  0.00     0.009 A 
ATOM     17  C   UNL d   1      30.090 -17.463  -2.979  0.00  0.00     0.050 C 
ATOM     18  C   UNL d   1      31.003 -19.473  -6.073  0.00  0.00     0.007 A 
ATOM     19  C   UNL d   1      30.870 -18.544  -7.092  0.00  0.00    -0.060 A 
ATOM     20  C   UNL d   1      31.132 -18.875  -8.531  0.00  0.00     0.048 C 
ATOM     21  C   UNL d   1      30.479 -17.243  -6.771  0.00  0.00     0.037 A 
ENDBRANCH  11  14
ENDBRANCH   9  10
ENDBRANCH   7   9
ENDBRANCH   1   7
BRANCH   4  22
ATOM     22  C   UNL d   1      25.116 -17.159  -0.602  0.00  0.00     0.251 C 
ATOM     23  O   UNL d   1      25.852 -17.405   0.354  0.00  0.00    -0.268 OA
ATOM     24  N   UNL d   1      23.853 -17.694  -0.705  0.00  0.00    -0.351 N 
ATOM     25  H   UNL d   1      23.290 -17.475  -1.505  0.00  0.00     0.163 HD
BRANCH  24  26
ATOM     26  C   UNL d   1      23.268 -18.577   0.298  0.00  0.00     0.187 C 
BRANCH  26  27
ATOM     27  C   UNL d   1      21.886 -18.959  -0.132  0.00  0.00     0.070 A 
ATOM     28  C   UNL d   1      20.758 -19.351   0.566  0.00  0.00     0.036 A 
ATOM     29  C   UNL d   1      19.739 -19.582  -0.380  0.00  0.00     0.027 A 
ATOM     30  C   UNL d   1      20.303 -19.344  -1.610  0.00  0.00     0.142 A 
ATOM     31  O   UNL d   1      21.604 -18.963  -1.474  0.00  0.00    -0.325 OA
ENDBRANCH  26  27
ENDBRANCH  24  26
ENDBRANCH   4  22
TORSDOF 7
ENDMDL
MODEL 8
REMARK VINA RESULT:    -8.000      3.507      5.095
REMARK INTER + INTRA:         -11.778
REMARK INTER:                 -10.088
REMARK INTRA:                  -1.691
REMARK CONF_INDEPENDENT:        2.088
REMARK UNBOUND:                -1.691
REMARK  7 active torsions:
REMARK  status: ('A' for Active; 'I' for Inactive)
REMARK    1  A    between atoms: C_7  and  N_8 
REMARK       I    between atoms: N_8  and  C_9 
REMARK    2  A    between atoms: C_9  and  C_11 
REMARK    3  A    between atoms: C_11  and  N_12 
REMARK    4  A    between atoms: N_12  and  C_13 
REMARK    5  A    between atoms: C_16  and  C_17 
REMARK       I    between atoms: C_17  and  N_19 
REMARK    6  A    between atoms: N_19  and  C_20 
REMARK    7  A    between atoms: C_20  and  C_21 
ROOT
ATOM      1  C   UNL d   1      26.311 -16.263  -0.322  0.00  0.00     0.028 A 
ATOM      2  C   UNL d   1      25.343 -15.775  -1.207  0.00  0.00     0.030 A 
ATOM      3  C   UNL d   1      24.170 -16.499  -1.477  0.00  0.00     0.019 A 
ATOM      4  C   UNL d   1      23.957 -17.760  -0.906  0.00  0.00     0.032 A 
ATOM      5  C   UNL d   1      24.911 -18.234   0.003  0.00  0.00     0.019 A 
ATOM      6  C   UNL d   1      26.071 -17.495   0.280  0.00  0.00     0.030 A 
ENDROOT
BRANCH   1   7
ATOM      7  N   UNL d   1      27.461 -15.537  -0.105  0.00  0.00    -0.381 N 
ATOM      8  H   UNL d   1      28.323 -15.885  -0.537  0.00  0.00     0.160 HD
BRANCH   7   9
ATOM      9  C   UNL d   1      27.502 -14.113   0.253  0.00  0.00     0.223 C 
BRANCH   9  10
ATOM     10  C   UNL d   1      27.602 -13.290  -1.038  0.00  0.00     0.239 C 
ATOM     11  N   UNL d   1      26.409 -13.066  -1.729  0.00  0.00    -0.325 N 
ATOM     12  H   UNL d   1      25.552 -13.452  -1.353  0.00  0.00     0.169 HD
ATOM     13  O   UNL d   1      28.722 -12.898  -1.380  0.00  0.00    -0.271 OA
BRANCH  11  14
ATOM     14  C   UNL d   1      26.297 -12.318  -2.942  0.00  0.00     0.041 A 
ATOM     15  C   UNL d   1      26.242 -12.946  -4.205  0.00  0.00    -0.035 A 
ATOM     16  C   UNL d   1      26.128 -12.147  -5.368  0.00  0.00     0.009 A 
ATOM     17  C   UNL d   1      26.299 -14.438  -4.390  0.00  0.00     0.050 C 
ATOM     18  C   UNL d   1      26.070 -10.754  -5.297  0.00  0.00     0.007 A 
ATOM     19  C   UNL d   1      26.122 -10.130  -4.061  0.00  0.00    -0.060 A 
ATOM     20  C   UNL d   1      26.065  -8.641  -3.901  0.00  0.00     0.048 C 
ATOM     21  C   UNL d   1      26.234 -10.918  -2.913  0.00  0.00     0.037 A 
ENDBRANCH  11  14
ENDBRANCH   9  10
ENDBRANCH   7   9
ENDBRANCH   1   7
BRANCH   4  22
ATOM     22  C   UNL d   1      22.753 -18.558  -1.339  0.00  0.00     0.251 C 
ATOM     23  O   UNL d   1      22.828 -19.328  -2.297  0.00  0.00    -0.268 OA
ATOM     24  N   UNL d   1      21.599 -18.419  -0.604  0.00  0.00    -0.351 N 
ATOM     25  H   UNL d   1      21.579 -17.775   0.163  0.00  0.00     0.163 HD
BRANCH  24  26
ATOM     26  C   UNL d   1      20.376 -19.168  -0.876  0.00  0.00     0.187 C 
BRANCH  26  27
ATOM     27  C   UNL d   1      19.870 -19.759   0.402  0.00  0.00     0.070 A 
ATOM     28  C   UNL d   1      18.810 -20.598   0.696  0.00  0.00     0.036 A 
ATOM     29  C   UNL d   1      18.827 -20.823   2.088  0.00  0.00     0.027 A 
ATOM     30  C   UNL d   1      19.881 -20.090   2.577  0.00  0.00     0.142 A 
ATOM     31  O   UNL d   1      20.524 -19.442   1.565  0.00  0.00    -0.325 OA
ENDBRANCH  26  27
ENDBRANCH  24  26
ENDBRANCH   4  22
TORSDOF 7
ENDMDL
MODEL 9
REMARK VINA RESULT:    -7.436      5.797      9.169
REMARK INTER + INTRA:         -11.487
REMARK INTER:                  -9.524
REMARK INTRA:                  -1.964
REMARK CONF_INDEPENDENT:        2.088
REMARK UNBOUND:                -1.964
REMARK  7 active torsions:
REMARK  status: ('A' for Active; 'I' for Inactive)
REMARK    1  A    between atoms: C_7  and  N_8 
REMARK       I    between atoms: N_8  and  C_9 
REMARK    2  A    between atoms: C_9  and  C_11 
REMARK    3  A    between atoms: C_11  and  N_12 
REMARK    4  A    between atoms: N_12  and  C_13 
REMARK    5  A    between atoms: C_16  and  C_17 
REMARK       I    between atoms: C_17  and  N_19 
REMARK    6  A    between atoms: N_19  and  C_20 
REMARK    7  A    between atoms: C_20  and  C_21 
ROOT
ATOM      1  C   UNL d   1      28.102 -14.082  -4.784  0.00  0.00     0.028 A 
ATOM      2  C   UNL d   1      28.637 -15.195  -4.126  0.00  0.00     0.030 A 
ATOM      3  C   UNL d   1      29.475 -16.104  -4.792  0.00  0.00     0.019 A 
ATOM      4  C   UNL d   1      29.760 -15.952  -6.156  0.00  0.00     0.032 A 
ATOM      5  C   UNL d   1      29.249 -14.822  -6.806  0.00  0.00     0.019 A 
ATOM      6  C   UNL d   1      28.428 -13.909  -6.126  0.00  0.00     0.030 A 
ENDROOT
BRANCH   1   7
ATOM      7  N   UNL d   1      27.262 -13.230  -4.104  0.00  0.00    -0.381 N 
ATOM      8  H   UNL d   1      27.582 -12.266  -3.966  0.00  0.00     0.160 HD
BRANCH   7   9
ATOM      9  C   UNL d   1      25.808 -13.402  -3.983  0.00  0.00     0.223 C 
BRANCH   9  10
ATOM     10  C   UNL d   1      25.528 -14.813  -3.449  0.00  0.00     0.239 C 
ATOM     11  N   UNL d   1      25.338 -14.933  -2.071  0.00  0.00    -0.325 N 
ATOM     12  H   UNL d   1      25.394 -14.098  -1.500  0.00  0.00     0.169 HD
ATOM     13  O   UNL d   1      25.505 -15.737  -4.267  0.00  0.00    -0.271 OA
BRANCH  11  14
ATOM     14  C   UNL d   1      25.059 -16.158  -1.389  0.00  0.00     0.041 A 
ATOM     15  C   UNL d   1      26.080 -16.941  -0.810  0.00  0.00    -0.035 A 
ATOM     16  C   UNL d   1      25.736 -18.143  -0.146  0.00  0.00     0.009 A 
ATOM     17  C   UNL d   1      27.537 -16.566  -0.858  0.00  0.00     0.050 C 
ATOM     18  C   UNL d   1      24.412 -18.574  -0.052  0.00  0.00     0.007 A 
ATOM     19  C   UNL d   1      23.403 -17.811  -0.617  0.00  0.00    -0.060 A 
ATOM     20  C   UNL d   1      21.958 -18.206  -0.558  0.00  0.00     0.048 C 
ATOM     21  C   UNL d   1      23.742 -16.625  -1.271  0.00  0.00     0.037 A 
ENDBRANCH  11  14
ENDBRANCH   9  10
ENDBRANCH   7   9
ENDBRANCH   1   7
BRANCH   4  22
ATOM     22  C   UNL d   1      30.546 -17.030  -6.858  0.00  0.00     0.251 C 
ATOM     23  O   UNL d   1      31.307 -16.745  -7.783  0.00  0.00    -0.268 OA
ATOM     24  N   UNL d   1      30.403 -18.320  -6.403  0.00  0.00    -0.351 N 
ATOM     25  H   UNL d   1      29.766 -18.510  -5.654  0.00  0.00     0.163 HD
BRANCH  24  26
ATOM     26  C   UNL d   1      31.141 -19.454  -6.953  0.00  0.00     0.187 C 
BRANCH  26  27
ATOM     27  C   UNL d   1      31.184 -20.550  -5.935  0.00  0.00     0.070 A 
ATOM     28  C   UNL d   1      31.908 -21.725  -5.848  0.00  0.00     0.036 A 
ATOM     29  C   UNL d   1      31.529 -22.363  -4.649  0.00  0.00     0.027 A 
ATOM     30  C   UNL d   1      30.575 -21.558  -4.076  0.00  0.00     0.142 A 
ATOM     31  O   UNL d   1      30.358 -20.453  -4.844  0.00  0.00    -0.325 OA
ENDBRANCH  26  27
ENDBRANCH  24  26
ENDBRANCH   4  22
TORSDOF 7
ENDMDL
