MODEL 1
REMARK VINA RESULT:    -8.398      0.000      0.000
REMARK INTER + INTRA:         -11.090
REMARK INTER:                 -10.486
REMARK INTRA:                  -0.604
REMARK CONF_INDEPENDENT:        2.088
REMARK UNBOUND:                -0.604
REMARK  7 active torsions:
REMARK  status: ('A' for Active; 'I' for Inactive)
REMARK    1  A    between atoms: C_2  and  O_3 
REMARK    2  A    between atoms: O_3  and  C_4 
REMARK       I    between atoms: C_4  and  N_6 
REMARK       I    between atoms: N_9  and  C_10 
REMARK    3  A    between atoms: C_10  and  C_12 
REMARK    4  A    between atoms: C_21  and  C_22 
REMARK    5  A    between atoms: C_22  and  S_23 
REMARK    6  A    between atoms: S_23  and  C_24 
REMARK    7  A    between atoms: C_24  and  C_25 
ROOT
ATOM      1  C   UNL d   1      26.760 -12.897  -3.139  0.00  0.00     0.034 A 
ATOM      2  C   UNL d   1      26.468 -13.182  -4.483  0.00  0.00     0.019 A 
ATOM      3  C   UNL d   1      26.046 -12.170  -5.357  0.00  0.00     0.032 A 
ATOM      4  C   UNL d   1      25.897 -10.863  -4.902  0.00  0.00     0.056 A 
ATOM      5  C   UNL d   1      26.178 -10.591  -3.549  0.00  0.00     0.062 A 
ATOM      6  C   UNL d   1      26.644 -11.583  -2.678  0.00  0.00     0.049 A 
ATOM      7  N   UNL d   1      26.013  -9.287  -3.076  0.00  0.00    -0.323 N 
ATOM      8  C   UNL d   1      25.367  -8.311  -3.798  0.00  0.00     0.245 C 
ATOM      9  O   UNL d   1      25.273  -7.190  -3.306  0.00  0.00    -0.271 OA
ATOM     10  C   UNL d   1      24.688  -8.757  -5.120  0.00  0.00     0.183 C 
ATOM     11  N   UNL d   1      25.403  -9.879  -5.755  0.00  0.00    -0.374 N 
ATOM     12  H   UNL d   1      26.370  -9.005  -2.174  0.00  0.00     0.169 HD
ATOM     13  H   UNL d   1      25.800  -9.780  -6.681  0.00  0.00     0.160 HD
ENDROOT
BRANCH   1  14
ATOM     14  C   UNL d   1      27.305 -13.989  -2.282  0.00  0.00     0.254 C 
ATOM     15  N   UNL d   1      26.595 -15.174  -2.086  0.00  0.00    -0.345 N 
ATOM     16  C   UNL d   1      27.157 -16.241  -1.233  0.00  0.00     0.146 C 
ATOM     17  C   UNL d   1      25.327 -15.559  -2.723  0.00  0.00     0.146 C 
ATOM     18  C   UNL d   1      26.130 -16.688  -0.166  0.00  0.00     0.148 C 
ATOM     19  N   UNL d   1      24.850 -17.058  -0.795  0.00  0.00    -0.325 N 
ATOM     20  C   UNL d   1      24.078 -18.090  -0.272  0.00  0.00     0.362 C 
ATOM     21  C   UNL d   1      24.303 -16.008  -1.661  0.00  0.00     0.148 C 
ATOM     22  O   UNL d   1      24.274 -18.574   0.844  0.00  0.00    -0.238 OA
ATOM     23  O   UNL d   1      28.404 -13.778  -1.770  0.00  0.00    -0.267 OA
BRANCH  20  24
ATOM     24  O   UNL d   1      23.132 -18.579  -1.139  0.00  0.00    -0.304 OA
BRANCH  24  25
ATOM     25  C   UNL d   1      21.772 -18.137  -0.886  0.00  0.00     0.176 C 
ATOM     26  C   UNL d   1      20.867 -19.317  -0.537  0.00  0.00     0.034 C 
ENDBRANCH  24  25
ENDBRANCH  20  24
ENDBRANCH   1  14
BRANCH  10  27
ATOM     27  C   UNL d   1      24.464  -7.594  -6.117  0.00  0.00     0.109 C 
BRANCH  27  28
ATOM     28  S   UNL d   1      23.212  -6.435  -5.454  0.00  0.00    -0.162 SA
BRANCH  28  29
ATOM     29  C   UNL d   1      22.479  -5.619  -6.910  0.00  0.00     0.112 C 
BRANCH  29  30
ATOM     30  C   UNL d   1      21.127  -6.111  -7.455  0.00  0.00    -0.043 A 
ATOM     31  C   UNL d   1      20.060  -6.208  -6.524  0.00  0.00     0.008 A 
ATOM     32  C   UNL d   1      18.783  -6.658  -6.896  0.00  0.00     0.001 A 
ATOM     33  C   UNL d   1      18.532  -7.031  -8.207  0.00  0.00     0.001 A 
ATOM     34  C   UNL d   1      19.551  -6.942  -9.143  0.00  0.00     0.007 A 
ATOM     35  C   UNL d   1      20.836  -6.491  -8.788  0.00  0.00    -0.055 A 
ATOM     36  C   UNL d   1      21.838  -6.461  -9.900  0.00  0.00     0.049 C 
ENDBRANCH  29  30
ENDBRANCH  28  29
ENDBRANCH  27  28
ENDBRANCH  10  27
TORSDOF 7
ENDMDL
MODEL 2
REMARK VINA RESULT:    -8.366      6.355     10.745
REMARK INTER + INTRA:         -11.039
REMARK INTER:                 -10.454
REMARK INTRA:                  -0.586
REMARK CONF_INDEPENDENT:        2.088
REMARK UNBOUND:                -0.586
REMARK  7 active torsions:
REMARK  status: ('A' for Active; 'I' for Inactive)
REMARK    1  A    between atoms: C_2  and  O_3 
REMARK    2  A    between atoms: O_3  and  C_4 
REMARK       I    between atoms: C_4  and  N_6 
REMARK       I    between atoms: N_9  and  C_10 
REMARK    3  A    between atoms: C_10  and  C_12 
REMARK    4  A    between atoms: C_21  and  C_22 
REMARK    5  A    between atoms: C_22  and  S_23 
REMARK    6  A    between atoms: S_23  and  C_24 
REMARK    7  A    between atoms: C_24  and  C_25 
ROOT
ATOM      1  C   UNL d   1      27.975 -14.534  -4.797  0.00  0.00     0.034 A 
ATOM      2  C   UNL d   1      26.694 -14.060  -5.122  0.00  0.00     0.019 A 
ATOM      3  C   UNL d   1      25.596 -14.333  -4.294  0.00  0.00     0.032 A 
ATOM      4  C   UNL d   1      25.755 -15.093  -3.139  0.00  0.00     0.056 A 
ATOM      5  C   UNL d   1      27.041 -15.577  -2.832  0.00  0.00     0.062 A 
ATOM      6  C   UNL d   1      28.154 -15.272  -3.625  0.00  0.00     0.049 A 
ATOM      7  N   UNL d   1      27.211 -16.359  -1.686  0.00  0.00    -0.323 N 
ATOM      8  C   UNL d   1      26.153 -16.876  -0.977  0.00  0.00     0.245 C 
ATOM      9  O   UNL d   1      26.394 -17.548   0.022  0.00  0.00    -0.271 OA
ATOM     10  C   UNL d   1      24.740 -16.677  -1.588  0.00  0.00     0.183 C 
ATOM     11  N   UNL d   1      24.647 -15.427  -2.364  0.00  0.00    -0.374 N 
ATOM     12  H   UNL d   1      28.130 -16.575  -1.327  0.00  0.00     0.169 HD
ATOM     13  H   UNL d   1      23.990 -14.703  -2.101  0.00  0.00     0.160 HD
ENDROOT
BRANCH   1  14
ATOM     14  C   UNL d   1      29.124 -14.125  -5.656  0.00  0.00     0.254 C 
ATOM     15  N   UNL d   1      29.919 -15.076  -6.296  0.00  0.00    -0.345 N 
ATOM     16  C   UNL d   1      31.052 -14.645  -7.142  0.00  0.00     0.146 C 
ATOM     17  C   UNL d   1      29.717 -16.533  -6.311  0.00  0.00     0.146 C 
ATOM     18  C   UNL d   1      32.352 -15.377  -6.733  0.00  0.00     0.148 C 
ATOM     19  N   UNL d   1      32.151 -16.837  -6.727  0.00  0.00    -0.325 N 
ATOM     20  C   UNL d   1      33.181 -17.693  -7.101  0.00  0.00     0.362 C 
ATOM     21  C   UNL d   1      31.013 -17.264  -5.906  0.00  0.00     0.148 C 
ATOM     22  O   UNL d   1      34.352 -17.324  -7.213  0.00  0.00    -0.238 OA
ATOM     23  O   UNL d   1      29.318 -12.915  -5.761  0.00  0.00    -0.267 OA
BRANCH  20  24
ATOM     24  O   UNL d   1      32.768 -18.965  -7.414  0.00  0.00    -0.304 OA
BRANCH  24  25
ATOM     25  C   UNL d   1      32.190 -19.120  -8.737  0.00  0.00     0.176 C 
ATOM     26  C   UNL d   1      30.780 -19.700  -8.655  0.00  0.00     0.034 C 
ENDBRANCH  24  25
ENDBRANCH  20  24
ENDBRANCH   1  14
BRANCH  10  27
ATOM     27  C   UNL d   1      23.601 -16.779  -0.546  0.00  0.00     0.109 C 
BRANCH  27  28
ATOM     28  S   UNL d   1      22.921 -18.479  -0.529  0.00  0.00    -0.162 SA
BRANCH  28  29
ATOM     29  C   UNL d   1      21.876 -18.575   0.962  0.00  0.00     0.112 C 
BRANCH  29  30
ATOM     30  C   UNL d   1      20.551 -19.357   0.911  0.00  0.00    -0.043 A 
ATOM     31  C   UNL d   1      19.992 -19.744   2.157  0.00  0.00     0.008 A 
ATOM     32  C   UNL d   1      18.795 -20.474   2.242  0.00  0.00     0.001 A 
ATOM     33  C   UNL d   1      18.123 -20.845   1.087  0.00  0.00     0.001 A 
ATOM     34  C   UNL d   1      18.640 -20.477  -0.145  0.00  0.00     0.007 A 
ATOM     35  C   UNL d   1      19.838 -19.744  -0.248  0.00  0.00    -0.055 A 
ATOM     36  C   UNL d   1      20.281 -19.430  -1.643  0.00  0.00     0.049 C 
ENDBRANCH  29  30
ENDBRANCH  28  29
ENDBRANCH  27  28
ENDBRANCH  10  27
TORSDOF 7
ENDMDL
MODEL 3
REMARK VINA RESULT:    -8.304      3.093     10.692
REMARK INTER + INTRA:         -11.070
REMARK INTER:                 -10.392
REMARK INTRA:                  -0.678
REMARK CONF_INDEPENDENT:        2.088
REMARK UNBOUND:                -0.678
REMARK  7 active torsions:
REMARK  status: ('A' for Active; 'I' for Inactive)
REMARK    1  A    between atoms: C_2  and  O_3 
REMARK    2  A    between atoms: O_3  and  C_4 
REMARK       I    between atoms: C_4  and  N_6 
REMARK       I    between atoms: N_9  and  C_10 
REMARK    3  A    between atoms: C_10  and  C_12 
REMARK    4  A    between atoms: C_21  and  C_22 
REMARK    5  A    between atoms: C_22  and  S_23 
REMARK    6  A    between atoms: S_23  and  C_24 
REMARK    7  A    between atoms: C_24  and  C_25 
ROOT
ATOM      1  C   UNL d   1      25.968  -8.835  -3.421  0.00  0.00     0.034 A 
ATOM      2  C   UNL d   1      26.910  -9.089  -2.410  0.00  0.00     0.019 A 
ATOM      3  C   UNL d   1      27.367 -10.392  -2.165  0.00  0.00     0.032 A 
ATOM      4  C   UNL d   1      26.882 -11.461  -2.913  0.00  0.00     0.056 A 
ATOM      5  C   UNL d   1      25.926 -11.197  -3.912  0.00  0.00     0.062 A 
ATOM      6  C   UNL d   1      25.497  -9.896  -4.198  0.00  0.00     0.049 A 
ATOM      7  N   UNL d   1      25.417 -12.265  -4.656  0.00  0.00    -0.323 N 
ATOM      8  C   UNL d   1      25.621 -13.579  -4.305  0.00  0.00     0.245 C 
ATOM      9  O   UNL d   1      25.142 -14.454  -5.021  0.00  0.00    -0.271 OA
ATOM     10  C   UNL d   1      26.329 -13.835  -2.948  0.00  0.00     0.183 C 
ATOM     11  N   UNL d   1      27.281 -12.761  -2.612  0.00  0.00    -0.374 N 
ATOM     12  H   UNL d   1      24.875 -12.111  -5.494  0.00  0.00     0.169 HD
ATOM     13  H   UNL d   1      28.266 -12.963  -2.492  0.00  0.00     0.160 HD
ENDROOT
BRANCH   1  14
ATOM     14  C   UNL d   1      25.597  -7.420  -3.708  0.00  0.00     0.254 C 
ATOM     15  N   UNL d   1      24.477  -7.111  -4.480  0.00  0.00    -0.345 N 
ATOM     16  C   UNL d   1      24.131  -5.700  -4.750  0.00  0.00     0.146 C 
ATOM     17  C   UNL d   1      23.487  -8.056  -5.020  0.00  0.00     0.146 C 
ATOM     18  C   UNL d   1      23.928  -5.465  -6.266  0.00  0.00     0.148 C 
ATOM     19  N   UNL d   1      22.952  -6.422  -6.818  0.00  0.00    -0.325 N 
ATOM     20  C   UNL d   1      22.089  -6.040  -7.839  0.00  0.00     0.362 C 
ATOM     21  C   UNL d   1      23.283  -7.821  -6.530  0.00  0.00     0.148 C 
ATOM     22  O   UNL d   1      22.243  -5.008  -8.496  0.00  0.00    -0.238 OA
ATOM     23  O   UNL d   1      26.333  -6.558  -3.227  0.00  0.00    -0.267 OA
BRANCH  20  24
ATOM     24  O   UNL d   1      21.006  -6.868  -7.998  0.00  0.00    -0.304 OA
BRANCH  24  25
ATOM     25  C   UNL d   1      19.737  -6.195  -8.213  0.00  0.00     0.176 C 
ATOM     26  C   UNL d   1      18.589  -7.199  -8.289  0.00  0.00     0.034 C 
ENDBRANCH  24  25
ENDBRANCH  20  24
ENDBRANCH   1  14
BRANCH  10  27
ATOM     27  C   UNL d   1      26.996 -15.229  -2.858  0.00  0.00     0.109 C 
BRANCH  27  28
ATOM     28  S   UNL d   1      27.416 -15.610  -1.118  0.00  0.00    -0.162 SA
BRANCH  28  29
ATOM     29  C   UNL d   1      25.843 -15.518  -0.201  0.00  0.00     0.112 C 
BRANCH  29  30
ATOM     30  C   UNL d   1      24.828 -16.668  -0.318  0.00  0.00    -0.043 A 
ATOM     31  C   UNL d   1      23.524 -16.324  -0.761  0.00  0.00     0.008 A 
ATOM     32  C   UNL d   1      22.505 -17.282  -0.894  0.00  0.00     0.001 A 
ATOM     33  C   UNL d   1      22.754 -18.610  -0.585  0.00  0.00     0.001 A 
ATOM     34  C   UNL d   1      24.019 -18.979  -0.155  0.00  0.00     0.007 A 
ATOM     35  C   UNL d   1      25.053 -18.033  -0.018  0.00  0.00    -0.055 A 
ATOM     36  C   UNL d   1      26.361 -18.575   0.468  0.00  0.00     0.049 C 
ENDBRANCH  29  30
ENDBRANCH  28  29
ENDBRANCH  27  28
ENDBRANCH  10  27
TORSDOF 7
ENDMDL
MODEL 4
REMARK VINA RESULT:    -8.126      8.033     11.901
REMARK INTER + INTRA:         -11.154
REMARK INTER:                 -10.214
REMARK INTRA:                  -0.940
REMARK CONF_INDEPENDENT:        2.088
REMARK UNBOUND:                -0.940
REMARK  7 active torsions:
REMARK  status: ('A' for Active; 'I' for Inactive)
REMARK    1  A    between atoms: C_2  and  O_3 
REMARK    2  A    between atoms: O_3  and  C_4 
REMARK       I    between atoms: C_4  and  N_6 
REMARK       I    between atoms: N_9  and  C_10 
REMARK    3  A    between atoms: C_10  and  C_12 
REMARK    4  A    between atoms: C_21  and  C_22 
REMARK    5  A    between atoms: C_22  and  S_23 
REMARK    6  A    between atoms: S_23  and  C_24 
REMARK    7  A    between atoms: C_24  and  C_25 
ROOT
ATOM      1  C   UNL d   1      28.922 -12.614   5.006  0.00  0.00     0.034 A 
ATOM      2  C   UNL d   1      27.763 -12.883   4.259  0.00  0.00     0.019 A 
ATOM      3  C   UNL d   1      27.813 -13.712   3.129  0.00  0.00     0.032 A 
ATOM      4  C   UNL d   1      29.019 -14.274   2.720  0.00  0.00     0.056 A 
ATOM      5  C   UNL d   1      30.177 -13.984   3.467  0.00  0.00     0.062 A 
ATOM      6  C   UNL d   1      30.133 -13.196   4.623  0.00  0.00     0.049 A 
ATOM      7  N   UNL d   1      31.398 -14.525   3.054  0.00  0.00    -0.323 N 
ATOM      8  C   UNL d   1      31.566 -15.127   1.829  0.00  0.00     0.245 C 
ATOM      9  O   UNL d   1      32.673 -15.581   1.551  0.00  0.00    -0.271 OA
ATOM     10  C   UNL d   1      30.368 -15.053   0.845  0.00  0.00     0.183 C 
ATOM     11  N   UNL d   1      29.075 -15.032   1.553  0.00  0.00    -0.374 N 
ATOM     12  H   UNL d   1      32.213 -14.499   3.649  0.00  0.00     0.169 HD
ATOM     13  H   UNL d   1      28.392 -15.764   1.404  0.00  0.00     0.160 HD
ENDROOT
BRANCH   1  14
ATOM     14  C   UNL d   1      28.792 -11.813   6.257  0.00  0.00     0.254 C 
ATOM     15  N   UNL d   1      29.123 -12.356   7.498  0.00  0.00    -0.345 N 
ATOM     16  C   UNL d   1      28.986 -11.541   8.723  0.00  0.00     0.146 C 
ATOM     17  C   UNL d   1      29.706 -13.682   7.756  0.00  0.00     0.146 C 
ATOM     18  C   UNL d   1      28.164 -12.295   9.795  0.00  0.00     0.148 C 
ATOM     19  N   UNL d   1      28.731 -13.633  10.045  0.00  0.00    -0.325 N 
ATOM     20  C   UNL d   1      28.697 -14.187  11.319  0.00  0.00     0.362 C 
ATOM     21  C   UNL d   1      28.889 -14.434   8.826  0.00  0.00     0.148 C 
ATOM     22  O   UNL d   1      28.000 -13.734  12.229  0.00  0.00    -0.238 OA
ATOM     23  O   UNL d   1      28.382 -10.660   6.123  0.00  0.00    -0.267 OA
BRANCH  20  24
ATOM     24  O   UNL d   1      29.568 -15.233  11.500  0.00  0.00    -0.304 OA
BRANCH  24  25
ATOM     25  C   UNL d   1      30.976 -14.877  11.480  0.00  0.00     0.176 C 
ATOM     26  C   UNL d   1      31.695 -15.549  10.312  0.00  0.00     0.034 C 
ENDBRANCH  24  25
ENDBRANCH  20  24
ENDBRANCH   1  14
BRANCH  10  27
ATOM     27  C   UNL d   1      30.398 -16.155  -0.241  0.00  0.00     0.109 C 
BRANCH  27  28
ATOM     28  S   UNL d   1      28.794 -16.209  -1.122  0.00  0.00    -0.162 SA
BRANCH  28  29
ATOM     29  C   UNL d   1      27.726 -17.304  -0.131  0.00  0.00     0.112 C 
BRANCH  29  30
ATOM     30  C   UNL d   1      26.205 -17.295  -0.364  0.00  0.00    -0.043 A 
ATOM     31  C   UNL d   1      25.486 -18.437   0.075  0.00  0.00     0.008 A 
ATOM     32  C   UNL d   1      24.097 -18.554  -0.095  0.00  0.00     0.001 A 
ATOM     33  C   UNL d   1      23.383 -17.539  -0.714  0.00  0.00     0.001 A 
ATOM     34  C   UNL d   1      24.055 -16.407  -1.149  0.00  0.00     0.007 A 
ATOM     35  C   UNL d   1      25.447 -16.272  -0.984  0.00  0.00    -0.055 A 
ATOM     36  C   UNL d   1      26.038 -15.003  -1.514  0.00  0.00     0.049 C 
ENDBRANCH  29  30
ENDBRANCH  28  29
ENDBRANCH  27  28
ENDBRANCH  10  27
TORSDOF 7
ENDMDL
MODEL 5
REMARK VINA RESULT:    -7.962      7.262     10.634
REMARK INTER + INTRA:         -11.066
REMARK INTER:                 -10.050
REMARK INTRA:                  -1.016
REMARK CONF_INDEPENDENT:        2.088
REMARK UNBOUND:                -1.016
REMARK  7 active torsions:
REMARK  status: ('A' for Active; 'I' for Inactive)
REMARK    1  A    between atoms: C_2  and  O_3 
REMARK    2  A    between atoms: O_3  and  C_4 
REMARK       I    between atoms: C_4  and  N_6 
REMARK       I    between atoms: N_9  and  C_10 
REMARK    3  A    between atoms: C_10  and  C_12 
REMARK    4  A    between atoms: C_21  and  C_22 
REMARK    5  A    between atoms: C_22  and  S_23 
REMARK    6  A    between atoms: S_23  and  C_24 
REMARK    7  A    between atoms: C_24  and  C_25 
ROOT
ATOM      1  C   UNL d   1      27.800 -11.949   2.947  0.00  0.00     0.034 A 
ATOM      2  C   UNL d   1      27.456 -11.175   1.827  0.00  0.00     0.019 A 
ATOM      3  C   UNL d   1      27.337 -11.761   0.558  0.00  0.00     0.032 A 
ATOM      4  C   UNL d   1      27.572 -13.121   0.385  0.00  0.00     0.056 A 
ATOM      5  C   UNL d   1      27.932 -13.885   1.512  0.00  0.00     0.062 A 
ATOM      6  C   UNL d   1      28.008 -13.322   2.792  0.00  0.00     0.049 A 
ATOM      7  N   UNL d   1      28.191 -15.248   1.348  0.00  0.00    -0.323 N 
ATOM      8  C   UNL d   1      28.344 -15.831   0.112  0.00  0.00     0.245 C 
ATOM      9  O   UNL d   1      28.564 -17.038   0.061  0.00  0.00    -0.271 OA
ATOM     10  C   UNL d   1      28.363 -14.876  -1.111  0.00  0.00     0.183 C 
ATOM     11  N   UNL d   1      27.530 -13.680  -0.890  0.00  0.00    -0.374 N 
ATOM     12  H   UNL d   1      28.273 -15.868   2.141  0.00  0.00     0.169 HD
ATOM     13  H   UNL d   1      26.741 -13.482  -1.492  0.00  0.00     0.160 HD
ENDROOT
BRANCH   1  14
ATOM     14  C   UNL d   1      27.808 -11.296   4.288  0.00  0.00     0.254 C 
ATOM     15  N   UNL d   1      28.532 -11.840   5.350  0.00  0.00    -0.345 N 
ATOM     16  C   UNL d   1      28.524 -11.173   6.668  0.00  0.00     0.146 C 
ATOM     17  C   UNL d   1      29.423 -13.009   5.305  0.00  0.00     0.146 C 
ATOM     18  C   UNL d   1      28.158 -12.176   7.788  0.00  0.00     0.148 C 
ATOM     19  N   UNL d   1      29.034 -13.360   7.738  0.00  0.00    -0.325 N 
ATOM     20  C   UNL d   1      29.422 -14.001   8.909  0.00  0.00     0.362 C 
ATOM     21  C   UNL d   1      29.060 -14.008   6.422  0.00  0.00     0.148 C 
ATOM     22  O   UNL d   1      28.885 -13.792   9.998  0.00  0.00    -0.238 OA
ATOM     23  O   UNL d   1      27.146 -10.264   4.392  0.00  0.00    -0.267 OA
BRANCH  20  24
ATOM     24  O   UNL d   1      30.510 -14.826   8.763  0.00  0.00    -0.304 OA
BRANCH  24  25
ATOM     25  C   UNL d   1      31.276 -15.063   9.974  0.00  0.00     0.176 C 
ATOM     26  C   UNL d   1      30.812 -16.338  10.676  0.00  0.00     0.034 C 
ENDBRANCH  24  25
ENDBRANCH  20  24
ENDBRANCH   1  14
BRANCH  10  27
ATOM     27  C   UNL d   1      28.001 -15.577  -2.442  0.00  0.00     0.109 C 
BRANCH  27  28
ATOM     28  S   UNL d   1      26.195 -15.485  -2.727  0.00  0.00    -0.162 SA
BRANCH  28  29
ATOM     29  C   UNL d   1      25.430 -15.644  -1.080  0.00  0.00     0.112 C 
BRANCH  29  30
ATOM     30  C   UNL d   1      24.393 -16.753  -0.828  0.00  0.00    -0.043 A 
ATOM     31  C   UNL d   1      23.037 -16.430  -1.093  0.00  0.00     0.008 A 
ATOM     32  C   UNL d   1      21.997 -17.352  -0.889  0.00  0.00     0.001 A 
ATOM     33  C   UNL d   1      22.278 -18.622  -0.408  0.00  0.00     0.001 A 
ATOM     34  C   UNL d   1      23.593 -18.970  -0.145  0.00  0.00     0.007 A 
ATOM     35  C   UNL d   1      24.648 -18.059  -0.346  0.00  0.00    -0.055 A 
ATOM     36  C   UNL d   1      26.014 -18.571  -0.007  0.00  0.00     0.049 C 
ENDBRANCH  29  30
ENDBRANCH  28  29
ENDBRANCH  27  28
ENDBRANCH  10  27
TORSDOF 7
ENDMDL
MODEL 6
REMARK VINA RESULT:    -7.754      8.526     12.737
REMARK INTER + INTRA:         -10.859
REMARK INTER:                  -9.842
REMARK INTRA:                  -1.018
REMARK CONF_INDEPENDENT:        2.088
REMARK UNBOUND:                -1.018
REMARK  7 active torsions:
REMARK  status: ('A' for Active; 'I' for Inactive)
REMARK    1  A    between atoms: C_2  and  O_3 
REMARK    2  A    between atoms: O_3  and  C_4 
REMARK       I    between atoms: C_4  and  N_6 
REMARK       I    between atoms: N_9  and  C_10 
REMARK    3  A    between atoms: C_10  and  C_12 
REMARK    4  A    between atoms: C_21  and  C_22 
REMARK    5  A    between atoms: C_22  and  S_23 
REMARK    6  A    between atoms: S_23  and  C_24 
REMARK    7  A    between atoms: C_24  and  C_25 
ROOT
ATOM      1  C   UNL d   1      28.880 -13.741   6.367  0.00  0.00     0.034 A 
ATOM      2  C   UNL d   1      27.641 -13.744   5.707  0.00  0.00     0.019 A 
ATOM      3  C   UNL d   1      27.549 -14.092   4.352  0.00  0.00     0.032 A 
ATOM      4  C   UNL d   1      28.691 -14.430   3.632  0.00  0.00     0.056 A 
ATOM      5  C   UNL d   1      29.930 -14.408   4.299  0.00  0.00     0.062 A 
ATOM      6  C   UNL d   1      30.030 -14.108   5.663  0.00  0.00     0.049 A 
ATOM      7  N   UNL d   1      31.087 -14.725   3.582  0.00  0.00    -0.323 N 
ATOM      8  C   UNL d   1      31.106 -14.825   2.210  0.00  0.00     0.245 C 
ATOM      9  O   UNL d   1      32.167 -15.114   1.663  0.00  0.00    -0.271 OA
ATOM     10  C   UNL d   1      29.806 -14.422   1.464  0.00  0.00     0.183 C 
ATOM     11  N   UNL d   1      28.602 -14.699   2.268  0.00  0.00    -0.374 N 
ATOM     12  H   UNL d   1      31.965 -14.900   4.049  0.00  0.00     0.169 HD
ATOM     13  H   UNL d   1      27.894 -15.341   1.934  0.00  0.00     0.160 HD
ENDROOT
BRANCH   1  14
ATOM     14  C   UNL d   1      28.906 -13.465   7.832  0.00  0.00     0.254 C 
ATOM     15  N   UNL d   1      28.929 -12.158   8.319  0.00  0.00    -0.345 N 
ATOM     16  C   UNL d   1      28.955 -11.912   9.776  0.00  0.00     0.146 C 
ATOM     17  C   UNL d   1      28.840 -10.920   7.531  0.00  0.00     0.146 C 
ATOM     18  C   UNL d   1      30.106 -10.948  10.150  0.00  0.00     0.148 C 
ATOM     19  N   UNL d   1      30.034  -9.712   9.350  0.00  0.00    -0.325 N 
ATOM     20  C   UNL d   1      30.407  -8.492   9.902  0.00  0.00     0.362 C 
ATOM     21  C   UNL d   1      29.985  -9.957   7.905  0.00  0.00     0.148 C 
ATOM     22  O   UNL d   1      31.033  -8.397  10.960  0.00  0.00    -0.238 OA
ATOM     23  O   UNL d   1      28.905 -14.451   8.569  0.00  0.00    -0.267 OA
BRANCH  20  24
ATOM     24  O   UNL d   1      29.947  -7.398   9.210  0.00  0.00    -0.304 OA
BRANCH  24  25
ATOM     25  C   UNL d   1      29.916  -6.157   9.962  0.00  0.00     0.176 C 
ATOM     26  C   UNL d   1      28.486  -5.789  10.355  0.00  0.00     0.034 C 
ENDBRANCH  24  25
ENDBRANCH  20  24
ENDBRANCH   1  14
BRANCH  10  27
ATOM     27  C   UNL d   1      29.695 -15.041   0.050  0.00  0.00     0.109 C 
BRANCH  27  28
ATOM     28  S   UNL d   1      28.075 -14.619  -0.691  0.00  0.00    -0.162 SA
BRANCH  28  29
ATOM     29  C   UNL d   1      27.466 -16.161  -1.451  0.00  0.00     0.112 C 
BRANCH  29  30
ATOM     30  C   UNL d   1      26.106 -16.735  -1.019  0.00  0.00    -0.043 A 
ATOM     31  C   UNL d   1      24.952 -16.140  -1.591  0.00  0.00     0.008 A 
ATOM     32  C   UNL d   1      23.654 -16.565  -1.264  0.00  0.00     0.001 A 
ATOM     33  C   UNL d   1      23.467 -17.594  -0.354  0.00  0.00     0.001 A 
ATOM     34  C   UNL d   1      24.575 -18.200   0.218  0.00  0.00     0.007 A 
ATOM     35  C   UNL d   1      25.883 -17.788  -0.099  0.00  0.00    -0.055 A 
ATOM     36  C   UNL d   1      26.979 -18.525   0.605  0.00  0.00     0.049 C 
ENDBRANCH  29  30
ENDBRANCH  28  29
ENDBRANCH  27  28
ENDBRANCH  10  27
TORSDOF 7
ENDMDL
MODEL 7
REMARK VINA RESULT:    -7.732      8.110     11.533
REMARK INTER + INTRA:         -10.944
REMARK INTER:                  -9.820
REMARK INTRA:                  -1.124
REMARK CONF_INDEPENDENT:        2.088
REMARK UNBOUND:                -1.124
REMARK  7 active torsions:
REMARK  status: ('A' for Active; 'I' for Inactive)
REMARK    1  A    between atoms: C_2  and  O_3 
REMARK    2  A    between atoms: O_3  and  C_4 
REMARK       I    between atoms: C_4  and  N_6 
REMARK       I    between atoms: N_9  and  C_10 
REMARK    3  A    between atoms: C_10  and  C_12 
REMARK    4  A    between atoms: C_21  and  C_22 
REMARK    5  A    between atoms: C_22  and  S_23 
REMARK    6  A    between atoms: S_23  and  C_24 
REMARK    7  A    between atoms: C_24  and  C_25 
ROOT
ATOM      1  C   UNL d   1      28.500 -12.655   4.726  0.00  0.00     0.034 A 
ATOM      2  C   UNL d   1      27.749 -13.840   4.658  0.00  0.00     0.019 A 
ATOM      3  C   UNL d   1      27.859 -14.698   3.554  0.00  0.00     0.032 A 
ATOM      4  C   UNL d   1      28.708 -14.382   2.498  0.00  0.00     0.056 A 
ATOM      5  C   UNL d   1      29.444 -13.184   2.569  0.00  0.00     0.062 A 
ATOM      6  C   UNL d   1      29.379 -12.342   3.686  0.00  0.00     0.049 A 
ATOM      7  N   UNL d   1      30.285 -12.845   1.506  0.00  0.00    -0.323 N 
ATOM      8  C   UNL d   1      30.250 -13.497   0.295  0.00  0.00     0.245 C 
ATOM      9  O   UNL d   1      31.029 -13.136  -0.583  0.00  0.00    -0.271 OA
ATOM     10  C   UNL d   1      29.123 -14.546   0.101  0.00  0.00     0.183 C 
ATOM     11  N   UNL d   1      28.754 -15.198   1.371  0.00  0.00    -0.374 N 
ATOM     12  H   UNL d   1      30.963 -12.100   1.587  0.00  0.00     0.169 HD
ATOM     13  H   UNL d   1      28.857 -16.199   1.486  0.00  0.00     0.160 HD
ENDROOT
BRANCH   1  14
ATOM     14  C   UNL d   1      28.423 -11.835   5.969  0.00  0.00     0.254 C 
ATOM     15  N   UNL d   1      28.905 -12.321   7.185  0.00  0.00    -0.345 N 
ATOM     16  C   UNL d   1      28.818 -11.488   8.402  0.00  0.00     0.146 C 
ATOM     17  C   UNL d   1      29.607 -13.593   7.412  0.00  0.00     0.146 C 
ATOM     18  C   UNL d   1      28.155 -12.273   9.559  0.00  0.00     0.148 C 
ATOM     19  N   UNL d   1      28.842 -13.558   9.779  0.00  0.00    -0.325 N 
ATOM     20  C   UNL d   1      28.965 -14.082  11.061  0.00  0.00     0.362 C 
ATOM     21  C   UNL d   1      28.950 -14.376   8.566  0.00  0.00     0.148 C 
ATOM     22  O   UNL d   1      28.321 -13.658  12.023  0.00  0.00    -0.238 OA
ATOM     23  O   UNL d   1      27.917 -10.719   5.852  0.00  0.00    -0.267 OA
BRANCH  20  24
ATOM     24  O   UNL d   1      29.926 -15.055  11.181  0.00  0.00    -0.304 OA
BRANCH  24  25
ATOM     25  C   UNL d   1      31.290 -14.612  10.949  0.00  0.00     0.176 C 
ATOM     26  C   UNL d   1      32.030 -15.575  10.024  0.00  0.00     0.034 C 
ENDBRANCH  24  25
ENDBRANCH  20  24
ENDBRANCH   1  14
BRANCH  10  27
ATOM     27  C   UNL d   1      29.440 -15.589  -0.998  0.00  0.00     0.109 C 
BRANCH  27  28
ATOM     28  S   UNL d   1      27.903 -16.060  -1.873  0.00  0.00    -0.162 SA
BRANCH  28  29
ATOM     29  C   UNL d   1      26.538 -15.580  -0.764  0.00  0.00     0.112 C 
BRANCH  29  30
ATOM     30  C   UNL d   1      25.357 -16.543  -0.553  0.00  0.00    -0.043 A 
ATOM     31  C   UNL d   1      24.093 -16.119  -1.041  0.00  0.00     0.008 A 
ATOM     32  C   UNL d   1      22.937 -16.902  -0.895  0.00  0.00     0.001 A 
ATOM     33  C   UNL d   1      23.003 -18.130  -0.254  0.00  0.00     0.001 A 
ATOM     34  C   UNL d   1      24.224 -18.575   0.229  0.00  0.00     0.007 A 
ATOM     35  C   UNL d   1      25.394 -17.804   0.090  0.00  0.00    -0.055 A 
ATOM     36  C   UNL d   1      26.634 -18.407   0.672  0.00  0.00     0.049 C 
ENDBRANCH  29  30
ENDBRANCH  28  29
ENDBRANCH  27  28
ENDBRANCH  10  27
TORSDOF 7
ENDMDL
MODEL 8
REMARK VINA RESULT:    -7.621      7.139     11.218
REMARK INTER + INTRA:         -10.851
REMARK INTER:                  -9.709
REMARK INTRA:                  -1.142
REMARK CONF_INDEPENDENT:        2.088
REMARK UNBOUND:                -1.142
REMARK  7 active torsions:
REMARK  status: ('A' for Active; 'I' for Inactive)
REMARK    1  A    between atoms: C_2  and  O_3 
REMARK    2  A    between atoms: O_3  and  C_4 
REMARK       I    between atoms: C_4  and  N_6 
REMARK       I    between atoms: N_9  and  C_10 
REMARK    3  A    between atoms: C_10  and  C_12 
REMARK    4  A    between atoms: C_21  and  C_22 
REMARK    5  A    between atoms: C_22  and  S_23 
REMARK    6  A    between atoms: S_23  and  C_24 
REMARK    7  A    between atoms: C_24  and  C_25 
ROOT
ATOM      1  C   UNL d   1      27.919 -13.922   3.879  0.00  0.00     0.034 A 
ATOM      2  C   UNL d   1      27.029 -12.948   3.399  0.00  0.00     0.019 A 
ATOM      3  C   UNL d   1      26.738 -12.853   2.030  0.00  0.00     0.032 A 
ATOM      4  C   UNL d   1      27.339 -13.718   1.120  0.00  0.00     0.056 A 
ATOM      5  C   UNL d   1      28.242 -14.680   1.611  0.00  0.00     0.062 A 
ATOM      6  C   UNL d   1      28.506 -14.815   2.979  0.00  0.00     0.049 A 
ATOM      7  N   UNL d   1      28.868 -15.541   0.705  0.00  0.00    -0.323 N 
ATOM      8  C   UNL d   1      28.829 -15.342  -0.656  0.00  0.00     0.245 C 
ATOM      9  O   UNL d   1      29.402 -16.152  -1.378  0.00  0.00    -0.271 OA
ATOM     10  C   UNL d   1      28.176 -14.024  -1.149  0.00  0.00     0.183 C 
ATOM     11  N   UNL d   1      27.105 -13.568  -0.245  0.00  0.00    -0.374 N 
ATOM     12  H   UNL d   1      29.376 -16.356   1.018  0.00  0.00     0.169 HD
ATOM     13  H   UNL d   1      26.154 -13.472  -0.578  0.00  0.00     0.160 HD
ENDROOT
BRANCH   1  14
ATOM     14  C   UNL d   1      28.111 -14.046   5.352  0.00  0.00     0.254 C 
ATOM     15  N   UNL d   1      28.185 -12.916   6.167  0.00  0.00    -0.345 N 
ATOM     16  C   UNL d   1      28.375 -13.065   7.625  0.00  0.00     0.146 C 
ATOM     17  C   UNL d   1      28.002 -11.516   5.755  0.00  0.00     0.146 C 
ATOM     18  C   UNL d   1      29.558 -12.197   8.116  0.00  0.00     0.148 C 
ATOM     19  N   UNL d   1      29.391 -10.796   7.691  0.00  0.00    -0.325 N 
ATOM     20  C   UNL d   1      29.820  -9.755   8.506  0.00  0.00     0.362 C 
ATOM     21  C   UNL d   1      29.178 -10.649   6.246  0.00  0.00     0.148 C 
ATOM     22  O   UNL d   1      30.562  -9.924   9.475  0.00  0.00    -0.238 OA
ATOM     23  O   UNL d   1      28.198 -15.192   5.793  0.00  0.00    -0.267 OA
BRANCH  20  24
ATOM     24  O   UNL d   1      29.280  -8.533   8.187  0.00  0.00    -0.304 OA
BRANCH  24  25
ATOM     25  C   UNL d   1      30.153  -7.393   8.407  0.00  0.00     0.176 C 
ATOM     26  C   UNL d   1      29.844  -6.716   9.740  0.00  0.00     0.034 C 
ENDBRANCH  24  25
ENDBRANCH  20  24
ENDBRANCH   1  14
BRANCH  10  27
ATOM     27  C   UNL d   1      27.685 -14.094  -2.615  0.00  0.00     0.109 C 
BRANCH  27  28
ATOM     28  S   UNL d   1      26.621 -15.566  -2.848  0.00  0.00    -0.162 SA
BRANCH  28  29
ATOM     29  C   UNL d   1      25.161 -15.290  -1.791  0.00  0.00     0.112 C 
BRANCH  29  30
ATOM     30  C   UNL d   1      24.507 -16.483  -1.073  0.00  0.00    -0.043 A 
ATOM     31  C   UNL d   1      23.088 -16.507  -1.041  0.00  0.00     0.008 A 
ATOM     32  C   UNL d   1      22.375 -17.535  -0.403  0.00  0.00     0.001 A 
ATOM     33  C   UNL d   1      23.054 -18.566   0.227  0.00  0.00     0.001 A 
ATOM     34  C   UNL d   1      24.440 -18.575   0.209  0.00  0.00     0.007 A 
ATOM     35  C   UNL d   1      25.171 -17.554  -0.428  0.00  0.00    -0.055 A 
ATOM     36  C   UNL d   1      26.661 -17.688  -0.356  0.00  0.00     0.049 C 
ENDBRANCH  29  30
ENDBRANCH  28  29
ENDBRANCH  27  28
ENDBRANCH  10  27
TORSDOF 7
ENDMDL
MODEL 9
REMARK VINA RESULT:    -7.564      8.573     12.230
REMARK INTER + INTRA:         -10.799
REMARK INTER:                  -9.652
REMARK INTRA:                  -1.146
REMARK CONF_INDEPENDENT:        2.088
REMARK UNBOUND:                -1.146
REMARK  7 active torsions:
REMARK  status: ('A' for Active; 'I' for Inactive)
REMARK    1  A    between atoms: C_2  and  O_3 
REMARK    2  A    between atoms: O_3  and  C_4 
REMARK       I    between atoms: C_4  and  N_6 
REMARK       I    between atoms: N_9  and  C_10 
REMARK    3  A    between atoms: C_10  and  C_12 
REMARK    4  A    between atoms: C_21  and  C_22 
REMARK    5  A    between atoms: C_22  and  S_23 
REMARK    6  A    between atoms: S_23  and  C_24 
REMARK    7  A    between atoms: C_24  and  C_25 
ROOT
ATOM      1  C   UNL d   1      28.422 -13.237   6.601  0.00  0.00     0.034 A 
ATOM      2  C   UNL d   1      28.531 -14.596   6.264  0.00  0.00     0.019 A 
ATOM      3  C   UNL d   1      28.361 -15.024   4.940  0.00  0.00     0.032 A 
ATOM      4  C   UNL d   1      28.068 -14.107   3.935  0.00  0.00     0.056 A 
ATOM      5  C   UNL d   1      27.945 -12.749   4.286  0.00  0.00     0.062 A 
ATOM      6  C   UNL d   1      28.158 -12.303   5.596  0.00  0.00     0.049 A 
ATOM      7  N   UNL d   1      27.630 -11.821   3.290  0.00  0.00    -0.323 N 
ATOM      8  C   UNL d   1      27.203 -12.193   2.037  0.00  0.00     0.245 C 
ATOM      9  O   UNL d   1      26.954 -11.310   1.221  0.00  0.00    -0.271 OA
ATOM     10  C   UNL d   1      26.939 -13.706   1.812  0.00  0.00     0.183 C 
ATOM     11  N   UNL d   1      27.824 -14.548   2.637  0.00  0.00    -0.374 N 
ATOM     12  H   UNL d   1      27.710 -10.827   3.452  0.00  0.00     0.169 HD
ATOM     13  H   UNL d   1      28.468 -15.199   2.204  0.00  0.00     0.160 HD
ENDROOT
BRANCH   1  14
ATOM     14  C   UNL d   1      28.715 -12.826   8.004  0.00  0.00     0.254 C 
ATOM     15  N   UNL d   1      29.926 -13.155   8.613  0.00  0.00    -0.345 N 
ATOM     16  C   UNL d   1      30.193 -12.735  10.004  0.00  0.00     0.146 C 
ATOM     17  C   UNL d   1      31.075 -13.829   7.989  0.00  0.00     0.146 C 
ATOM     18  C   UNL d   1      30.647 -13.939  10.864  0.00  0.00     0.148 C 
ATOM     19  N   UNL d   1      31.785 -14.631  10.235  0.00  0.00    -0.325 N 
ATOM     20  C   UNL d   1      32.783 -15.203  11.017  0.00  0.00     0.362 C 
ATOM     21  C   UNL d   1      31.529 -15.028   8.846  0.00  0.00     0.148 C 
ATOM     22  O   UNL d   1      32.663 -15.384  12.230  0.00  0.00    -0.238 OA
ATOM     23  O   UNL d   1      27.833 -12.187   8.577  0.00  0.00    -0.267 OA
BRANCH  20  24
ATOM     24  O   UNL d   1      33.945 -15.473  10.336  0.00  0.00    -0.304 OA
BRANCH  24  25
ATOM     25  C   UNL d   1      34.935 -14.411  10.356  0.00  0.00     0.176 C 
ATOM     26  C   UNL d   1      34.373 -13.148  11.005  0.00  0.00     0.034 C 
ENDBRANCH  24  25
ENDBRANCH  20  24
ENDBRANCH   1  14
BRANCH  10  27
ATOM     27  C   UNL d   1      26.992 -14.122   0.322  0.00  0.00     0.109 C 
BRANCH  27  28
ATOM     28  S   UNL d   1      28.313 -15.363   0.066  0.00  0.00    -0.162 SA
BRANCH  28  29
ATOM     29  C   UNL d   1      27.553 -16.695  -0.919  0.00  0.00     0.112 C 
BRANCH  29  30
ATOM     30  C   UNL d   1      26.043 -16.966  -0.792  0.00  0.00    -0.043 A 
ATOM     31  C   UNL d   1      25.655 -18.012   0.084  0.00  0.00     0.008 A 
ATOM     32  C   UNL d   1      24.308 -18.365   0.273  0.00  0.00     0.001 A 
ATOM     33  C   UNL d   1      23.309 -17.689  -0.410  0.00  0.00     0.001 A 
ATOM     34  C   UNL d   1      23.656 -16.657  -1.269  0.00  0.00     0.007 A 
ATOM     35  C   UNL d   1      25.000 -16.289  -1.469  0.00  0.00    -0.055 A 
ATOM     36  C   UNL d   1      25.223 -15.167  -2.434  0.00  0.00     0.049 C 
ENDBRANCH  29  30
ENDBRANCH  28  29
ENDBRANCH  27  28
ENDBRANCH  10  27
TORSDOF 7
ENDMDL
