MODEL 1
REMARK VINA RESULT:    -8.129      0.000      0.000
REMARK INTER + INTRA:         -10.430
REMARK INTER:                  -9.024
REMARK INTRA:                  -1.406
REMARK CONF_INDEPENDENT:        0.895
REMARK UNBOUND:                -1.406
REMARK  3 active torsions:
REMARK  status: ('A' for Active; 'I' for Inactive)
REMARK       I    between atoms: C_2  and  N_3 
REMARK    1  A    between atoms: C_2  and  C_16 
REMARK    2  A    between atoms: N_3  and  N_4 
REMARK       I    between atoms: N_4  and  C_5 
REMARK    3  A    between atoms: C_5  and  C_7 
ROOT
ATOM      1  N   UNL d   1      22.991 -18.187  -0.880  0.00  0.00    -0.265 N 
ATOM      2  C   UNL d   1      24.297 -17.931  -0.480  0.00  0.00     0.266 C 
ATOM      3  O   UNL d   1      24.700 -18.198   0.653  0.00  0.00    -0.269 OA
ATOM      4  H   UNL d   1      22.672 -17.990  -1.832  0.00  0.00     0.190 HD
ENDROOT
BRANCH   1   5
ATOM      5  N   UNL d   1      22.052 -18.777   0.008  0.00  0.00    -0.262 N 
ATOM      6  C   UNL d   1      20.896 -19.353  -0.508  0.00  0.00     0.286 C 
ATOM      7  O   UNL d   1      20.656 -19.325  -1.723  0.00  0.00    -0.264 OA
ATOM      8  H   UNL d   1      22.377 -18.954   0.955  0.00  0.00     0.190 HD
BRANCH   6   9
ATOM      9  C   UNL d   1      19.998 -19.979   0.451  0.00  0.00     0.102 A 
ATOM     10  C   UNL d   1      18.723 -20.495   0.242  0.00  0.00     0.036 A 
ATOM     11  C   UNL d   1      18.181 -20.897   1.489  0.00  0.00     0.019 A 
ATOM     12  C   UNL d   1      19.123 -20.601   2.446  0.00  0.00     0.088 A 
ATOM     13  N   UNL d   1      20.218 -20.064   1.814  0.00  0.00    -0.361 N 
ATOM     14  H   UNL d   1      21.030 -19.699   2.292  0.00  0.00     0.165 HD
ENDBRANCH   6   9
ENDBRANCH   1   5
BRANCH   2  15
ATOM     15  C   UNL d   1      25.205 -17.253  -1.549  0.00  0.00     0.226 C 
ATOM     16  C   UNL d   1      25.030 -15.722  -1.634  0.00  0.00     0.083 C 
ATOM     17  C   UNL d   1      26.143 -15.325  -0.736  0.00  0.00    -0.022 A 
ATOM     18  C   UNL d   1      26.407 -14.124  -0.106  0.00  0.00     0.010 A 
ATOM     19  C   UNL d   1      26.987 -16.412  -0.564  0.00  0.00     0.076 A 
ATOM     20  C   UNL d   1      27.494 -14.072   0.774  0.00  0.00     0.001 A 
ATOM     21  C   UNL d   1      28.307 -15.201   0.984  0.00  0.00     0.003 A 
ATOM     22  C   UNL d   1      28.067 -16.384   0.288  0.00  0.00     0.037 A 
ATOM     23  O   UNL d   1      26.596 -17.527  -1.262  0.00  0.00    -0.336 OA
ENDBRANCH   2  15
TORSDOF 3
ENDMDL
MODEL 2
REMARK VINA RESULT:    -7.184      1.825      2.914
REMARK INTER + INTRA:         -10.241
REMARK INTER:                  -8.079
REMARK INTRA:                  -2.161
REMARK CONF_INDEPENDENT:        0.895
REMARK UNBOUND:                -2.161
REMARK  3 active torsions:
REMARK  status: ('A' for Active; 'I' for Inactive)
REMARK       I    between atoms: C_2  and  N_3 
REMARK    1  A    between atoms: C_2  and  C_16 
REMARK    2  A    between atoms: N_3  and  N_4 
REMARK       I    between atoms: N_4  and  C_5 
REMARK    3  A    between atoms: C_5  and  C_7 
ROOT
ATOM      1  N   UNL d   1      24.164 -17.251  -0.212  0.00  0.00    -0.265 N 
ATOM      2  C   UNL d   1      25.503 -17.624  -0.231  0.00  0.00     0.266 C 
ATOM      3  O   UNL d   1      25.857 -18.801  -0.153  0.00  0.00    -0.269 OA
ATOM      4  H   UNL d   1      23.878 -16.273  -0.308  0.00  0.00     0.190 HD
ENDROOT
BRANCH   1   5
ATOM      5  N   UNL d   1      23.132 -18.220  -0.101  0.00  0.00    -0.262 N 
ATOM      6  C   UNL d   1      21.839 -17.886  -0.491  0.00  0.00     0.286 C 
ATOM      7  O   UNL d   1      21.569 -16.746  -0.895  0.00  0.00    -0.264 OA
ATOM      8  H   UNL d   1      23.430 -19.182   0.040  0.00  0.00     0.190 HD
BRANCH   6   9
ATOM      9  C   UNL d   1      20.838 -18.938  -0.395  0.00  0.00     0.102 A 
ATOM     10  C   UNL d   1      19.540 -18.953  -0.895  0.00  0.00     0.036 A 
ATOM     11  C   UNL d   1      18.896 -20.138  -0.458  0.00  0.00     0.019 A 
ATOM     12  C   UNL d   1      19.800 -20.820   0.321  0.00  0.00     0.088 A 
ATOM     13  N   UNL d   1      20.971 -20.101   0.341  0.00  0.00    -0.361 N 
ATOM     14  H   UNL d   1      21.780 -20.346   0.895  0.00  0.00     0.165 HD
ENDBRANCH   6   9
ENDBRANCH   1   5
BRANCH   2  15
ATOM     15  C   UNL d   1      26.524 -16.451  -0.323  0.00  0.00     0.226 C 
ATOM     16  C   UNL d   1      27.485 -16.556  -1.526  0.00  0.00     0.083 C 
ATOM     17  C   UNL d   1      26.734 -15.704  -2.481  0.00  0.00    -0.022 A 
ATOM     18  C   UNL d   1      26.840 -15.580  -3.853  0.00  0.00     0.010 A 
ATOM     19  C   UNL d   1      25.797 -14.964  -1.776  0.00  0.00     0.076 A 
ATOM     20  C   UNL d   1      25.916 -14.759  -4.509  0.00  0.00     0.001 A 
ATOM     21  C   UNL d   1      24.932 -14.060  -3.786  0.00  0.00     0.003 A 
ATOM     22  C   UNL d   1      24.883 -14.142  -2.397  0.00  0.00     0.037 A 
ATOM     23  O   UNL d   1      25.822 -15.190  -0.423  0.00  0.00    -0.336 OA
ENDBRANCH   2  15
TORSDOF 3
ENDMDL
MODEL 3
REMARK VINA RESULT:    -7.020      1.319      1.515
REMARK INTER + INTRA:          -9.293
REMARK INTER:                  -7.915
REMARK INTRA:                  -1.378
REMARK CONF_INDEPENDENT:        0.895
REMARK UNBOUND:                -1.378
REMARK  3 active torsions:
REMARK  status: ('A' for Active; 'I' for Inactive)
REMARK       I    between atoms: C_2  and  N_3 
REMARK    1  A    between atoms: C_2  and  C_16 
REMARK    2  A    between atoms: N_3  and  N_4 
REMARK       I    between atoms: N_4  and  C_5 
REMARK    3  A    between atoms: C_5  and  C_7 
ROOT
ATOM      1  N   UNL d   1      24.161 -17.574  -0.654  0.00  0.00    -0.265 N 
ATOM      2  C   UNL d   1      24.222 -16.404  -1.400  0.00  0.00     0.266 C 
ATOM      3  O   UNL d   1      23.220 -15.728  -1.643  0.00  0.00    -0.269 OA
ATOM      4  H   UNL d   1      25.002 -18.114  -0.431  0.00  0.00     0.190 HD
ENDROOT
BRANCH   1   5
ATOM      5  N   UNL d   1      22.930 -18.050  -0.130  0.00  0.00    -0.262 N 
ATOM      6  C   UNL d   1      22.163 -18.931  -0.885  0.00  0.00     0.286 C 
ATOM      7  O   UNL d   1      22.519 -19.276  -2.020  0.00  0.00    -0.264 OA
ATOM      8  H   UNL d   1      22.778 -17.906   0.866  0.00  0.00     0.190 HD
BRANCH   6   9
ATOM      9  C   UNL d   1      20.936 -19.416  -0.271  0.00  0.00     0.102 A 
ATOM     10  C   UNL d   1      19.714 -19.699  -0.873  0.00  0.00     0.036 A 
ATOM     11  C   UNL d   1      18.773 -20.031   0.134  0.00  0.00     0.019 A 
ATOM     12  C   UNL d   1      19.426 -19.925   1.339  0.00  0.00     0.088 A 
ATOM     13  N   UNL d   1      20.729 -19.570   1.087  0.00  0.00    -0.361 N 
ATOM     14  H   UNL d   1      21.411 -19.361   1.804  0.00  0.00     0.165 HD
ENDBRANCH   6   9
ENDBRANCH   1   5
BRANCH   2  15
ATOM     15  C   UNL d   1      25.634 -16.023  -1.937  0.00  0.00     0.226 C 
ATOM     16  C   UNL d   1      25.914 -14.506  -1.933  0.00  0.00     0.083 C 
ATOM     17  C   UNL d   1      26.612 -14.415  -0.627  0.00  0.00    -0.022 A 
ATOM     18  C   UNL d   1      26.890 -13.322   0.171  0.00  0.00     0.010 A 
ATOM     19  C   UNL d   1      26.994 -15.690  -0.237  0.00  0.00     0.076 A 
ATOM     20  C   UNL d   1      27.483 -13.557   1.417  0.00  0.00     0.001 A 
ATOM     21  C   UNL d   1      27.812 -14.862   1.825  0.00  0.00     0.003 A 
ATOM     22  C   UNL d   1      27.587 -15.946   0.979  0.00  0.00     0.037 A 
ATOM     23  O   UNL d   1      26.656 -16.666  -1.140  0.00  0.00    -0.336 OA
ENDBRANCH   2  15
TORSDOF 3
ENDMDL
MODEL 4
REMARK VINA RESULT:    -6.606      5.032      8.464
REMARK INTER + INTRA:          -9.005
REMARK INTER:                  -7.501
REMARK INTRA:                  -1.504
REMARK CONF_INDEPENDENT:        0.895
REMARK UNBOUND:                -1.504
REMARK  3 active torsions:
REMARK  status: ('A' for Active; 'I' for Inactive)
REMARK       I    between atoms: C_2  and  N_3 
REMARK    1  A    between atoms: C_2  and  C_16 
REMARK    2  A    between atoms: N_3  and  N_4 
REMARK       I    between atoms: N_4  and  C_5 
REMARK    3  A    between atoms: C_5  and  C_7 
ROOT
ATOM      1  N   UNL d   1      28.155 -14.824   2.560  0.00  0.00    -0.265 N 
ATOM      2  C   UNL d   1      27.405 -14.514   1.431  0.00  0.00     0.266 C 
ATOM      3  O   UNL d   1      26.537 -13.640   1.439  0.00  0.00    -0.269 OA
ATOM      4  H   UNL d   1      28.895 -15.530   2.536  0.00  0.00     0.190 HD
ENDROOT
BRANCH   1   5
ATOM      5  N   UNL d   1      27.952 -14.139   3.788  0.00  0.00    -0.262 N 
ATOM      6  C   UNL d   1      28.816 -14.378   4.851  0.00  0.00     0.286 C 
ATOM      7  O   UNL d   1      29.733 -15.206   4.755  0.00  0.00    -0.264 OA
ATOM      8  H   UNL d   1      27.327 -13.338   3.759  0.00  0.00     0.190 HD
BRANCH   6   9
ATOM      9  C   UNL d   1      28.580 -13.611   6.065  0.00  0.00     0.102 A 
ATOM     10  C   UNL d   1      28.114 -12.307   6.195  0.00  0.00     0.036 A 
ATOM     11  C   UNL d   1      28.155 -11.940   7.564  0.00  0.00     0.019 A 
ATOM     12  C   UNL d   1      28.667 -13.016   8.249  0.00  0.00     0.088 A 
ATOM     13  N   UNL d   1      28.905 -14.022   7.345  0.00  0.00    -0.361 N 
ATOM     14  H   UNL d   1      29.344 -14.903   7.576  0.00  0.00     0.165 HD
ENDBRANCH   6   9
ENDBRANCH   1   5
BRANCH   2  15
ATOM     15  C   UNL d   1      27.715 -15.369   0.166  0.00  0.00     0.226 C 
ATOM     16  C   UNL d   1      27.681 -16.891   0.418  0.00  0.00     0.083 C 
ATOM     17  C   UNL d   1      26.282 -17.150  -0.001  0.00  0.00    -0.022 A 
ATOM     18  C   UNL d   1      25.459 -18.236   0.230  0.00  0.00     0.010 A 
ATOM     19  C   UNL d   1      25.824 -16.061  -0.727  0.00  0.00     0.076 A 
ATOM     20  C   UNL d   1      24.133 -18.158  -0.211  0.00  0.00     0.001 A 
ATOM     21  C   UNL d   1      23.666 -17.020  -0.894  0.00  0.00     0.003 A 
ATOM     22  C   UNL d   1      24.527 -15.963  -1.179  0.00  0.00     0.037 A 
ATOM     23  O   UNL d   1      26.760 -15.070  -0.879  0.00  0.00    -0.336 OA
ENDBRANCH   2  15
TORSDOF 3
ENDMDL
MODEL 5
REMARK VINA RESULT:    -6.246      3.429      8.040
REMARK INTER + INTRA:          -8.569
REMARK INTER:                  -7.140
REMARK INTRA:                  -1.429
REMARK CONF_INDEPENDENT:        0.895
REMARK UNBOUND:                -1.429
REMARK  3 active torsions:
REMARK  status: ('A' for Active; 'I' for Inactive)
REMARK       I    between atoms: C_2  and  N_3 
REMARK    1  A    between atoms: C_2  and  C_16 
REMARK    2  A    between atoms: N_3  and  N_4 
REMARK       I    between atoms: N_4  and  C_5 
REMARK    3  A    between atoms: C_5  and  C_7 
ROOT
ATOM      1  N   UNL d   1      24.897 -16.415  -2.269  0.00  0.00    -0.265 N 
ATOM      2  C   UNL d   1      23.941 -16.816  -1.345  0.00  0.00     0.266 C 
ATOM      3  O   UNL d   1      23.154 -16.020  -0.828  0.00  0.00    -0.269 OA
ATOM      4  H   UNL d   1      25.527 -17.087  -2.717  0.00  0.00     0.190 HD
ENDROOT
BRANCH   1   5
ATOM      5  N   UNL d   1      25.013 -15.056  -2.667  0.00  0.00    -0.262 N 
ATOM      6  C   UNL d   1      25.677 -14.746  -3.848  0.00  0.00     0.286 C 
ATOM      7  O   UNL d   1      26.202 -15.632  -4.537  0.00  0.00    -0.264 OA
ATOM      8  H   UNL d   1      24.407 -14.394  -2.189  0.00  0.00     0.190 HD
BRANCH   6   9
ATOM      9  C   UNL d   1      25.721 -13.340  -4.220  0.00  0.00     0.102 A 
ATOM     10  C   UNL d   1      26.224 -12.761  -5.381  0.00  0.00     0.036 A 
ATOM     11  C   UNL d   1      26.160 -11.350  -5.253  0.00  0.00     0.019 A 
ATOM     12  C   UNL d   1      25.640 -11.086  -4.009  0.00  0.00     0.088 A 
ATOM     13  N   UNL d   1      25.364 -12.285  -3.400  0.00  0.00    -0.361 N 
ATOM     14  H   UNL d   1      25.033 -12.379  -2.449  0.00  0.00     0.165 HD
ENDBRANCH   6   9
ENDBRANCH   1   5
BRANCH   2  15
ATOM     15  C   UNL d   1      23.953 -18.331  -0.981  0.00  0.00     0.226 C 
ATOM     16  C   UNL d   1      23.543 -18.625   0.476  0.00  0.00     0.083 C 
ATOM     17  C   UNL d   1      22.103 -18.903   0.247  0.00  0.00    -0.022 A 
ATOM     18  C   UNL d   1      21.043 -18.951   1.132  0.00  0.00     0.010 A 
ATOM     19  C   UNL d   1      21.903 -19.127  -1.107  0.00  0.00     0.076 A 
ATOM     20  C   UNL d   1      19.760 -19.140   0.605  0.00  0.00     0.001 A 
ATOM     21  C   UNL d   1      19.565 -19.307  -0.778  0.00  0.00     0.003 A 
ATOM     22  C   UNL d   1      20.653 -19.324  -1.648  0.00  0.00     0.037 A 
ATOM     23  O   UNL d   1      23.053 -19.056  -1.852  0.00  0.00    -0.336 OA
ENDBRANCH   2  15
TORSDOF 3
ENDMDL
MODEL 6
REMARK VINA RESULT:    -6.087      2.787      3.797
REMARK INTER + INTRA:          -8.479
REMARK INTER:                  -6.982
REMARK INTRA:                  -1.498
REMARK CONF_INDEPENDENT:        0.895
REMARK UNBOUND:                -1.498
REMARK  3 active torsions:
REMARK  status: ('A' for Active; 'I' for Inactive)
REMARK       I    between atoms: C_2  and  N_3 
REMARK    1  A    between atoms: C_2  and  C_16 
REMARK    2  A    between atoms: N_3  and  N_4 
REMARK       I    between atoms: N_4  and  C_5 
REMARK    3  A    between atoms: C_5  and  C_7 
ROOT
ATOM      1  N   UNL d   1      24.552 -16.936  -1.116  0.00  0.00    -0.265 N 
ATOM      2  C   UNL d   1      24.824 -15.720  -1.731  0.00  0.00     0.266 C 
ATOM      3  O   UNL d   1      23.961 -15.083  -2.336  0.00  0.00    -0.269 OA
ATOM      4  H   UNL d   1      25.267 -17.444  -0.589  0.00  0.00     0.190 HD
ENDROOT
BRANCH   1   5
ATOM      5  N   UNL d   1      23.251 -17.507  -1.157  0.00  0.00    -0.262 N 
ATOM      6  C   UNL d   1      22.984 -18.647  -0.408  0.00  0.00     0.286 C 
ATOM      7  O   UNL d   1      23.871 -19.193   0.262  0.00  0.00    -0.264 OA
ATOM      8  H   UNL d   1      22.516 -16.924  -1.550  0.00  0.00     0.190 HD
BRANCH   6   9
ATOM      9  C   UNL d   1      21.621 -19.154  -0.459  0.00  0.00     0.102 A 
ATOM     10  C   UNL d   1      20.655 -18.957  -1.441  0.00  0.00     0.036 A 
ATOM     11  C   UNL d   1      19.438 -19.543  -1.010  0.00  0.00     0.019 A 
ATOM     12  C   UNL d   1      19.671 -20.071   0.238  0.00  0.00     0.088 A 
ATOM     13  N   UNL d   1      20.988 -19.847   0.556  0.00  0.00    -0.361 N 
ATOM     14  H   UNL d   1      21.406 -20.077   1.447  0.00  0.00     0.165 HD
ENDBRANCH   6   9
ENDBRANCH   1   5
BRANCH   2  15
ATOM     15  C   UNL d   1      26.301 -15.234  -1.631  0.00  0.00     0.226 C 
ATOM     16  C   UNL d   1      27.259 -15.946  -2.609  0.00  0.00     0.083 C 
ATOM     17  C   UNL d   1      27.223 -14.952  -3.711  0.00  0.00    -0.022 A 
ATOM     18  C   UNL d   1      27.606 -15.061  -5.034  0.00  0.00     0.010 A 
ATOM     19  C   UNL d   1      26.695 -13.766  -3.225  0.00  0.00     0.076 A 
ATOM     20  C   UNL d   1      27.360 -13.972  -5.878  0.00  0.00     0.001 A 
ATOM     21  C   UNL d   1      26.768 -12.795  -5.383  0.00  0.00     0.003 A 
ATOM     22  C   UNL d   1      26.451 -12.678  -4.032  0.00  0.00     0.037 A 
ATOM     23  O   UNL d   1      26.373 -13.813  -1.892  0.00  0.00    -0.336 OA
ENDBRANCH   2  15
TORSDOF 3
ENDMDL
MODEL 7
REMARK VINA RESULT:    -5.992      1.784      2.772
REMARK INTER + INTRA:          -9.119
REMARK INTER:                  -6.887
REMARK INTRA:                  -2.232
REMARK CONF_INDEPENDENT:        0.895
REMARK UNBOUND:                -2.232
REMARK  3 active torsions:
REMARK  status: ('A' for Active; 'I' for Inactive)
REMARK       I    between atoms: C_2  and  N_3 
REMARK    1  A    between atoms: C_2  and  C_16 
REMARK    2  A    between atoms: N_3  and  N_4 
REMARK       I    between atoms: N_4  and  C_5 
REMARK    3  A    between atoms: C_5  and  C_7 
ROOT
ATOM      1  N   UNL d   1      24.961 -16.416  -1.448  0.00  0.00    -0.265 N 
ATOM      2  C   UNL d   1      25.159 -15.311  -2.267  0.00  0.00     0.266 C 
ATOM      3  O   UNL d   1      24.250 -14.826  -2.944  0.00  0.00    -0.269 OA
ATOM      4  H   UNL d   1      25.713 -16.794  -0.866  0.00  0.00     0.190 HD
ENDROOT
BRANCH   1   5
ATOM      5  N   UNL d   1      23.690 -17.042  -1.350  0.00  0.00    -0.262 N 
ATOM      6  C   UNL d   1      23.459 -17.958  -0.330  0.00  0.00     0.286 C 
ATOM      7  O   UNL d   1      24.354 -18.263   0.470  0.00  0.00    -0.264 OA
ATOM      8  H   UNL d   1      22.938 -16.621  -1.890  0.00  0.00     0.190 HD
BRANCH   6   9
ATOM      9  C   UNL d   1      22.122 -18.529  -0.259  0.00  0.00     0.102 A 
ATOM     10  C   UNL d   1      21.175 -18.657  -1.271  0.00  0.00     0.036 A 
ATOM     11  C   UNL d   1      19.975 -19.166  -0.713  0.00  0.00     0.019 A 
ATOM     12  C   UNL d   1      20.197 -19.321   0.635  0.00  0.00     0.088 A 
ATOM     13  N   UNL d   1      21.494 -18.951   0.898  0.00  0.00    -0.361 N 
ATOM     14  H   UNL d   1      21.897 -18.908   1.824  0.00  0.00     0.165 HD
ENDBRANCH   6   9
ENDBRANCH   1   5
BRANCH   2  15
ATOM     15  C   UNL d   1      26.612 -14.750  -2.298  0.00  0.00     0.226 C 
ATOM     16  C   UNL d   1      26.737 -13.315  -1.748  0.00  0.00     0.083 C 
ATOM     17  C   UNL d   1      27.115 -13.648  -0.352  0.00  0.00    -0.022 A 
ATOM     18  C   UNL d   1      27.103 -12.875   0.793  0.00  0.00     0.010 A 
ATOM     19  C   UNL d   1      27.521 -14.973  -0.304  0.00  0.00     0.076 A 
ATOM     20  C   UNL d   1      27.424 -13.497   2.006  0.00  0.00     0.001 A 
ATOM     21  C   UNL d   1      27.777 -14.858   2.046  0.00  0.00     0.003 A 
ATOM     22  C   UNL d   1      27.851 -15.605   0.873  0.00  0.00     0.037 A 
ATOM     23  O   UNL d   1      27.487 -15.602  -1.523  0.00  0.00    -0.336 OA
ENDBRANCH   2  15
TORSDOF 3
ENDMDL
MODEL 8
REMARK VINA RESULT:    -5.734      5.437      8.888
REMARK INTER + INTRA:          -8.700
REMARK INTER:                  -6.629
REMARK INTRA:                  -2.072
REMARK CONF_INDEPENDENT:        0.895
REMARK UNBOUND:                -2.072
REMARK  3 active torsions:
REMARK  status: ('A' for Active; 'I' for Inactive)
REMARK       I    between atoms: C_2  and  N_3 
REMARK    1  A    between atoms: C_2  and  C_16 
REMARK    2  A    between atoms: N_3  and  N_4 
REMARK       I    between atoms: N_4  and  C_5 
REMARK    3  A    between atoms: C_5  and  C_7 
ROOT
ATOM      1  N   UNL d   1      28.537 -15.725  -4.360  0.00  0.00    -0.265 N 
ATOM      2  C   UNL d   1      27.308 -15.127  -4.611  0.00  0.00     0.266 C 
ATOM      3  O   UNL d   1      26.755 -15.200  -5.710  0.00  0.00    -0.269 OA
ATOM      4  H   UNL d   1      28.974 -15.686  -3.436  0.00  0.00     0.190 HD
ENDROOT
BRANCH   1   5
ATOM      5  N   UNL d   1      29.219 -16.456  -5.369  0.00  0.00    -0.262 N 
ATOM      6  C   UNL d   1      30.030 -17.526  -5.005  0.00  0.00     0.286 C 
ATOM      7  O   UNL d   1      30.196 -17.824  -3.814  0.00  0.00    -0.264 OA
ATOM      8  H   UNL d   1      28.902 -16.309  -6.324  0.00  0.00     0.190 HD
BRANCH   6   9
ATOM      9  C   UNL d   1      30.664 -18.260  -6.090  0.00  0.00     0.102 A 
ATOM     10  C   UNL d   1      31.156 -17.776  -7.298  0.00  0.00     0.036 A 
ATOM     11  C   UNL d   1      31.578 -18.872  -8.092  0.00  0.00     0.019 A 
ATOM     12  C   UNL d   1      31.319 -20.011  -7.367  0.00  0.00     0.088 A 
ATOM     13  N   UNL d   1      30.785 -19.635  -6.159  0.00  0.00    -0.361 N 
ATOM     14  H   UNL d   1      30.443 -20.282  -5.461  0.00  0.00     0.165 HD
ENDBRANCH   6   9
ENDBRANCH   1   5
BRANCH   2  15
ATOM     15  C   UNL d   1      26.693 -14.332  -3.420  0.00  0.00     0.226 C 
ATOM     16  C   UNL d   1      25.201 -14.635  -3.173  0.00  0.00     0.083 C 
ATOM     17  C   UNL d   1      25.359 -15.676  -2.127  0.00  0.00    -0.022 A 
ATOM     18  C   UNL d   1      24.464 -16.611  -1.645  0.00  0.00     0.010 A 
ATOM     19  C   UNL d   1      26.653 -15.616  -1.631  0.00  0.00     0.076 A 
ATOM     20  C   UNL d   1      24.932 -17.545  -0.713  0.00  0.00     0.001 A 
ATOM     21  C   UNL d   1      26.264 -17.508  -0.262  0.00  0.00     0.003 A 
ATOM     22  C   UNL d   1      27.134 -16.516  -0.707  0.00  0.00     0.037 A 
ATOM     23  O   UNL d   1      27.415 -14.629  -2.202  0.00  0.00    -0.336 OA
ENDBRANCH   2  15
TORSDOF 3
ENDMDL
MODEL 9
REMARK VINA RESULT:    -5.451      4.266      5.964
REMARK INTER + INTRA:          -8.445
REMARK INTER:                  -6.346
REMARK INTRA:                  -2.099
REMARK CONF_INDEPENDENT:        0.895
REMARK UNBOUND:                -2.099
REMARK  3 active torsions:
REMARK  status: ('A' for Active; 'I' for Inactive)
REMARK       I    between atoms: C_2  and  N_3 
REMARK    1  A    between atoms: C_2  and  C_16 
REMARK    2  A    between atoms: N_3  and  N_4 
REMARK       I    between atoms: N_4  and  C_5 
REMARK    3  A    between atoms: C_5  and  C_7 
ROOT
ATOM      1  N   UNL d   1      26.436 -14.957  -3.212  0.00  0.00    -0.265 N 
ATOM      2  C   UNL d   1      26.756 -14.889  -4.563  0.00  0.00     0.266 C 
ATOM      3  O   UNL d   1      26.252 -15.645  -5.395  0.00  0.00    -0.269 OA
ATOM      4  H   UNL d   1      26.836 -14.305  -2.532  0.00  0.00     0.190 HD
ENDROOT
BRANCH   1   5
ATOM      5  N   UNL d   1      25.503 -15.910  -2.724  0.00  0.00    -0.262 N 
ATOM      6  C   UNL d   1      25.195 -15.929  -1.368  0.00  0.00     0.286 C 
ATOM      7  O   UNL d   1      25.750 -15.155  -0.576  0.00  0.00    -0.264 OA
ATOM      8  H   UNL d   1      24.933 -16.381  -3.422  0.00  0.00     0.190 HD
BRANCH   6   9
ATOM      9  C   UNL d   1      24.199 -16.901  -0.941  0.00  0.00     0.102 A 
ATOM     10  C   UNL d   1      24.373 -18.243  -0.619  0.00  0.00     0.036 A 
ATOM     11  C   UNL d   1      23.103 -18.823  -0.373  0.00  0.00     0.019 A 
ATOM     12  C   UNL d   1      22.169 -17.834  -0.569  0.00  0.00     0.088 A 
ATOM     13  N   UNL d   1      22.835 -16.678  -0.895  0.00  0.00    -0.361 N 
ATOM     14  H   UNL d   1      22.381 -15.813  -1.155  0.00  0.00     0.165 HD
ENDBRANCH   6   9
ENDBRANCH   1   5
BRANCH   2  15
ATOM     15  C   UNL d   1      27.818 -13.816  -4.947  0.00  0.00     0.226 C 
ATOM     16  C   UNL d   1      27.408 -12.934  -6.145  0.00  0.00     0.083 C 
ATOM     17  C   UNL d   1      26.831 -11.795  -5.391  0.00  0.00    -0.022 A 
ATOM     18  C   UNL d   1      26.003 -10.768  -5.804  0.00  0.00     0.010 A 
ATOM     19  C   UNL d   1      27.246 -11.877  -4.070  0.00  0.00     0.076 A 
ATOM     20  C   UNL d   1      25.530  -9.878  -4.833  0.00  0.00     0.001 A 
ATOM     21  C   UNL d   1      25.913 -10.010  -3.486  0.00  0.00     0.003 A 
ATOM     22  C   UNL d   1      26.803 -11.009  -3.098  0.00  0.00     0.037 A 
ATOM     23  O   UNL d   1      28.071 -12.944  -3.820  0.00  0.00    -0.336 OA
ENDBRANCH   2  15
TORSDOF 3
ENDMDL
