MODEL 1
REMARK VINA RESULT:    -9.953      0.000      0.000
REMARK INTER + INTRA:         -13.517
REMARK INTER:                 -12.041
REMARK INTRA:                  -1.476
REMARK CONF_INDEPENDENT:        2.088
REMARK UNBOUND:                -1.476
REMARK  7 active torsions:
REMARK  status: ('A' for Active; 'I' for Inactive)
REMARK    1  A    between atoms: C_3  and  C_25 
REMARK    2  A    between atoms: C_4  and  C_5 
REMARK    3  A    between atoms: N_7  and  C_8 
REMARK    4  A    between atoms: C_8  and  C_9 
REMARK    5  A    between atoms: C_13  and  C_14 
REMARK       I    between atoms: C_25  and  N_27 
REMARK    6  A    between atoms: N_27  and  C_28 
REMARK    7  A    between atoms: C_33  and  N_34 
ROOT
ATOM      1  N   UNL d   1      23.991 -15.735  -2.020  0.00  0.00    -0.096 N 
ATOM      2  C   UNL d   1      24.100 -16.738  -1.264  0.00  0.00     0.025 C 
ATOM      3  C   UNL d   1      24.231 -17.947  -0.352  0.00  0.00     0.099 C 
ATOM      4  C   UNL d   1      25.449 -18.238   0.150  0.00  0.00     0.041 C 
ENDROOT
BRANCH   3   5
ATOM      5  C   UNL d   1      23.006 -18.787  -0.104  0.00  0.00     0.265 C 
ATOM      6  O   UNL d   1      22.746 -19.700  -0.897  0.00  0.00    -0.267 OA
ATOM      7  N   UNL d   1      22.171 -18.453   0.963  0.00  0.00    -0.320 N 
ATOM      8  H   UNL d   1      22.234 -17.513   1.348  0.00  0.00     0.169 HD
BRANCH   7   9
ATOM      9  C   UNL d   1      20.920 -19.111   1.198  0.00  0.00     0.068 C 
ATOM     10  C   UNL d   1      20.652 -19.623   2.475  0.00  0.00     0.032 C 
ATOM     11  C   UNL d   1      19.530 -20.422   2.719  0.00  0.00     0.002 C 
ATOM     12  C   UNL d   1      18.588 -20.630   1.718  0.00  0.00     0.003 C 
ATOM     13  C   UNL d   1      18.755 -20.017   0.478  0.00  0.00     0.038 C 
ATOM     14  C   UNL d   1      19.935 -19.290   0.202  0.00  0.00     0.129 C 
BRANCH  14  15
ATOM     15  N   UNL d   1      20.145 -18.849  -1.186  0.00  0.00    -0.113 N 
ATOM     16  O   UNL d   1      20.425 -17.662  -1.386  0.00  0.00    -0.532 OA
ATOM     17  O   UNL d   1      20.031 -19.700  -2.089  0.00  0.00    -0.532 OA
ENDBRANCH  14  15
ENDBRANCH   7   9
ENDBRANCH   3   5
BRANCH   4  18
ATOM     18  C   UNL d   1      26.620 -17.459  -0.092  0.00  0.00    -0.006 A 
ATOM     19  C   UNL d   1      27.834 -17.999  -0.416  0.00  0.00     0.104 A 
ATOM     20  N   UNL d   1      28.703 -16.972  -0.719  0.00  0.00    -0.351 N 
ATOM     21  C   UNL d   1      28.062 -15.756  -0.518  0.00  0.00     0.045 A 
ATOM     22  C   UNL d   1      28.489 -14.426  -0.673  0.00  0.00     0.030 A 
ATOM     23  C   UNL d   1      26.767 -16.047  -0.080  0.00  0.00     0.002 A 
ATOM     24  C   UNL d   1      27.570 -13.397  -0.410  0.00  0.00     0.002 A 
ATOM     25  C   UNL d   1      26.281 -13.671   0.020  0.00  0.00     0.001 A 
ATOM     26  C   UNL d   1      25.891 -14.985   0.230  0.00  0.00     0.014 A 
BRANCH  20  27
ATOM     27  C   UNL d   1      30.096 -17.113  -1.176  0.00  0.00     0.167 C 
BRANCH  27  28
ATOM     28  C   UNL d   1      30.238 -17.044  -2.683  0.00  0.00    -0.039 C 
ATOM     29  C   UNL d   1      29.674 -15.977  -3.403  0.00  0.00     0.009 C 
ATOM     30  C   UNL d   1      29.591 -16.020  -4.792  0.00  0.00     0.001 C 
ATOM     31  C   UNL d   1      30.032 -17.151  -5.473  0.00  0.00     0.016 C 
ATOM     32  C   UNL d   1      30.646 -18.207  -4.780  0.00  0.00     0.048 C 
ATOM     33  C   UNL d   1      30.804 -18.114  -3.389  0.00  0.00     0.025 C 
BRANCH  32  34
ATOM     34  C   UNL d   1      31.061 -19.449  -5.526  0.00  0.00     0.417 C 
ATOM     35  F   UNL d   1      31.980 -19.182  -6.496  0.00  0.00    -0.166 F 
ATOM     36  F   UNL d   1      31.629 -20.381  -4.715  0.00  0.00    -0.166 F 
ATOM     37  F   UNL d   1      30.028 -20.075  -6.157  0.00  0.00    -0.166 F 
ENDBRANCH  32  34
ENDBRANCH  27  28
ENDBRANCH  20  27
ENDBRANCH   4  18
TORSDOF 7
ENDMDL
MODEL 2
REMARK VINA RESULT:    -9.682      4.040      5.949
REMARK INTER + INTRA:         -13.238
REMARK INTER:                 -11.771
REMARK INTRA:                  -1.467
REMARK CONF_INDEPENDENT:        2.088
REMARK UNBOUND:                -1.467
REMARK  7 active torsions:
REMARK  status: ('A' for Active; 'I' for Inactive)
REMARK    1  A    between atoms: C_3  and  C_25 
REMARK    2  A    between atoms: C_4  and  C_5 
REMARK    3  A    between atoms: N_7  and  C_8 
REMARK    4  A    between atoms: C_8  and  C_9 
REMARK    5  A    between atoms: C_13  and  C_14 
REMARK       I    between atoms: C_25  and  N_27 
REMARK    6  A    between atoms: N_27  and  C_28 
REMARK    7  A    between atoms: C_33  and  N_34 
ROOT
ATOM      1  N   UNL d   1      23.515 -15.295  -2.020  0.00  0.00    -0.096 N 
ATOM      2  C   UNL d   1      23.778 -16.252  -1.242  0.00  0.00     0.025 C 
ATOM      3  C   UNL d   1      24.094 -17.406  -0.305  0.00  0.00     0.099 C 
ATOM      4  C   UNL d   1      25.331 -17.474   0.227  0.00  0.00     0.041 C 
ENDROOT
BRANCH   3   5
ATOM      5  C   UNL d   1      23.027 -18.442  -0.067  0.00  0.00     0.265 C 
ATOM      6  O   UNL d   1      23.025 -19.460  -0.770  0.00  0.00    -0.267 OA
ATOM      7  N   UNL d   1      22.038 -18.177   0.881  0.00  0.00    -0.320 N 
ATOM      8  H   UNL d   1      21.884 -17.210   1.159  0.00  0.00     0.169 HD
BRANCH   7   9
ATOM      9  C   UNL d   1      20.913 -19.041   1.083  0.00  0.00     0.068 C 
ATOM     10  C   UNL d   1      20.615 -19.474   2.382  0.00  0.00     0.032 C 
ATOM     11  C   UNL d   1      19.641 -20.450   2.620  0.00  0.00     0.002 C 
ATOM     12  C   UNL d   1      18.862 -20.931   1.574  0.00  0.00     0.003 C 
ATOM     13  C   UNL d   1      19.038 -20.415   0.291  0.00  0.00     0.038 C 
ATOM     14  C   UNL d   1      20.085 -19.501   0.035  0.00  0.00     0.129 C 
BRANCH  14  15
ATOM     15  N   UNL d   1      20.351 -19.159  -1.371  0.00  0.00    -0.113 N 
ATOM     16  O   UNL d   1      20.632 -17.987  -1.644  0.00  0.00    -0.532 OA
ATOM     17  O   UNL d   1      20.280 -20.073  -2.214  0.00  0.00    -0.532 OA
ENDBRANCH  14  15
ENDBRANCH   7   9
ENDBRANCH   3   5
BRANCH   4  18
ATOM     18  C   UNL d   1      26.355 -16.507  -0.005  0.00  0.00    -0.006 A 
ATOM     19  C   UNL d   1      26.147 -15.156   0.051  0.00  0.00     0.104 A 
ATOM     20  N   UNL d   1      27.363 -14.520  -0.080  0.00  0.00    -0.351 N 
ATOM     21  C   UNL d   1      28.355 -15.469  -0.295  0.00  0.00     0.045 A 
ATOM     22  C   UNL d   1      29.742 -15.357  -0.492  0.00  0.00     0.030 A 
ATOM     23  C   UNL d   1      27.729 -16.719  -0.295  0.00  0.00     0.002 A 
ATOM     24  C   UNL d   1      30.488 -16.537  -0.656  0.00  0.00     0.002 A 
ATOM     25  C   UNL d   1      29.880 -17.783  -0.654  0.00  0.00     0.001 A 
ATOM     26  C   UNL d   1      28.503 -17.876  -0.521  0.00  0.00     0.014 A 
BRANCH  20  27
ATOM     27  C   UNL d   1      27.600 -13.068  -0.015  0.00  0.00     0.167 C 
BRANCH  27  28
ATOM     28  C   UNL d   1      27.520 -12.514   1.392  0.00  0.00    -0.039 C 
ATOM     29  C   UNL d   1      27.563 -11.127   1.615  0.00  0.00     0.009 C 
ATOM     30  C   UNL d   1      27.727 -10.618   2.901  0.00  0.00     0.001 C 
ATOM     31  C   UNL d   1      27.892 -11.491   3.972  0.00  0.00     0.016 C 
ATOM     32  C   UNL d   1      27.799 -12.880   3.780  0.00  0.00     0.048 C 
ATOM     33  C   UNL d   1      27.546 -13.379   2.494  0.00  0.00     0.025 C 
BRANCH  32  34
ATOM     34  C   UNL d   1      28.043 -13.812   4.940  0.00  0.00     0.417 C 
ATOM     35  F   UNL d   1      27.033 -13.766   5.855  0.00  0.00    -0.166 F 
ATOM     36  F   UNL d   1      28.142 -15.112   4.554  0.00  0.00    -0.166 F 
ATOM     37  F   UNL d   1      29.182 -13.533   5.632  0.00  0.00    -0.166 F 
ENDBRANCH  32  34
ENDBRANCH  27  28
ENDBRANCH  20  27
ENDBRANCH   4  18
TORSDOF 7
ENDMDL
MODEL 3
REMARK VINA RESULT:    -9.255      2.815      4.277
REMARK INTER + INTRA:         -13.208
REMARK INTER:                 -11.344
REMARK INTRA:                  -1.865
REMARK CONF_INDEPENDENT:        2.088
REMARK UNBOUND:                -1.865
REMARK  7 active torsions:
REMARK  status: ('A' for Active; 'I' for Inactive)
REMARK    1  A    between atoms: C_3  and  C_25 
REMARK    2  A    between atoms: C_4  and  C_5 
REMARK    3  A    between atoms: N_7  and  C_8 
REMARK    4  A    between atoms: C_8  and  C_9 
REMARK    5  A    between atoms: C_13  and  C_14 
REMARK       I    between atoms: C_25  and  N_27 
REMARK    6  A    between atoms: N_27  and  C_28 
REMARK    7  A    between atoms: C_33  and  N_34 
ROOT
ATOM      1  N   UNL d   1      23.661 -15.443  -2.016  0.00  0.00    -0.096 N 
ATOM      2  C   UNL d   1      23.879 -16.379  -1.200  0.00  0.00     0.025 C 
ATOM      3  C   UNL d   1      24.141 -17.507  -0.216  0.00  0.00     0.099 C 
ATOM      4  C   UNL d   1      25.366 -17.595   0.341  0.00  0.00     0.041 C 
ENDROOT
BRANCH   3   5
ATOM      5  C   UNL d   1      23.037 -18.499   0.039  0.00  0.00     0.265 C 
ATOM      6  O   UNL d   1      23.008 -19.536  -0.634  0.00  0.00    -0.267 OA
ATOM      7  N   UNL d   1      22.048 -18.173   0.968  0.00  0.00    -0.320 N 
ATOM      8  H   UNL d   1      21.925 -17.195   1.217  0.00  0.00     0.169 HD
BRANCH   7   9
ATOM      9  C   UNL d   1      20.892 -18.993   1.182  0.00  0.00     0.068 C 
ATOM     10  C   UNL d   1      20.655 -19.509   2.464  0.00  0.00     0.032 C 
ATOM     11  C   UNL d   1      19.646 -20.451   2.695  0.00  0.00     0.002 C 
ATOM     12  C   UNL d   1      18.776 -20.810   1.672  0.00  0.00     0.003 C 
ATOM     13  C   UNL d   1      18.898 -20.207   0.421  0.00  0.00     0.038 C 
ATOM     14  C   UNL d   1      19.975 -19.330   0.162  0.00  0.00     0.129 C 
BRANCH  14  15
ATOM     15  N   UNL d   1      20.169 -18.894  -1.230  0.00  0.00    -0.113 N 
ATOM     16  O   UNL d   1      19.925 -19.700  -2.134  0.00  0.00    -0.532 OA
ATOM     17  O   UNL d   1      20.572 -17.731  -1.423  0.00  0.00    -0.532 OA
ENDBRANCH  14  15
ENDBRANCH   7   9
ENDBRANCH   3   5
BRANCH   4  18
ATOM     18  C   UNL d   1      26.425 -16.670   0.093  0.00  0.00    -0.006 A 
ATOM     19  C   UNL d   1      26.280 -15.313   0.182  0.00  0.00     0.104 A 
ATOM     20  N   UNL d   1      27.519 -14.729   0.022  0.00  0.00    -0.351 N 
ATOM     21  C   UNL d   1      28.459 -15.717  -0.243  0.00  0.00     0.045 A 
ATOM     22  C   UNL d   1      29.843 -15.663  -0.485  0.00  0.00     0.030 A 
ATOM     23  C   UNL d   1      27.777 -16.937  -0.247  0.00  0.00     0.002 A 
ATOM     24  C   UNL d   1      30.529 -16.871  -0.695  0.00  0.00     0.002 A 
ATOM     25  C   UNL d   1      29.866 -18.089  -0.696  0.00  0.00     0.001 A 
ATOM     26  C   UNL d   1      28.491 -18.123  -0.520  0.00  0.00     0.014 A 
BRANCH  20  27
ATOM     27  C   UNL d   1      27.823 -13.290   0.106  0.00  0.00     0.167 C 
BRANCH  27  28
ATOM     28  C   UNL d   1      27.482 -12.534  -1.162  0.00  0.00    -0.039 C 
ATOM     29  C   UNL d   1      27.386 -11.132  -1.150  0.00  0.00     0.009 C 
ATOM     30  C   UNL d   1      26.848 -10.447  -2.237  0.00  0.00     0.001 C 
ATOM     31  C   UNL d   1      26.361 -11.161  -3.328  0.00  0.00     0.016 C 
ATOM     32  C   UNL d   1      26.494 -12.558  -3.384  0.00  0.00     0.048 C 
ATOM     33  C   UNL d   1      27.118 -13.230  -2.322  0.00  0.00     0.025 C 
BRANCH  32  34
ATOM     34  C   UNL d   1      25.906 -13.318  -4.545  0.00  0.00     0.417 C 
ATOM     35  F   UNL d   1      26.198 -12.734  -5.741  0.00  0.00    -0.166 F 
ATOM     36  F   UNL d   1      26.372 -14.593  -4.624  0.00  0.00    -0.166 F 
ATOM     37  F   UNL d   1      24.548 -13.413  -4.500  0.00  0.00    -0.166 F 
ENDBRANCH  32  34
ENDBRANCH  27  28
ENDBRANCH  20  27
ENDBRANCH   4  18
TORSDOF 7
ENDMDL
MODEL 4
REMARK VINA RESULT:    -9.212      2.004      2.381
REMARK INTER + INTRA:         -13.343
REMARK INTER:                 -11.300
REMARK INTRA:                  -2.043
REMARK CONF_INDEPENDENT:        2.088
REMARK UNBOUND:                -2.043
REMARK  7 active torsions:
REMARK  status: ('A' for Active; 'I' for Inactive)
REMARK    1  A    between atoms: C_3  and  C_25 
REMARK    2  A    between atoms: C_4  and  C_5 
REMARK    3  A    between atoms: N_7  and  C_8 
REMARK    4  A    between atoms: C_8  and  C_9 
REMARK    5  A    between atoms: C_13  and  C_14 
REMARK       I    between atoms: C_25  and  N_27 
REMARK    6  A    between atoms: N_27  and  C_28 
REMARK    7  A    between atoms: C_33  and  N_34 
ROOT
ATOM      1  N   UNL d   1      24.078 -15.767  -2.023  0.00  0.00    -0.096 N 
ATOM      2  C   UNL d   1      24.229 -16.723  -1.215  0.00  0.00     0.025 C 
ATOM      3  C   UNL d   1      24.411 -17.877  -0.241  0.00  0.00     0.099 C 
ATOM      4  C   UNL d   1      25.641 -18.091   0.270  0.00  0.00     0.041 C 
ENDROOT
BRANCH   3   5
ATOM      5  C   UNL d   1      23.222 -18.751   0.055  0.00  0.00     0.265 C 
ATOM      6  O   UNL d   1      23.157 -19.862  -0.486  0.00  0.00    -0.267 OA
ATOM      7  N   UNL d   1      22.205 -18.244   0.863  0.00  0.00    -0.320 N 
ATOM      8  H   UNL d   1      22.140 -17.236   0.981  0.00  0.00     0.169 HD
BRANCH   7   9
ATOM      9  C   UNL d   1      20.979 -18.951   1.094  0.00  0.00     0.068 C 
ATOM     10  C   UNL d   1      20.655 -19.337   2.402  0.00  0.00     0.032 C 
ATOM     11  C   UNL d   1      19.565 -20.174   2.665  0.00  0.00     0.002 C 
ATOM     12  C   UNL d   1      18.707 -20.550   1.639  0.00  0.00     0.003 C 
ATOM     13  C   UNL d   1      18.923 -20.067   0.349  0.00  0.00     0.038 C 
ATOM     14  C   UNL d   1      20.076 -19.301   0.066  0.00  0.00     0.129 C 
BRANCH  14  15
ATOM     15  N   UNL d   1      20.355 -19.002  -1.347  0.00  0.00    -0.113 N 
ATOM     16  O   UNL d   1      20.281 -19.925  -2.166  0.00  0.00    -0.532 OA
ATOM     17  O   UNL d   1      20.653 -17.829  -1.644  0.00  0.00    -0.532 OA
ENDBRANCH  14  15
ENDBRANCH   7   9
ENDBRANCH   3   5
BRANCH   4  18
ATOM     18  C   UNL d   1      26.779 -17.278  -0.017  0.00  0.00    -0.006 A 
ATOM     19  C   UNL d   1      27.959 -17.773  -0.500  0.00  0.00     0.104 A 
ATOM     20  N   UNL d   1      28.789 -16.712  -0.797  0.00  0.00    -0.351 N 
ATOM     21  C   UNL d   1      28.163 -15.526  -0.435  0.00  0.00     0.045 A 
ATOM     22  C   UNL d   1      28.566 -14.182  -0.519  0.00  0.00     0.030 A 
ATOM     23  C   UNL d   1      26.918 -15.870   0.098  0.00  0.00     0.002 A 
ATOM     24  C   UNL d   1      27.670 -13.191  -0.084  0.00  0.00     0.002 A 
ATOM     25  C   UNL d   1      26.430 -13.518   0.442  0.00  0.00     0.001 A 
ATOM     26  C   UNL d   1      26.070 -14.850   0.579  0.00  0.00     0.014 A 
BRANCH  20  27
ATOM     27  C   UNL d   1      30.132 -16.796  -1.397  0.00  0.00     0.167 C 
BRANCH  27  28
ATOM     28  C   UNL d   1      30.148 -16.455  -2.872  0.00  0.00    -0.039 C 
ATOM     29  C   UNL d   1      31.366 -16.341  -3.564  0.00  0.00     0.009 C 
ATOM     30  C   UNL d   1      31.408 -15.803  -4.847  0.00  0.00     0.001 C 
ATOM     31  C   UNL d   1      30.238 -15.332  -5.435  0.00  0.00     0.016 C 
ATOM     32  C   UNL d   1      29.003 -15.483  -4.785  0.00  0.00     0.048 C 
ATOM     33  C   UNL d   1      28.960 -16.107  -3.529  0.00  0.00     0.025 C 
BRANCH  32  34
ATOM     34  C   UNL d   1      27.755 -14.911  -5.409  0.00  0.00     0.417 C 
ATOM     35  F   UNL d   1      27.779 -14.994  -6.770  0.00  0.00    -0.166 F 
ATOM     36  F   UNL d   1      26.628 -15.560  -5.012  0.00  0.00    -0.166 F 
ATOM     37  F   UNL d   1      27.556 -13.595  -5.121  0.00  0.00    -0.166 F 
ENDBRANCH  32  34
ENDBRANCH  27  28
ENDBRANCH  20  27
ENDBRANCH   4  18
TORSDOF 7
ENDMDL
MODEL 5
REMARK VINA RESULT:    -8.306      6.782     10.100
REMARK INTER + INTRA:         -12.818
REMARK INTER:                 -10.394
REMARK INTRA:                  -2.424
REMARK CONF_INDEPENDENT:        2.088
REMARK UNBOUND:                -2.424
REMARK  7 active torsions:
REMARK  status: ('A' for Active; 'I' for Inactive)
REMARK    1  A    between atoms: C_3  and  C_25 
REMARK    2  A    between atoms: C_4  and  C_5 
REMARK    3  A    between atoms: N_7  and  C_8 
REMARK    4  A    between atoms: C_8  and  C_9 
REMARK    5  A    between atoms: C_13  and  C_14 
REMARK       I    between atoms: C_25  and  N_27 
REMARK    6  A    between atoms: N_27  and  C_28 
REMARK    7  A    between atoms: C_33  and  N_34 
ROOT
ATOM      1  N   UNL d   1      27.824 -14.881   4.962  0.00  0.00    -0.096 N 
ATOM      2  C   UNL d   1      27.851 -13.697   4.528  0.00  0.00     0.025 C 
ATOM      3  C   UNL d   1      27.884 -12.271   4.004  0.00  0.00     0.099 C 
ATOM      4  C   UNL d   1      27.830 -12.080   2.670  0.00  0.00     0.041 C 
ENDROOT
BRANCH   3   5
ATOM      5  C   UNL d   1      28.032 -11.151   5.000  0.00  0.00     0.265 C 
ATOM      6  O   UNL d   1      27.654 -11.341   6.162  0.00  0.00    -0.267 OA
ATOM      7  N   UNL d   1      28.516  -9.920   4.555  0.00  0.00    -0.320 N 
ATOM      8  H   UNL d   1      28.472  -9.717   3.559  0.00  0.00     0.169 HD
BRANCH   7   9
ATOM      9  C   UNL d   1      28.569  -8.763   5.399  0.00  0.00     0.068 C 
ATOM     10  C   UNL d   1      29.315  -8.822   6.584  0.00  0.00     0.032 C 
ATOM     11  C   UNL d   1      29.265  -7.789   7.528  0.00  0.00     0.002 C 
ATOM     12  C   UNL d   1      28.559  -6.624   7.254  0.00  0.00     0.003 C 
ATOM     13  C   UNL d   1      27.923  -6.478   6.023  0.00  0.00     0.038 C 
ATOM     14  C   UNL d   1      27.893  -7.557   5.111  0.00  0.00     0.129 C 
BRANCH  14  15
ATOM     15  N   UNL d   1      27.031  -7.415   3.927  0.00  0.00    -0.113 N 
ATOM     16  O   UNL d   1      26.759  -8.430   3.277  0.00  0.00    -0.532 OA
ATOM     17  O   UNL d   1      26.619  -6.274   3.643  0.00  0.00    -0.532 OA
ENDBRANCH  14  15
ENDBRANCH   7   9
ENDBRANCH   3   5
BRANCH   4  18
ATOM     18  C   UNL d   1      27.706 -13.135   1.716  0.00  0.00    -0.006 A 
ATOM     19  C   UNL d   1      26.545 -13.421   1.052  0.00  0.00     0.104 A 
ATOM     20  N   UNL d   1      26.808 -14.395   0.112  0.00  0.00    -0.351 N 
ATOM     21  C   UNL d   1      28.135 -14.790   0.221  0.00  0.00     0.045 A 
ATOM     22  C   UNL d   1      28.900 -15.735  -0.484  0.00  0.00     0.030 A 
ATOM     23  C   UNL d   1      28.699 -14.039   1.256  0.00  0.00     0.002 A 
ATOM     24  C   UNL d   1      30.255 -15.881  -0.144  0.00  0.00     0.002 A 
ATOM     25  C   UNL d   1      30.829 -15.139   0.877  0.00  0.00     0.001 A 
ATOM     26  C   UNL d   1      30.048 -14.256   1.607  0.00  0.00     0.014 A 
BRANCH  20  27
ATOM     27  C   UNL d   1      25.850 -14.950  -0.861  0.00  0.00     0.167 C 
BRANCH  27  28
ATOM     28  C   UNL d   1      25.267 -16.280  -0.428  0.00  0.00    -0.039 C 
ATOM     29  C   UNL d   1      26.110 -17.336  -0.045  0.00  0.00     0.009 C 
ATOM     30  C   UNL d   1      25.606 -18.623   0.127  0.00  0.00     0.001 C 
ATOM     31  C   UNL d   1      24.261 -18.874  -0.126  0.00  0.00     0.016 C 
ATOM     32  C   UNL d   1      23.389 -17.825  -0.459  0.00  0.00     0.048 C 
ATOM     33  C   UNL d   1      23.891 -16.517  -0.542  0.00  0.00     0.025 C 
BRANCH  32  34
ATOM     34  C   UNL d   1      21.949 -18.125  -0.790  0.00  0.00     0.417 C 
ATOM     35  F   UNL d   1      21.285 -17.023  -1.240  0.00  0.00    -0.166 F 
ATOM     36  F   UNL d   1      21.822 -19.066  -1.764  0.00  0.00    -0.166 F 
ATOM     37  F   UNL d   1      21.231 -18.582   0.274  0.00  0.00    -0.166 F 
ENDBRANCH  32  34
ENDBRANCH  27  28
ENDBRANCH  20  27
ENDBRANCH   4  18
TORSDOF 7
ENDMDL
MODEL 6
REMARK VINA RESULT:    -8.166      4.896      9.605
REMARK INTER + INTRA:         -12.521
REMARK INTER:                 -10.254
REMARK INTRA:                  -2.267
REMARK CONF_INDEPENDENT:        2.088
REMARK UNBOUND:                -2.267
REMARK  7 active torsions:
REMARK  status: ('A' for Active; 'I' for Inactive)
REMARK    1  A    between atoms: C_3  and  C_25 
REMARK    2  A    between atoms: C_4  and  C_5 
REMARK    3  A    between atoms: N_7  and  C_8 
REMARK    4  A    between atoms: C_8  and  C_9 
REMARK    5  A    between atoms: C_13  and  C_14 
REMARK       I    between atoms: C_25  and  N_27 
REMARK    6  A    between atoms: N_27  and  C_28 
REMARK    7  A    between atoms: C_33  and  N_34 
ROOT
ATOM      1  N   UNL d   1      29.373 -15.986  -2.622  0.00  0.00    -0.096 N 
ATOM      2  C   UNL d   1      29.280 -15.934  -3.879  0.00  0.00     0.025 C 
ATOM      3  C   UNL d   1      29.168 -15.870  -5.393  0.00  0.00     0.099 C 
ATOM      4  C   UNL d   1      28.126 -15.200  -5.927  0.00  0.00     0.041 C 
ENDROOT
BRANCH   3   5
ATOM      5  C   UNL d   1      30.194 -16.607  -6.214  0.00  0.00     0.265 C 
ATOM      6  O   UNL d   1      30.939 -15.952  -6.952  0.00  0.00    -0.267 OA
ATOM      7  N   UNL d   1      30.210 -18.001  -6.168  0.00  0.00    -0.320 N 
ATOM      8  H   UNL d   1      29.375 -18.482  -5.841  0.00  0.00     0.169 HD
BRANCH   7   9
ATOM      9  C   UNL d   1      31.060 -18.789  -7.011  0.00  0.00     0.068 C 
ATOM     10  C   UNL d   1      31.532 -18.234  -8.208  0.00  0.00     0.032 C 
ATOM     11  C   UNL d   1      32.220 -19.008  -9.149  0.00  0.00     0.002 C 
ATOM     12  C   UNL d   1      32.553 -20.326  -8.862  0.00  0.00     0.003 C 
ATOM     13  C   UNL d   1      32.221 -20.865  -7.620  0.00  0.00     0.038 C 
ATOM     14  C   UNL d   1      31.444 -20.115  -6.710  0.00  0.00     0.129 C 
BRANCH  14  15
ATOM     15  N   UNL d   1      30.949 -20.812  -5.512  0.00  0.00    -0.113 N 
ATOM     16  O   UNL d   1      31.641 -21.719  -5.036  0.00  0.00    -0.532 OA
ATOM     17  O   UNL d   1      29.855 -20.448  -5.039  0.00  0.00    -0.532 OA
ENDBRANCH  14  15
ENDBRANCH   7   9
ENDBRANCH   3   5
BRANCH   4  18
ATOM     18  C   UNL d   1      27.139 -14.512  -5.159  0.00  0.00    -0.006 A 
ATOM     19  C   UNL d   1      26.156 -15.146  -4.451  0.00  0.00     0.104 A 
ATOM     20  N   UNL d   1      25.468 -14.203  -3.716  0.00  0.00    -0.351 N 
ATOM     21  C   UNL d   1      25.969 -12.941  -4.010  0.00  0.00     0.045 A 
ATOM     22  C   UNL d   1      25.627 -11.658  -3.548  0.00  0.00     0.030 A 
ATOM     23  C   UNL d   1      26.989 -13.116  -4.950  0.00  0.00     0.002 A 
ATOM     24  C   UNL d   1      26.360 -10.560  -4.029  0.00  0.00     0.002 A 
ATOM     25  C   UNL d   1      27.378 -10.721  -4.957  0.00  0.00     0.001 A 
ATOM     26  C   UNL d   1      27.663 -11.984  -5.453  0.00  0.00     0.014 A 
BRANCH  20  27
ATOM     27  C   UNL d   1      24.370 -14.464  -2.770  0.00  0.00     0.167 C 
BRANCH  27  28
ATOM     28  C   UNL d   1      24.681 -15.575  -1.789  0.00  0.00    -0.039 C 
ATOM     29  C   UNL d   1      26.010 -15.858  -1.431  0.00  0.00     0.009 C 
ATOM     30  C   UNL d   1      26.326 -17.014  -0.723  0.00  0.00     0.001 C 
ATOM     31  C   UNL d   1      25.321 -17.922  -0.404  0.00  0.00     0.016 C 
ATOM     32  C   UNL d   1      23.979 -17.636  -0.705  0.00  0.00     0.048 C 
ATOM     33  C   UNL d   1      23.662 -16.426  -1.340  0.00  0.00     0.025 C 
BRANCH  32  34
ATOM     34  C   UNL d   1      22.912 -18.658  -0.406  0.00  0.00     0.417 C 
ATOM     35  F   UNL d   1      23.392 -19.933  -0.468  0.00  0.00    -0.166 F 
ATOM     36  F   UNL d   1      22.384 -18.515   0.839  0.00  0.00    -0.166 F 
ATOM     37  F   UNL d   1      21.861 -18.616  -1.271  0.00  0.00    -0.166 F 
ENDBRANCH  32  34
ENDBRANCH  27  28
ENDBRANCH  20  27
ENDBRANCH   4  18
TORSDOF 7
ENDMDL
MODEL 7
REMARK VINA RESULT:    -8.042      6.336      9.684
REMARK INTER + INTRA:         -12.579
REMARK INTER:                 -10.130
REMARK INTRA:                  -2.449
REMARK CONF_INDEPENDENT:        2.088
REMARK UNBOUND:                -2.449
REMARK  7 active torsions:
REMARK  status: ('A' for Active; 'I' for Inactive)
REMARK    1  A    between atoms: C_3  and  C_25 
REMARK    2  A    between atoms: C_4  and  C_5 
REMARK    3  A    between atoms: N_7  and  C_8 
REMARK    4  A    between atoms: C_8  and  C_9 
REMARK    5  A    between atoms: C_13  and  C_14 
REMARK       I    between atoms: C_25  and  N_27 
REMARK    6  A    between atoms: N_27  and  C_28 
REMARK    7  A    between atoms: C_33  and  N_34 
ROOT
ATOM      1  N   UNL d   1      30.023 -21.897   0.493  0.00  0.00    -0.096 N 
ATOM      2  C   UNL d   1      31.019 -21.254   0.924  0.00  0.00     0.025 C 
ATOM      3  C   UNL d   1      32.219 -20.478   1.442  0.00  0.00     0.099 C 
ATOM      4  C   UNL d   1      32.552 -19.329   0.820  0.00  0.00     0.041 C 
ENDROOT
BRANCH   3   5
ATOM      5  C   UNL d   1      33.004 -21.064   2.586  0.00  0.00     0.265 C 
ATOM      6  O   UNL d   1      33.799 -21.981   2.347  0.00  0.00    -0.267 OA
ATOM      7  N   UNL d   1      32.747 -20.605   3.878  0.00  0.00    -0.320 N 
ATOM      8  H   UNL d   1      31.864 -20.129   4.053  0.00  0.00     0.169 HD
BRANCH   7   9
ATOM      9  C   UNL d   1      33.349 -21.192   5.038  0.00  0.00     0.068 C 
ATOM     10  C   UNL d   1      34.732 -21.419   5.043  0.00  0.00     0.032 C 
ATOM     11  C   UNL d   1      35.348 -22.143   6.070  0.00  0.00     0.002 C 
ATOM     12  C   UNL d   1      34.612 -22.555   7.174  0.00  0.00     0.003 C 
ATOM     13  C   UNL d   1      33.262 -22.221   7.266  0.00  0.00     0.038 C 
ATOM     14  C   UNL d   1      32.620 -21.575   6.186  0.00  0.00     0.129 C 
BRANCH  14  15
ATOM     15  N   UNL d   1      31.156 -21.440   6.255  0.00  0.00    -0.113 N 
ATOM     16  O   UNL d   1      30.608 -21.574   7.354  0.00  0.00    -0.532 OA
ATOM     17  O   UNL d   1      30.545 -21.196   5.197  0.00  0.00    -0.532 OA
ENDBRANCH  14  15
ENDBRANCH   7   9
ENDBRANCH   3   5
BRANCH   4  18
ATOM     18  C   UNL d   1      31.825 -18.773  -0.275  0.00  0.00    -0.006 A 
ATOM     19  C   UNL d   1      31.155 -17.582  -0.211  0.00  0.00     0.104 A 
ATOM     20  N   UNL d   1      30.686 -17.275  -1.471  0.00  0.00    -0.351 N 
ATOM     21  C   UNL d   1      30.996 -18.314  -2.340  0.00  0.00     0.045 A 
ATOM     22  C   UNL d   1      30.749 -18.505  -3.710  0.00  0.00     0.030 A 
ATOM     23  C   UNL d   1      31.672 -19.282  -1.592  0.00  0.00     0.002 A 
ATOM     24  C   UNL d   1      31.229 -19.678  -4.316  0.00  0.00     0.002 A 
ATOM     25  C   UNL d   1      31.905 -20.644  -3.587  0.00  0.00     0.001 A 
ATOM     26  C   UNL d   1      32.087 -20.473  -2.223  0.00  0.00     0.014 A 
BRANCH  20  27
ATOM     27  C   UNL d   1      29.962 -16.052  -1.860  0.00  0.00     0.167 C 
BRANCH  27  28
ATOM     28  C   UNL d   1      28.464 -16.252  -1.953  0.00  0.00    -0.039 C 
ATOM     29  C   UNL d   1      27.694 -15.467  -2.829  0.00  0.00     0.009 C 
ATOM     30  C   UNL d   1      26.304 -15.474  -2.757  0.00  0.00     0.001 C 
ATOM     31  C   UNL d   1      25.670 -16.233  -1.777  0.00  0.00     0.016 C 
ATOM     32  C   UNL d   1      26.415 -17.065  -0.926  0.00  0.00     0.048 C 
ATOM     33  C   UNL d   1      27.810 -17.117  -1.067  0.00  0.00     0.025 C 
BRANCH  32  34
ATOM     34  C   UNL d   1      25.717 -17.832   0.168  0.00  0.00     0.417 C 
ATOM     35  F   UNL d   1      26.440 -17.850   1.323  0.00  0.00    -0.166 F 
ATOM     36  F   UNL d   1      24.507 -17.299   0.489  0.00  0.00    -0.166 F 
ATOM     37  F   UNL d   1      25.485 -19.137  -0.145  0.00  0.00    -0.166 F 
ENDBRANCH  32  34
ENDBRANCH  27  28
ENDBRANCH  20  27
ENDBRANCH   4  18
TORSDOF 7
ENDMDL
MODEL 8
REMARK VINA RESULT:    -8.003      5.061      9.890
REMARK INTER + INTRA:         -12.363
REMARK INTER:                 -10.091
REMARK INTRA:                  -2.272
REMARK CONF_INDEPENDENT:        2.088
REMARK UNBOUND:                -2.272
REMARK  7 active torsions:
REMARK  status: ('A' for Active; 'I' for Inactive)
REMARK    1  A    between atoms: C_3  and  C_25 
REMARK    2  A    between atoms: C_4  and  C_5 
REMARK    3  A    between atoms: N_7  and  C_8 
REMARK    4  A    between atoms: C_8  and  C_9 
REMARK    5  A    between atoms: C_13  and  C_14 
REMARK       I    between atoms: C_25  and  N_27 
REMARK    6  A    between atoms: N_27  and  C_28 
REMARK    7  A    between atoms: C_33  and  N_34 
ROOT
ATOM      1  N   UNL d   1      26.574 -13.271  -5.596  0.00  0.00    -0.096 N 
ATOM      2  C   UNL d   1      27.420 -14.181  -5.382  0.00  0.00     0.025 C 
ATOM      3  C   UNL d   1      28.439 -15.279  -5.124  0.00  0.00     0.099 C 
ATOM      4  C   UNL d   1      28.409 -15.909  -3.932  0.00  0.00     0.041 C 
ENDROOT
BRANCH   3   5
ATOM      5  C   UNL d   1      29.464 -15.563  -6.191  0.00  0.00     0.265 C 
ATOM      6  O   UNL d   1      29.419 -14.910  -7.240  0.00  0.00    -0.267 OA
ATOM      7  N   UNL d   1      30.371 -16.602  -5.986  0.00  0.00    -0.320 N 
ATOM      8  H   UNL d   1      30.141 -17.313  -5.295  0.00  0.00     0.169 HD
BRANCH   7   9
ATOM      9  C   UNL d   1      31.294 -17.029  -6.996  0.00  0.00     0.068 C 
ATOM     10  C   UNL d   1      32.099 -16.070  -7.627  0.00  0.00     0.032 C 
ATOM     11  C   UNL d   1      32.890 -16.398  -8.733  0.00  0.00     0.002 C 
ATOM     12  C   UNL d   1      32.984 -17.717  -9.161  0.00  0.00     0.003 C 
ATOM     13  C   UNL d   1      32.306 -18.716  -8.465  0.00  0.00     0.038 C 
ATOM     14  C   UNL d   1      31.432 -18.373  -7.409  0.00  0.00     0.129 C 
BRANCH  14  15
ATOM     15  N   UNL d   1      30.589 -19.444  -6.857  0.00  0.00    -0.113 N 
ATOM     16  O   UNL d   1      30.052 -19.258  -5.759  0.00  0.00    -0.532 OA
ATOM     17  O   UNL d   1      30.460 -20.486  -7.528  0.00  0.00    -0.532 OA
ENDBRANCH  14  15
ENDBRANCH   7   9
ENDBRANCH   3   5
BRANCH   4  18
ATOM     18  C   UNL d   1      27.453 -15.637  -2.908  0.00  0.00    -0.006 A 
ATOM     19  C   UNL d   1      26.100 -15.697  -3.101  0.00  0.00     0.104 A 
ATOM     20  N   UNL d   1      25.476 -15.519  -1.884  0.00  0.00    -0.351 N 
ATOM     21  C   UNL d   1      26.435 -15.270  -0.910  0.00  0.00     0.045 A 
ATOM     22  C   UNL d   1      26.338 -15.021   0.470  0.00  0.00     0.030 A 
ATOM     23  C   UNL d   1      27.678 -15.296  -1.548  0.00  0.00     0.002 A 
ATOM     24  C   UNL d   1      27.525 -14.834   1.197  0.00  0.00     0.002 A 
ATOM     25  C   UNL d   1      28.765 -14.862   0.578  0.00  0.00     0.001 A 
ATOM     26  C   UNL d   1      28.844 -15.045  -0.794  0.00  0.00     0.014 A 
BRANCH  20  27
ATOM     27  C   UNL d   1      24.026 -15.571  -1.630  0.00  0.00     0.167 C 
BRANCH  27  28
ATOM     28  C   UNL d   1      23.582 -16.863  -0.976  0.00  0.00    -0.039 C 
ATOM     29  C   UNL d   1      24.532 -17.800  -0.535  0.00  0.00     0.009 C 
ATOM     30  C   UNL d   1      24.143 -19.081  -0.152  0.00  0.00     0.001 C 
ATOM     31  C   UNL d   1      22.805 -19.452  -0.247  0.00  0.00     0.016 C 
ATOM     32  C   UNL d   1      21.832 -18.517  -0.635  0.00  0.00     0.048 C 
ATOM     33  C   UNL d   1      22.224 -17.203  -0.934  0.00  0.00     0.025 C 
BRANCH  32  34
ATOM     34  C   UNL d   1      20.397 -18.953  -0.793  0.00  0.00     0.417 C 
ATOM     35  F   UNL d   1      19.967 -19.691   0.269  0.00  0.00    -0.166 F 
ATOM     36  F   UNL d   1      19.540 -17.902  -0.893  0.00  0.00    -0.166 F 
ATOM     37  F   UNL d   1      20.181 -19.726  -1.893  0.00  0.00    -0.166 F 
ENDBRANCH  32  34
ENDBRANCH  27  28
ENDBRANCH  20  27
ENDBRANCH   4  18
TORSDOF 7
ENDMDL
MODEL 9
REMARK VINA RESULT:    -7.712      6.299      9.769
REMARK INTER + INTRA:         -12.169
REMARK INTER:                  -9.800
REMARK INTRA:                  -2.369
REMARK CONF_INDEPENDENT:        2.088
REMARK UNBOUND:                -2.369
REMARK  7 active torsions:
REMARK  status: ('A' for Active; 'I' for Inactive)
REMARK    1  A    between atoms: C_3  and  C_25 
REMARK    2  A    between atoms: C_4  and  C_5 
REMARK    3  A    between atoms: N_7  and  C_8 
REMARK    4  A    between atoms: C_8  and  C_9 
REMARK    5  A    between atoms: C_13  and  C_14 
REMARK       I    between atoms: C_25  and  N_27 
REMARK    6  A    between atoms: N_27  and  C_28 
REMARK    7  A    between atoms: C_33  and  N_34 
ROOT
ATOM      1  N   UNL d   1      25.916 -13.408   1.732  0.00  0.00    -0.096 N 
ATOM      2  C   UNL d   1      26.704 -12.493   1.369  0.00  0.00     0.025 C 
ATOM      3  C   UNL d   1      27.654 -11.390   0.930  0.00  0.00     0.099 C 
ATOM      4  C   UNL d   1      28.085 -11.392  -0.348  0.00  0.00     0.041 C 
ENDROOT
BRANCH   3   5
ATOM      5  C   UNL d   1      28.105 -10.390   1.961  0.00  0.00     0.265 C 
ATOM      6  O   UNL d   1      28.623 -10.809   3.003  0.00  0.00    -0.267 OA
ATOM      7  N   UNL d   1      27.851  -9.037   1.736  0.00  0.00    -0.320 N 
ATOM      8  H   UNL d   1      27.129  -8.788   1.063  0.00  0.00     0.169 HD
BRANCH   7   9
ATOM      9  C   UNL d   1      28.126  -8.028   2.715  0.00  0.00     0.068 C 
ATOM     10  C   UNL d   1      29.337  -8.079   3.420  0.00  0.00     0.032 C 
ATOM     11  C   UNL d   1      29.586  -7.229   4.502  0.00  0.00     0.002 C 
ATOM     12  C   UNL d   1      28.678  -6.229   4.831  0.00  0.00     0.003 C 
ATOM     13  C   UNL d   1      27.530  -6.062   4.060  0.00  0.00     0.038 C 
ATOM     14  C   UNL d   1      27.232  -6.980   3.028  0.00  0.00     0.129 C 
BRANCH  14  15
ATOM     15  N   UNL d   1      25.909  -6.875   2.394  0.00  0.00    -0.113 N 
ATOM     16  O   UNL d   1      25.511  -7.824   1.710  0.00  0.00    -0.532 OA
ATOM     17  O   UNL d   1      25.257  -5.829   2.581  0.00  0.00    -0.532 OA
ENDBRANCH  14  15
ENDBRANCH   7   9
ENDBRANCH   3   5
BRANCH   4  18
ATOM     18  C   UNL d   1      27.676 -12.345  -1.329  0.00  0.00    -0.006 A 
ATOM     19  C   UNL d   1      27.840 -13.695  -1.185  0.00  0.00     0.104 A 
ATOM     20  N   UNL d   1      27.215 -14.326  -2.239  0.00  0.00    -0.351 N 
ATOM     21  C   UNL d   1      26.704 -13.369  -3.107  0.00  0.00     0.045 A 
ATOM     22  C   UNL d   1      25.992 -13.473  -4.315  0.00  0.00     0.030 A 
ATOM     23  C   UNL d   1      27.027 -12.120  -2.571  0.00  0.00     0.002 A 
ATOM     24  C   UNL d   1      25.583 -12.289  -4.950  0.00  0.00     0.002 A 
ATOM     25  C   UNL d   1      25.893 -11.043  -4.426  0.00  0.00     0.001 A 
ATOM     26  C   UNL d   1      26.650 -10.953  -3.269  0.00  0.00     0.014 A 
BRANCH  20  27
ATOM     27  C   UNL d   1      27.097 -15.781  -2.441  0.00  0.00     0.167 C 
BRANCH  27  28
ATOM     28  C   UNL d   1      26.394 -16.485  -1.299  0.00  0.00    -0.039 C 
ATOM     29  C   UNL d   1      27.137 -17.141  -0.302  0.00  0.00     0.009 C 
ATOM     30  C   UNL d   1      26.512 -17.983   0.613  0.00  0.00     0.001 C 
ATOM     31  C   UNL d   1      25.143 -18.213   0.513  0.00  0.00     0.016 C 
ATOM     32  C   UNL d   1      24.373 -17.529  -0.441  0.00  0.00     0.048 C 
ATOM     33  C   UNL d   1      25.000 -16.615  -1.301  0.00  0.00     0.025 C 
BRANCH  32  34
ATOM     34  C   UNL d   1      22.903 -17.837  -0.575  0.00  0.00     0.417 C 
ATOM     35  F   UNL d   1      22.158 -16.711  -0.762  0.00  0.00    -0.166 F 
ATOM     36  F   UNL d   1      22.633 -18.648  -1.634  0.00  0.00    -0.166 F 
ATOM     37  F   UNL d   1      22.374 -18.454   0.518  0.00  0.00    -0.166 F 
ENDBRANCH  32  34
ENDBRANCH  27  28
ENDBRANCH  20  27
ENDBRANCH   4  18
TORSDOF 7
ENDMDL
