MODEL 1
REMARK VINA RESULT:   -15.549      0.000      0.000
REMARK INTER + INTRA:         -19.476
REMARK INTER:                 -17.935
REMARK INTRA:                  -1.541
REMARK CONF_INDEPENDENT:        2.386
REMARK UNBOUND:                -1.541
REMARK  8 active torsions:
REMARK  status: ('A' for Active; 'I' for Inactive)
REMARK    1  A    between atoms: C_2  and  C_3 
REMARK       I    between atoms: C_2  and  N_17 
REMARK    2  A    between atoms: C_3  and  S_4 
REMARK    3  A    between atoms: S_4  and  C_5 
REMARK    4  A    between atoms: C_8  and  C_9 
REMARK    5  A    between atoms: N_17  and  CA_18 
REMARK    6  A    between atoms: CA_18  and  CB_19 
REMARK    7  A    between atoms: CA_18  and  C_29 
REMARK    8  A    between atoms: CB_19  and  CG_20 
ROOT
ATOM      1  O   UNK d   0      24.563 -17.845  -2.588  0.00  0.00    -0.273 OA
ATOM      2  C   UNK d   0      25.138 -16.781  -2.505  0.00  0.00     0.227 C 
ATOM      3  N   TRP d   1      25.625 -15.948  -3.443  0.00  0.00    -0.346 N 
ATOM      4  H   TRP d   1      25.471 -16.251  -4.394  0.00  0.00     0.163 HD
ENDROOT
BRANCH   2   5
ATOM      5  C   UNK d   0      25.419 -16.107  -1.305  0.00  0.00     0.180 C 
BRANCH   5   6
ATOM      6  S   UNK d   0      24.040 -16.091  -0.209  0.00  0.00    -0.112 SA
BRANCH   6   7
ATOM      7  C   UNK d   0      22.557 -18.279  -0.582  0.00  0.00     0.275 C 
ATOM      8  N   UNK d   0      21.010 -18.041  -1.657  0.00  0.00    -0.222 NA
ATOM      9  N   UNK d   0      19.905 -18.575  -0.901  0.00  0.00    -0.226 NA
ATOM     10  H   UNK d   0      20.833 -17.049  -1.914  0.00  0.00     0.144 HD
ATOM     11  C   UNK d   0      20.604 -19.691  -0.288  0.00  0.00     0.245 C 
ATOM     12  H   UNK d   0      19.168 -18.850  -1.557  0.00  0.00     0.143 HD
ATOM     13  O   UNK d   0      21.871 -19.157   0.419  0.00  0.00    -0.336 OA
BRANCH  11  14
ATOM     14  C   UNK d   0      19.731 -20.546   0.618  0.00  0.00    -0.013 A 
ATOM     15  C   UNK d   0      18.929 -21.634   0.194  0.00  0.00     0.011 A 
ATOM     16  C   UNK d   0      18.273 -22.445   1.135  0.00  0.00     0.002 A 
ATOM     17  C   UNK d   0      18.402 -22.173   2.497  0.00  0.00     0.024 A 
ATOM     18  C   UNK d   0      19.177 -21.097   2.914  0.00  0.00     0.034 A 
ATOM     19 CL   UNK d   0      19.337 -20.734   4.584  0.00  0.00    -0.084 Cl
ATOM     20  C   UNK d   0      19.840 -20.308   1.988  0.00  0.00     0.035 A 
ENDBRANCH  11  14
ENDBRANCH   6   7
ENDBRANCH   5   6
ENDBRANCH   2   5
BRANCH   3  21
ATOM     21  CA  TRP d   1      26.258 -14.541  -3.233  0.00  0.00     0.190 C 
BRANCH  21  22
ATOM     22  CB  TRP d   1      27.437 -14.443  -2.160  0.00  0.00     0.076 C 
BRANCH  22  23
ATOM     23  CG  TRP d   1      28.731 -13.235  -2.357  0.00  0.00    -0.032 C 
ATOM     24  CD1 TRP d   1      28.655 -12.017  -1.685  0.00  0.00     0.096 C 
ATOM     25  NE1 TRP d   1      29.296 -10.958  -2.354  0.00  0.00    -0.368 N 
ATOM     26  CE2 TRP d   1      29.262 -11.068  -3.754  0.00  0.00     0.021 C 
ATOM     27  HE1 TRP d   1      29.793 -10.227  -1.872  0.00  0.00     0.165 HD
ATOM     28  CZ2 TRP d   1      29.617 -10.302  -5.510  0.00  0.00     0.051 C 
ATOM     29  CD2 TRP d   1      29.689 -12.848  -3.621  0.00  0.00    -0.022 C 
ATOM     30  CH2 TRP d   1      30.140 -11.450  -6.835  0.00  0.00     0.006 C 
ATOM     31  CZ3 TRP d   1      30.238 -13.040  -6.724  0.00  0.00     0.005 C 
ATOM     32  CE3 TRP d   1      30.143 -13.699  -5.205  0.00  0.00     0.035 C 
ENDBRANCH  22  23
ENDBRANCH  21  22
BRANCH  21  33
ATOM     33  C   TRP d   1      26.641 -14.056  -4.641  0.00  0.00     0.197 C 
ATOM     34  O   TRP d   1      26.858 -12.804  -4.701  0.00  0.00    -0.646 OA
ATOM     35  OXT TRP d   1      26.731 -14.941  -5.527  0.00  0.00    -0.646 OA
ENDBRANCH  21  33
ENDBRANCH   3  21
TORSDOF 8
ENDMDL
MODEL 2
REMARK VINA RESULT:   -13.846      1.955      3.009
REMARK INTER + INTRA:         -17.562
REMARK INTER:                 -16.232
REMARK INTRA:                  -1.330
REMARK CONF_INDEPENDENT:        2.386
REMARK UNBOUND:                -1.330
REMARK  8 active torsions:
REMARK  status: ('A' for Active; 'I' for Inactive)
REMARK    1  A    between atoms: C_2  and  C_3 
REMARK       I    between atoms: C_2  and  N_17 
REMARK    2  A    between atoms: C_3  and  S_4 
REMARK    3  A    between atoms: S_4  and  C_5 
REMARK    4  A    between atoms: C_8  and  C_9 
REMARK    5  A    between atoms: N_17  and  CA_18 
REMARK    6  A    between atoms: CA_18  and  CB_19 
REMARK    7  A    between atoms: CA_18  and  C_29 
REMARK    8  A    between atoms: CB_19  and  CG_20 
ROOT
ATOM      1  O   UNK d   0      24.451 -17.614  -2.616  0.00  0.00    -0.273 OA
ATOM      2  C   UNK d   0      25.288 -16.781  -2.342  0.00  0.00     0.227 C 
ATOM      3  N   TRP d   1      26.172 -16.112  -3.107  0.00  0.00    -0.346 N 
ATOM      4  H   TRP d   1      26.122 -16.327  -4.092  0.00  0.00     0.163 HD
ENDROOT
BRANCH   2   5
ATOM      5  C   UNK d   0      25.520 -16.259  -1.059  0.00  0.00     0.180 C 
BRANCH   5   6
ATOM      6  S   UNK d   0      24.039 -16.129  -0.114  0.00  0.00    -0.112 SA
BRANCH   6   7
ATOM      7  C   UNK d   0      22.538 -18.307  -0.469  0.00  0.00     0.275 C 
ATOM      8  N   UNK d   0      21.063 -18.098  -1.647  0.00  0.00    -0.222 NA
ATOM      9  N   UNK d   0      19.905 -18.576  -0.933  0.00  0.00    -0.226 NA
ATOM     10  H   UNK d   0      20.921 -17.117  -1.962  0.00  0.00     0.144 HD
ATOM     11  C   UNK d   0      20.544 -19.670  -0.226  0.00  0.00     0.245 C 
ATOM     12  H   UNK d   0      19.203 -18.870  -1.619  0.00  0.00     0.143 HD
ATOM     13  O   UNK d   0      21.777 -19.123   0.530  0.00  0.00    -0.336 OA
BRANCH  11  14
ATOM     14  C   UNK d   0      19.602 -20.465   0.666  0.00  0.00    -0.013 A 
ATOM     15  C   UNK d   0      18.566 -21.317   0.211  0.00  0.00     0.011 A 
ATOM     16  C   UNK d   0      17.847 -22.114   1.119  0.00  0.00     0.002 A 
ATOM     17  C   UNK d   0      18.147 -22.059   2.480  0.00  0.00     0.024 A 
ATOM     18  C   UNK d   0      19.154 -21.213   2.930  0.00  0.00     0.034 A 
ATOM     19 CL   UNK d   0      19.529 -21.117   4.603  0.00  0.00    -0.084 Cl
ATOM     20  C   UNK d   0      19.876 -20.441   2.034  0.00  0.00     0.035 A 
ENDBRANCH  11  14
ENDBRANCH   6   7
ENDBRANCH   5   6
ENDBRANCH   2   5
BRANCH   3  21
ATOM     21  CA  TRP d   1      27.141 -14.975  -2.670  0.00  0.00     0.190 C 
BRANCH  21  22
ATOM     22  CB  TRP d   1      28.545 -15.430  -2.058  0.00  0.00     0.076 C 
BRANCH  22  23
ATOM     23  CG  TRP d   1      29.984 -14.400  -2.252  0.00  0.00    -0.032 C 
ATOM     24  CD1 TRP d   1      31.235 -14.980  -2.448  0.00  0.00     0.096 C 
ATOM     25  NE1 TRP d   1      32.304 -14.208  -1.959  0.00  0.00    -0.368 N 
ATOM     26  CE2 TRP d   1      31.979 -13.443  -0.825  0.00  0.00     0.021 C 
ATOM     27  HE1 TRP d   1      33.197 -14.154  -2.420  0.00  0.00     0.165 HD
ATOM     28  CZ2 TRP d   1      32.534 -12.266   0.624  0.00  0.00     0.051 C 
ATOM     29  CD2 TRP d   1      30.396 -12.954  -1.614  0.00  0.00    -0.022 C 
ATOM     30  CH2 TRP d   1      31.359 -10.962   1.141  0.00  0.00     0.006 C 
ATOM     31  CZ3 TRP d   1      29.875 -10.754   0.590  0.00  0.00     0.005 C 
ATOM     32  CE3 TRP d   1      29.450 -11.599  -0.773  0.00  0.00     0.035 C 
ENDBRANCH  22  23
ENDBRANCH  21  22
BRANCH  21  33
ATOM     33  C   TRP d   1      27.253 -14.048  -3.891  0.00  0.00     0.197 C 
ATOM     34  O   TRP d   1      27.944 -14.543  -4.838  0.00  0.00    -0.646 OA
ATOM     35  OXT TRP d   1      26.630 -12.961  -3.822  0.00  0.00    -0.646 OA
ENDBRANCH  21  33
ENDBRANCH   3  21
TORSDOF 8
ENDMDL
MODEL 3
REMARK VINA RESULT:   -13.658      1.690      2.267
REMARK INTER + INTRA:         -17.268
REMARK INTER:                 -16.045
REMARK INTRA:                  -1.223
REMARK CONF_INDEPENDENT:        2.386
REMARK UNBOUND:                -1.223
REMARK  8 active torsions:
REMARK  status: ('A' for Active; 'I' for Inactive)
REMARK    1  A    between atoms: C_2  and  C_3 
REMARK       I    between atoms: C_2  and  N_17 
REMARK    2  A    between atoms: C_3  and  S_4 
REMARK    3  A    between atoms: S_4  and  C_5 
REMARK    4  A    between atoms: C_8  and  C_9 
REMARK    5  A    between atoms: N_17  and  CA_18 
REMARK    6  A    between atoms: CA_18  and  CB_19 
REMARK    7  A    between atoms: CA_18  and  C_29 
REMARK    8  A    between atoms: CB_19  and  CG_20 
ROOT
ATOM      1  O   UNK d   0      24.337 -17.719  -2.475  0.00  0.00    -0.273 OA
ATOM      2  C   UNK d   0      25.147 -16.826  -2.350  0.00  0.00     0.227 C 
ATOM      3  N   TRP d   1      25.973 -16.232  -3.232  0.00  0.00    -0.346 N 
ATOM      4  H   TRP d   1      25.897 -16.580  -4.177  0.00  0.00     0.163 HD
ENDROOT
BRANCH   2   5
ATOM      5  C   UNK d   0      25.401 -16.127  -1.158  0.00  0.00     0.180 C 
BRANCH   5   6
ATOM      6  S   UNK d   0      23.991 -16.069  -0.104  0.00  0.00    -0.112 SA
BRANCH   6   7
ATOM      7  C   UNK d   0      22.517 -18.270  -0.434  0.00  0.00     0.275 C 
ATOM      8  N   UNK d   0      21.078 -18.111  -1.663  0.00  0.00    -0.222 NA
ATOM      9  N   UNK d   0      19.902 -18.575  -0.970  0.00  0.00    -0.226 NA
ATOM     10  H   UNK d   0      20.939 -17.142  -2.014  0.00  0.00     0.144 HD
ATOM     11  C   UNK d   0      20.527 -19.641  -0.208  0.00  0.00     0.245 C 
ATOM     12  H   UNK d   0      19.224 -18.897  -1.667  0.00  0.00     0.143 HD
ATOM     13  O   UNK d   0      21.731 -19.060   0.567  0.00  0.00    -0.336 OA
BRANCH  11  14
ATOM     14  C   UNK d   0      19.563 -20.414   0.680  0.00  0.00    -0.013 A 
ATOM     15  C   UNK d   0      18.479 -21.201   0.221  0.00  0.00     0.011 A 
ATOM     16  C   UNK d   0      17.738 -21.988   1.121  0.00  0.00     0.002 A 
ATOM     17  C   UNK d   0      18.065 -21.986   2.477  0.00  0.00     0.024 A 
ATOM     18  C   UNK d   0      19.120 -21.203   2.931  0.00  0.00     0.034 A 
ATOM     19 CL   UNK d   0      19.530 -21.173   4.597  0.00  0.00    -0.084 Cl
ATOM     20  C   UNK d   0      19.863 -20.442   2.043  0.00  0.00     0.035 A 
ENDBRANCH  11  14
ENDBRANCH   6   7
ENDBRANCH   5   6
ENDBRANCH   2   5
BRANCH   3  21
ATOM     21  CA  TRP d   1      26.906 -15.011  -2.991  0.00  0.00     0.190 C 
BRANCH  21  22
ATOM     22  CB  TRP d   1      28.380 -15.107  -3.599  0.00  0.00     0.076 C 
BRANCH  22  23
ATOM     23  CG  TRP d   1      29.217 -13.640  -4.162  0.00  0.00    -0.032 C 
ATOM     24  CD1 TRP d   1      29.225 -13.318  -5.517  0.00  0.00     0.096 C 
ATOM     25  NE1 TRP d   1      30.363 -12.597  -5.924  0.00  0.00    -0.368 N 
ATOM     26  CE2 TRP d   1      31.525 -12.915  -5.201  0.00  0.00     0.021 C 
ATOM     27  HE1 TRP d   1      30.330 -11.871  -6.620  0.00  0.00     0.165 HD
ATOM     28  CZ2 TRP d   1      33.448 -12.735  -4.945  0.00  0.00     0.051 C 
ATOM     29  CD2 TRP d   1      30.561 -12.873  -3.640  0.00  0.00    -0.022 C 
ATOM     30  CH2 TRP d   1      34.068 -12.735  -3.224  0.00  0.00     0.006 C 
ATOM     31  CZ3 TRP d   1      33.197 -12.970  -1.905  0.00  0.00     0.005 C 
ATOM     32  CE3 TRP d   1      31.547 -12.922  -2.071  0.00  0.00     0.035 C 
ENDBRANCH  22  23
ENDBRANCH  21  22
BRANCH  21  33
ATOM     33  C   TRP d   1      26.104 -13.789  -3.468  0.00  0.00     0.197 C 
ATOM     34  O   TRP d   1      26.609 -12.680  -3.102  0.00  0.00    -0.646 OA
ATOM     35  OXT TRP d   1      25.097 -14.029  -4.178  0.00  0.00    -0.646 OA
ENDBRANCH  21  33
ENDBRANCH   3  21
TORSDOF 8
ENDMDL
