MODEL 1
REMARK VINA RESULT:    -8.142      0.000      0.000
REMARK INTER + INTRA:          -9.824
REMARK INTER:                  -9.037
REMARK INTRA:                  -0.787
REMARK CONF_INDEPENDENT:        0.895
REMARK UNBOUND:                -0.787
REMARK  3 active torsions:
REMARK  status: ('A' for Active; 'I' for Inactive)
REMARK    1  A    between atoms: C_5  and  C_6 
REMARK       I    between atoms: C_6  and  N_7 
REMARK    2  A    between atoms: C_10  and  N_11 
REMARK       I    between atoms: N_11  and  C_12 
REMARK    3  A    between atoms: C_12  and  C_14 
ROOT
ATOM      1  C   UNL d   1      27.543 -17.057  -0.684  0.00  0.00     0.050 C 
ATOM      2  C   UNL d   1      26.085 -17.386  -0.831  0.00  0.00    -0.035 C 
ATOM      3  C   UNL d   1      25.599 -18.270   0.135  0.00  0.00     0.010 C 
ATOM      4  C   UNL d   1      24.249 -18.547   0.251  0.00  0.00     0.017 C 
ATOM      5  C   UNL d   1      23.332 -17.960  -0.618  0.00  0.00     0.034 C 
ATOM      6  C   UNL d   1      23.814 -17.135  -1.662  0.00  0.00     0.047 C 
ATOM      7  C   UNL d   1      25.202 -16.886  -1.815  0.00  0.00     0.042 C 
ENDROOT
BRANCH   7   8
ATOM      8  N   UNL d   1      25.625 -16.152  -2.965  0.00  0.00    -0.322 N 
ATOM      9  C   UNL d   1      25.457 -14.799  -3.234  0.00  0.00     0.256 C 
ATOM     10  O   UNL d   1      24.969 -14.435  -4.302  0.00  0.00    -0.267 OA
ATOM     11  H   UNL d   1      25.857 -16.701  -3.788  0.00  0.00     0.169 HD
BRANCH   9  12
ATOM     12  C   UNL d   1      25.904 -13.763  -2.228  0.00  0.00     0.035 C 
ATOM     13  C   UNL d   1      26.281 -14.191  -0.938  0.00  0.00     0.041 C 
ATOM     14  C   UNL d   1      27.003 -13.329  -0.100  0.00  0.00     0.036 C 
ATOM     15 CL   UNL d   1      27.481 -13.850   1.470  0.00  0.00    -0.084 Cl
ATOM     16  C   UNL d   1      27.411 -12.071  -0.546  0.00  0.00     0.047 C 
ATOM     17  C   UNL d   1      27.034 -11.648  -1.816  0.00  0.00     0.036 C 
ATOM     18 CL   UNL d   1      27.763 -10.238  -2.491  0.00  0.00    -0.084 Cl
ATOM     19  C   UNL d   1      26.222 -12.450  -2.627  0.00  0.00     0.041 C 
ENDBRANCH   9  12
ENDBRANCH   7   8
BRANCH   5  20
ATOM     20  C   UNL d   1      21.863 -18.217  -0.460  0.00  0.00     0.249 C 
ATOM     21  N   UNL d   1      21.474 -19.360   0.207  0.00  0.00    -0.366 N 
ATOM     22  H   UNL d   1      22.088 -20.051   0.604  0.00  0.00     0.159 HD
ATOM     23  H   UNL d   1      20.482 -19.522   0.314  0.00  0.00     0.159 HD
ATOM     24  O   UNL d   1      21.029 -17.449  -0.896  0.00  0.00    -0.268 OA
ENDBRANCH   5  20
TORSDOF 3
ENDMDL
MODEL 2
REMARK VINA RESULT:    -7.796      0.449      1.950
REMARK INTER + INTRA:          -9.403
REMARK INTER:                  -8.690
REMARK INTRA:                  -0.713
REMARK CONF_INDEPENDENT:        0.895
REMARK UNBOUND:                -0.713
REMARK  3 active torsions:
REMARK  status: ('A' for Active; 'I' for Inactive)
REMARK    1  A    between atoms: C_5  and  C_6 
REMARK       I    between atoms: C_6  and  N_7 
REMARK    2  A    between atoms: C_10  and  N_11 
REMARK       I    between atoms: N_11  and  C_12 
REMARK    3  A    between atoms: C_12  and  C_14 
ROOT
ATOM      1  C   UNL d   1      27.510 -16.952  -0.725  0.00  0.00     0.050 C 
ATOM      2  C   UNL d   1      26.066 -17.342  -0.860  0.00  0.00    -0.035 C 
ATOM      3  C   UNL d   1      25.607 -18.193   0.149  0.00  0.00     0.010 C 
ATOM      4  C   UNL d   1      24.267 -18.513   0.274  0.00  0.00     0.017 C 
ATOM      5  C   UNL d   1      23.335 -18.005  -0.628  0.00  0.00     0.034 C 
ATOM      6  C   UNL d   1      23.792 -17.218  -1.711  0.00  0.00     0.047 C 
ATOM      7  C   UNL d   1      25.171 -16.927  -1.872  0.00  0.00     0.042 C 
ENDROOT
BRANCH   7   8
ATOM      8  N   UNL d   1      25.573 -16.238  -3.056  0.00  0.00    -0.322 N 
ATOM      9  C   UNL d   1      25.675 -14.867  -3.265  0.00  0.00     0.256 C 
ATOM     10  O   UNL d   1      25.129 -14.345  -4.234  0.00  0.00    -0.267 OA
ATOM     11  H   UNL d   1      25.552 -16.776  -3.918  0.00  0.00     0.169 HD
BRANCH   9  12
ATOM     12  C   UNL d   1      26.487 -14.013  -2.317  0.00  0.00     0.035 C 
ATOM     13  C   UNL d   1      27.105 -12.848  -2.817  0.00  0.00     0.041 C 
ATOM     14  C   UNL d   1      27.576 -11.872  -1.927  0.00  0.00     0.036 C 
ATOM     15 CL   UNL d   1      28.317 -10.439  -2.530  0.00  0.00    -0.084 Cl
ATOM     16  C   UNL d   1      27.387 -12.005  -0.551  0.00  0.00     0.047 C 
ATOM     17  C   UNL d   1      26.782 -13.157  -0.060  0.00  0.00     0.036 C 
ATOM     18 CL   UNL d   1      26.281 -13.213   1.590  0.00  0.00    -0.084 Cl
ATOM     19  C   UNL d   1      26.403 -14.192  -0.923  0.00  0.00     0.041 C 
ENDBRANCH   9  12
ENDBRANCH   7   8
BRANCH   5  20
ATOM     20  C   UNL d   1      21.875 -18.307  -0.462  0.00  0.00     0.249 C 
ATOM     21  N   UNL d   1      21.525 -19.461   0.209  0.00  0.00    -0.366 N 
ATOM     22  H   UNL d   1      22.162 -20.131   0.605  0.00  0.00     0.159 HD
ATOM     23  H   UNL d   1      20.539 -19.654   0.321  0.00  0.00     0.159 HD
ATOM     24  O   UNL d   1      21.016 -17.567  -0.895  0.00  0.00    -0.268 OA
ENDBRANCH   5  20
TORSDOF 3
ENDMDL
MODEL 3
REMARK VINA RESULT:    -7.786      4.281      6.030
REMARK INTER + INTRA:          -9.658
REMARK INTER:                  -8.681
REMARK INTRA:                  -0.977
REMARK CONF_INDEPENDENT:        0.895
REMARK UNBOUND:                -0.977
REMARK  3 active torsions:
REMARK  status: ('A' for Active; 'I' for Inactive)
REMARK    1  A    between atoms: C_5  and  C_6 
REMARK       I    between atoms: C_6  and  N_7 
REMARK    2  A    between atoms: C_10  and  N_11 
REMARK       I    between atoms: N_11  and  C_12 
REMARK    3  A    between atoms: C_12  and  C_14 
ROOT
ATOM      1  C   UNL d   1      26.860 -13.024  -0.602  0.00  0.00     0.050 C 
ATOM      2  C   UNL d   1      27.290 -13.392   0.790  0.00  0.00    -0.035 C 
ATOM      3  C   UNL d   1      26.873 -12.490   1.772  0.00  0.00     0.010 C 
ATOM      4  C   UNL d   1      27.034 -12.761   3.119  0.00  0.00     0.017 C 
ATOM      5  C   UNL d   1      27.643 -13.943   3.532  0.00  0.00     0.034 C 
ATOM      6  C   UNL d   1      28.156 -14.825   2.552  0.00  0.00     0.047 C 
ATOM      7  C   UNL d   1      28.037 -14.529   1.169  0.00  0.00     0.042 C 
ENDROOT
BRANCH   7   8
ATOM      8  N   UNL d   1      28.690 -15.398   0.243  0.00  0.00    -0.322 N 
ATOM      9  C   UNL d   1      28.237 -16.607  -0.274  0.00  0.00     0.256 C 
ATOM     10  O   UNL d   1      28.949 -17.607  -0.224  0.00  0.00    -0.267 OA
ATOM     11  H   UNL d   1      29.690 -15.259   0.125  0.00  0.00     0.169 HD
BRANCH   9  12
ATOM     12  C   UNL d   1      26.878 -16.690  -0.930  0.00  0.00     0.035 C 
ATOM     13  C   UNL d   1      25.869 -17.451  -0.302  0.00  0.00     0.041 C 
ATOM     14  C   UNL d   1      24.531 -17.288  -0.689  0.00  0.00     0.036 C 
ATOM     15 CL   UNL d   1      23.292 -18.200   0.083  0.00  0.00    -0.084 Cl
ATOM     16  C   UNL d   1      24.171 -16.336  -1.644  0.00  0.00     0.047 C 
ATOM     17  C   UNL d   1      25.168 -15.591  -2.265  0.00  0.00     0.036 C 
ATOM     18 CL   UNL d   1      24.730 -14.224  -3.223  0.00  0.00    -0.084 Cl
ATOM     19  C   UNL d   1      26.518 -15.814  -1.973  0.00  0.00     0.041 C 
ENDBRANCH   9  12
ENDBRANCH   7   8
BRANCH   5  20
ATOM     20  C   UNL d   1      27.770 -14.263   4.993  0.00  0.00     0.249 C 
ATOM     21  N   UNL d   1      28.516 -15.366   5.351  0.00  0.00    -0.366 N 
ATOM     22  H   UNL d   1      28.992 -15.988   4.720  0.00  0.00     0.159 HD
ATOM     23  H   UNL d   1      28.601 -15.571   6.337  0.00  0.00     0.159 HD
ATOM     24  O   UNL d   1      27.242 -13.578   5.845  0.00  0.00    -0.268 OA
ENDBRANCH   5  20
TORSDOF 3
ENDMDL
MODEL 4
REMARK VINA RESULT:    -7.473      3.195      5.998
REMARK INTER + INTRA:          -9.074
REMARK INTER:                  -8.367
REMARK INTRA:                  -0.706
REMARK CONF_INDEPENDENT:        0.895
REMARK UNBOUND:                -0.706
REMARK  3 active torsions:
REMARK  status: ('A' for Active; 'I' for Inactive)
REMARK    1  A    between atoms: C_5  and  C_6 
REMARK       I    between atoms: C_6  and  N_7 
REMARK    2  A    between atoms: C_10  and  N_11 
REMARK       I    between atoms: N_11  and  C_12 
REMARK    3  A    between atoms: C_12  and  C_14 
ROOT
ATOM      1  C   UNL d   1      27.842 -11.612  -3.304  0.00  0.00     0.050 C 
ATOM      2  C   UNL d   1      27.784 -12.397  -2.025  0.00  0.00    -0.035 C 
ATOM      3  C   UNL d   1      28.884 -12.201  -1.185  0.00  0.00     0.010 C 
ATOM      4  C   UNL d   1      28.913 -12.710   0.101  0.00  0.00     0.017 C 
ATOM      5  C   UNL d   1      27.844 -13.458   0.587  0.00  0.00     0.034 C 
ATOM      6  C   UNL d   1      26.763 -13.746  -0.279  0.00  0.00     0.047 C 
ATOM      7  C   UNL d   1      26.749 -13.267  -1.615  0.00  0.00     0.042 C 
ENDROOT
BRANCH   7   8
ATOM      8  N   UNL d   1      25.692 -13.704  -2.469  0.00  0.00    -0.322 N 
ATOM      9  C   UNL d   1      25.279 -15.005  -2.735  0.00  0.00     0.256 C 
ATOM     10  O   UNL d   1      25.157 -15.391  -3.895  0.00  0.00    -0.267 OA
ATOM     11  H   UNL d   1      25.353 -13.027  -3.147  0.00  0.00     0.169 HD
BRANCH   9  12
ATOM     12  C   UNL d   1      24.945 -15.944  -1.598  0.00  0.00     0.035 C 
ATOM     13  C   UNL d   1      23.644 -16.483  -1.527  0.00  0.00     0.041 C 
ATOM     14  C   UNL d   1      23.394 -17.591  -0.704  0.00  0.00     0.036 C 
ATOM     15 CL   UNL d   1      21.812 -18.266  -0.623  0.00  0.00    -0.084 Cl
ATOM     16  C   UNL d   1      24.427 -18.211  -0.000  0.00  0.00     0.047 C 
ATOM     17  C   UNL d   1      25.708 -17.674  -0.069  0.00  0.00     0.036 C 
ATOM     18 CL   UNL d   1      27.040 -18.580   0.549  0.00  0.00    -0.084 Cl
ATOM     19  C   UNL d   1      25.958 -16.505  -0.797  0.00  0.00     0.041 C 
ENDBRANCH   9  12
ENDBRANCH   7   8
BRANCH   5  20
ATOM     20  C   UNL d   1      27.851 -13.965   1.999  0.00  0.00     0.249 C 
ATOM     21  N   UNL d   1      28.862 -14.825   2.372  0.00  0.00    -0.366 N 
ATOM     22  H   UNL d   1      29.609 -15.151   1.782  0.00  0.00     0.159 HD
ATOM     23  H   UNL d   1      28.863 -15.157   3.327  0.00  0.00     0.159 HD
ATOM     24  O   UNL d   1      27.001 -13.634   2.801  0.00  0.00    -0.268 OA
ENDBRANCH   5  20
TORSDOF 3
ENDMDL
MODEL 5
REMARK VINA RESULT:    -7.323      4.469      6.604
REMARK INTER + INTRA:          -9.042
REMARK INTER:                  -8.218
REMARK INTRA:                  -0.824
REMARK CONF_INDEPENDENT:        0.895
REMARK UNBOUND:                -0.824
REMARK  3 active torsions:
REMARK  status: ('A' for Active; 'I' for Inactive)
REMARK    1  A    between atoms: C_5  and  C_6 
REMARK       I    between atoms: C_6  and  N_7 
REMARK    2  A    between atoms: C_10  and  N_11 
REMARK       I    between atoms: N_11  and  C_12 
REMARK    3  A    between atoms: C_12  and  C_14 
ROOT
ATOM      1  C   UNL d   1      27.495 -11.965  -0.064  0.00  0.00     0.050 C 
ATOM      2  C   UNL d   1      27.859 -12.605   1.245  0.00  0.00    -0.035 C 
ATOM      3  C   UNL d   1      27.660 -11.783   2.357  0.00  0.00     0.010 C 
ATOM      4  C   UNL d   1      27.781 -12.267   3.647  0.00  0.00     0.017 C 
ATOM      5  C   UNL d   1      28.130 -13.597   3.870  0.00  0.00     0.034 C 
ATOM      6  C   UNL d   1      28.428 -14.420   2.759  0.00  0.00     0.047 C 
ATOM      7  C   UNL d   1      28.352 -13.915   1.435  0.00  0.00     0.042 C 
ENDROOT
BRANCH   7   8
ATOM      8  N   UNL d   1      28.791 -14.763   0.372  0.00  0.00    -0.322 N 
ATOM      9  C   UNL d   1      28.163 -15.888  -0.149  0.00  0.00     0.256 C 
ATOM     10  O   UNL d   1      28.780 -16.945  -0.264  0.00  0.00    -0.267 OA
ATOM     11  H   UNL d   1      29.773 -14.698   0.122  0.00  0.00     0.169 HD
BRANCH   9  12
ATOM     12  C   UNL d   1      26.724 -15.811  -0.608  0.00  0.00     0.035 C 
ATOM     13  C   UNL d   1      26.403 -14.958  -1.684  0.00  0.00     0.041 C 
ATOM     14  C   UNL d   1      25.174 -15.103  -2.345  0.00  0.00     0.036 C 
ATOM     15 CL   UNL d   1      24.781 -14.075  -3.670  0.00  0.00    -0.084 Cl
ATOM     16  C   UNL d   1      24.288 -16.122  -1.997  0.00  0.00     0.047 C 
ATOM     17  C   UNL d   1      24.605 -16.960  -0.933  0.00  0.00     0.036 C 
ATOM     18 CL   UNL d   1      23.675 -18.390  -0.675  0.00  0.00    -0.084 Cl
ATOM     19  C   UNL d   1      25.774 -16.764  -0.190  0.00  0.00     0.041 C 
ENDBRANCH   9  12
ENDBRANCH   7   8
BRANCH   5  20
ATOM     20  C   UNL d   1      28.209 -14.137   5.267  0.00  0.00     0.249 C 
ATOM     21  N   UNL d   1      28.795 -15.372   5.451  0.00  0.00    -0.366 N 
ATOM     22  H   UNL d   1      29.181 -15.957   4.730  0.00  0.00     0.159 HD
ATOM     23  H   UNL d   1      28.850 -15.726   6.396  0.00  0.00     0.159 HD
ATOM     24  O   UNL d   1      27.779 -13.516   6.218  0.00  0.00    -0.268 OA
ENDBRANCH   5  20
TORSDOF 3
ENDMDL
MODEL 6
REMARK VINA RESULT:    -7.322      3.499      6.226
REMARK INTER + INTRA:          -9.143
REMARK INTER:                  -8.217
REMARK INTRA:                  -0.926
REMARK CONF_INDEPENDENT:        0.895
REMARK UNBOUND:                -0.926
REMARK  3 active torsions:
REMARK  status: ('A' for Active; 'I' for Inactive)
REMARK    1  A    between atoms: C_5  and  C_6 
REMARK       I    between atoms: C_6  and  N_7 
REMARK    2  A    between atoms: C_10  and  N_11 
REMARK       I    between atoms: N_11  and  C_12 
REMARK    3  A    between atoms: C_12  and  C_14 
ROOT
ATOM      1  C   UNL d   1      27.171 -14.982  -5.360  0.00  0.00     0.050 C 
ATOM      2  C   UNL d   1      27.915 -15.511  -4.167  0.00  0.00    -0.035 C 
ATOM      3  C   UNL d   1      29.022 -16.300  -4.489  0.00  0.00     0.010 C 
ATOM      4  C   UNL d   1      29.914 -16.726  -3.521  0.00  0.00     0.017 C 
ATOM      5  C   UNL d   1      29.716 -16.392  -2.184  0.00  0.00     0.034 C 
ATOM      6  C   UNL d   1      28.551 -15.674  -1.826  0.00  0.00     0.047 C 
ATOM      7  C   UNL d   1      27.607 -15.276  -2.808  0.00  0.00     0.042 C 
ENDROOT
BRANCH   7   8
ATOM      8  N   UNL d   1      26.394 -14.670  -2.360  0.00  0.00    -0.322 N 
ATOM      9  C   UNL d   1      25.118 -15.220  -2.320  0.00  0.00     0.256 C 
ATOM     10  O   UNL d   1      24.169 -14.622  -2.822  0.00  0.00    -0.267 OA
ATOM     11  H   UNL d   1      26.398 -13.656  -2.289  0.00  0.00     0.169 HD
BRANCH   9  12
ATOM     12  C   UNL d   1      24.882 -16.543  -1.628  0.00  0.00     0.035 C 
ATOM     13  C   UNL d   1      25.836 -16.997  -0.693  0.00  0.00     0.041 C 
ATOM     14  C   UNL d   1      25.503 -18.028   0.197  0.00  0.00     0.036 C 
ATOM     15 CL   UNL d   1      26.655 -18.577   1.353  0.00  0.00    -0.084 Cl
ATOM     16  C   UNL d   1      24.219 -18.574   0.216  0.00  0.00     0.047 C 
ATOM     17  C   UNL d   1      23.282 -18.129  -0.711  0.00  0.00     0.036 C 
ATOM     18 CL   UNL d   1      21.626 -18.572  -0.520  0.00  0.00    -0.084 Cl
ATOM     19  C   UNL d   1      23.626 -17.178  -1.678  0.00  0.00     0.041 C 
ENDBRANCH   9  12
ENDBRANCH   7   8
BRANCH   5  20
ATOM     20  C   UNL d   1      30.711 -16.807  -1.141  0.00  0.00     0.249 C 
ATOM     21  N   UNL d   1      30.240 -17.455  -0.019  0.00  0.00    -0.366 N 
ATOM     22  H   UNL d   1      29.279 -17.681   0.174  0.00  0.00     0.159 HD
ATOM     23  H   UNL d   1      30.918 -17.736   0.677  0.00  0.00     0.159 HD
ATOM     24  O   UNL d   1      31.899 -16.590  -1.269  0.00  0.00    -0.268 OA
ENDBRANCH   5  20
TORSDOF 3
ENDMDL
MODEL 7
REMARK VINA RESULT:    -7.311      3.259      6.539
REMARK INTER + INTRA:          -9.004
REMARK INTER:                  -8.206
REMARK INTRA:                  -0.798
REMARK CONF_INDEPENDENT:        0.895
REMARK UNBOUND:                -0.798
REMARK  3 active torsions:
REMARK  status: ('A' for Active; 'I' for Inactive)
REMARK    1  A    between atoms: C_5  and  C_6 
REMARK       I    between atoms: C_6  and  N_7 
REMARK    2  A    between atoms: C_10  and  N_11 
REMARK       I    between atoms: N_11  and  C_12 
REMARK    3  A    between atoms: C_12  and  C_14 
ROOT
ATOM      1  C   UNL d   1      26.237 -10.485  -5.855  0.00  0.00     0.050 C 
ATOM      2  C   UNL d   1      26.765 -11.891  -5.828  0.00  0.00    -0.035 C 
ATOM      3  C   UNL d   1      27.799 -12.129  -6.736  0.00  0.00     0.010 C 
ATOM      4  C   UNL d   1      28.513 -13.314  -6.728  0.00  0.00     0.017 C 
ATOM      5  C   UNL d   1      28.200 -14.318  -5.815  0.00  0.00     0.034 C 
ATOM      6  C   UNL d   1      27.096 -14.134  -4.950  0.00  0.00     0.047 C 
ATOM      7  C   UNL d   1      26.329 -12.940  -4.988  0.00  0.00     0.042 C 
ENDROOT
BRANCH   7   8
ATOM      8  N   UNL d   1      25.154 -12.877  -4.179  0.00  0.00    -0.322 N 
ATOM      9  C   UNL d   1      24.498 -13.915  -3.528  0.00  0.00     0.256 C 
ATOM     10  O   UNL d   1      23.289 -14.075  -3.679  0.00  0.00    -0.267 OA
ATOM     11  H   UNL d   1      24.587 -12.039  -4.275  0.00  0.00     0.169 HD
BRANCH   9  12
ATOM     12  C   UNL d   1      25.262 -14.835  -2.603  0.00  0.00     0.035 C 
ATOM     13  C   UNL d   1      26.294 -14.293  -1.809  0.00  0.00     0.041 C 
ATOM     14  C   UNL d   1      26.792 -15.022  -0.720  0.00  0.00     0.036 C 
ATOM     15 CL   UNL d   1      28.041 -14.360   0.263  0.00  0.00    -0.084 Cl
ATOM     16  C   UNL d   1      26.239 -16.253  -0.368  0.00  0.00     0.047 C 
ATOM     17  C   UNL d   1      25.225 -16.789  -1.154  0.00  0.00     0.036 C 
ATOM     18 CL   UNL d   1      24.337 -18.152  -0.579  0.00  0.00    -0.084 Cl
ATOM     19  C   UNL d   1      24.787 -16.129  -2.308  0.00  0.00     0.041 C 
ENDBRANCH   9  12
ENDBRANCH   7   8
BRANCH   5  20
ATOM     20  C   UNL d   1      29.008 -15.581  -5.769  0.00  0.00     0.249 C 
ATOM     21  N   UNL d   1      29.716 -15.938  -6.897  0.00  0.00    -0.366 N 
ATOM     22  H   UNL d   1      29.746 -15.428  -7.763  0.00  0.00     0.159 HD
ATOM     23  H   UNL d   1      30.262 -16.788  -6.855  0.00  0.00     0.159 HD
ATOM     24  O   UNL d   1      29.050 -16.277  -4.774  0.00  0.00    -0.268 OA
ENDBRANCH   5  20
TORSDOF 3
ENDMDL
MODEL 8
REMARK VINA RESULT:    -7.293      2.849      3.633
REMARK INTER + INTRA:          -9.008
REMARK INTER:                  -8.188
REMARK INTRA:                  -0.820
REMARK CONF_INDEPENDENT:        0.895
REMARK UNBOUND:                -0.820
REMARK  3 active torsions:
REMARK  status: ('A' for Active; 'I' for Inactive)
REMARK    1  A    between atoms: C_5  and  C_6 
REMARK       I    between atoms: C_6  and  N_7 
REMARK    2  A    between atoms: C_10  and  N_11 
REMARK       I    between atoms: N_11  and  C_12 
REMARK    3  A    between atoms: C_12  and  C_14 
ROOT
ATOM      1  C   UNL d   1      26.901 -14.672  -2.043  0.00  0.00     0.050 C 
ATOM      2  C   UNL d   1      26.072 -15.727  -1.366  0.00  0.00    -0.035 C 
ATOM      3  C   UNL d   1      24.722 -15.708  -1.724  0.00  0.00     0.010 C 
ATOM      4  C   UNL d   1      23.853 -16.710  -1.330  0.00  0.00     0.017 C 
ATOM      5  C   UNL d   1      24.306 -17.762  -0.538  0.00  0.00     0.034 C 
ATOM      6  C   UNL d   1      25.647 -17.750  -0.087  0.00  0.00     0.047 C 
ATOM      7  C   UNL d   1      26.529 -16.699  -0.449  0.00  0.00     0.042 C 
ENDROOT
BRANCH   7   8
ATOM      8  N   UNL d   1      27.827 -16.684   0.147  0.00  0.00    -0.322 N 
ATOM      9  C   UNL d   1      28.553 -15.591   0.605  0.00  0.00     0.256 C 
ATOM     10  O   UNL d   1      29.713 -15.419   0.237  0.00  0.00    -0.267 OA
ATOM     11  H   UNL d   1      28.394 -17.515   0.009  0.00  0.00     0.169 HD
BRANCH   9  12
ATOM     12  C   UNL d   1      27.932 -14.623   1.586  0.00  0.00     0.035 C 
ATOM     13  C   UNL d   1      28.148 -14.825   2.965  0.00  0.00     0.041 C 
ATOM     14  C   UNL d   1      27.878 -13.790   3.872  0.00  0.00     0.036 C 
ATOM     15 CL   UNL d   1      28.155 -14.023   5.556  0.00  0.00    -0.084 Cl
ATOM     16  C   UNL d   1      27.458 -12.536   3.426  0.00  0.00     0.047 C 
ATOM     17  C   UNL d   1      27.241 -12.340   2.066  0.00  0.00     0.036 C 
ATOM     18 CL   UNL d   1      27.007 -10.739   1.468  0.00  0.00    -0.084 Cl
ATOM     19  C   UNL d   1      27.399 -13.391   1.156  0.00  0.00     0.041 C 
ENDBRANCH   9  12
ENDBRANCH   7   8
BRANCH   5  20
ATOM     20  C   UNL d   1      23.378 -18.877  -0.153  0.00  0.00     0.249 C 
ATOM     21  N   UNL d   1      22.289 -18.569   0.634  0.00  0.00    -0.366 N 
ATOM     22  H   UNL d   1      22.049 -17.657   0.983  0.00  0.00     0.159 HD
ATOM     23  H   UNL d   1      21.666 -19.325   0.884  0.00  0.00     0.159 HD
ATOM     24  O   UNL d   1      23.565 -20.019  -0.520  0.00  0.00    -0.268 OA
ENDBRANCH   5  20
TORSDOF 3
ENDMDL
MODEL 9
REMARK VINA RESULT:    -7.218      3.439      5.669
REMARK INTER + INTRA:          -9.204
REMARK INTER:                  -8.113
REMARK INTRA:                  -1.091
REMARK CONF_INDEPENDENT:        0.895
REMARK UNBOUND:                -1.091
REMARK  3 active torsions:
REMARK  status: ('A' for Active; 'I' for Inactive)
REMARK    1  A    between atoms: C_5  and  C_6 
REMARK       I    between atoms: C_6  and  N_7 
REMARK    2  A    between atoms: C_10  and  N_11 
REMARK       I    between atoms: N_11  and  C_12 
REMARK    3  A    between atoms: C_12  and  C_14 
ROOT
ATOM      1  C   UNL d   1      28.604 -14.639  -6.714  0.00  0.00     0.050 C 
ATOM      2  C   UNL d   1      28.773 -15.379  -5.418  0.00  0.00    -0.035 C 
ATOM      3  C   UNL d   1      29.760 -16.367  -5.450  0.00  0.00     0.010 C 
ATOM      4  C   UNL d   1      30.164 -17.025  -4.303  0.00  0.00     0.017 C 
ATOM      5  C   UNL d   1      29.573 -16.730  -3.076  0.00  0.00     0.034 C 
ATOM      6  C   UNL d   1      28.508 -15.800  -3.038  0.00  0.00     0.047 C 
ATOM      7  C   UNL d   1      28.056 -15.158  -4.220  0.00  0.00     0.042 C 
ENDROOT
BRANCH   7   8
ATOM      8  N   UNL d   1      26.895 -14.332  -4.128  0.00  0.00    -0.322 N 
ATOM      9  C   UNL d   1      25.647 -14.653  -3.606  0.00  0.00     0.256 C 
ATOM     10  O   UNL d   1      24.630 -14.450  -4.265  0.00  0.00    -0.267 OA
ATOM     11  H   UNL d   1      26.885 -13.504  -4.717  0.00  0.00     0.169 HD
BRANCH   9  12
ATOM     12  C   UNL d   1      25.531 -15.223  -2.211  0.00  0.00     0.035 C 
ATOM     13  C   UNL d   1      24.773 -16.398  -2.022  0.00  0.00     0.041 C 
ATOM     14  C   UNL d   1      24.910 -17.131  -0.834  0.00  0.00     0.036 C 
ATOM     15 CL   UNL d   1      24.002 -18.575  -0.602  0.00  0.00    -0.084 Cl
ATOM     16  C   UNL d   1      25.834 -16.753   0.141  0.00  0.00     0.047 C 
ATOM     17  C   UNL d   1      26.577 -15.591  -0.046  0.00  0.00     0.036 C 
ATOM     18 CL   UNL d   1      27.914 -15.265   0.993  0.00  0.00    -0.084 Cl
ATOM     19  C   UNL d   1      26.377 -14.786  -1.173  0.00  0.00     0.041 C 
ENDBRANCH   9  12
ENDBRANCH   7   8
BRANCH   5  20
ATOM     20  C   UNL d   1      30.047 -17.405  -1.823  0.00  0.00     0.249 C 
ATOM     21  N   UNL d   1      29.105 -17.744  -0.875  0.00  0.00    -0.366 N 
ATOM     22  H   UNL d   1      28.114 -17.582  -0.941  0.00  0.00     0.159 HD
ATOM     23  H   UNL d   1      29.432 -18.204  -0.036  0.00  0.00     0.159 HD
ATOM     24  O   UNL d   1      31.221 -17.655  -1.636  0.00  0.00    -0.268 OA
ENDBRANCH   5  20
TORSDOF 3
ENDMDL
