MODEL 1
REMARK VINA RESULT:    -7.166      0.000      0.000
REMARK INTER + INTRA:         -11.963
REMARK INTER:                 -10.149
REMARK INTRA:                  -1.814
REMARK CONF_INDEPENDENT:        2.983
REMARK UNBOUND:                -1.814
REMARK  10 active torsions:
REMARK  status: ('A' for Active; 'I' for Inactive)
REMARK    1  A    between atoms: C_2  and  O_3 
REMARK    2  A    between atoms: O_3  and  C_4 
REMARK    3  A    between atoms: C_9  and  N_10 
REMARK       I    between atoms: N_10  and  C_11 
REMARK       I    between atoms: C_11  and  N_13 
REMARK    4  A    between atoms: N_13  and  C_14 
REMARK    5  A    between atoms: C_15  and  C_14 
REMARK    6  A    between atoms: C_15  and  C_17 
REMARK    7  A    between atoms: C_15  and  O_16 
REMARK    8  A    between atoms: C_17  and  O_18 
REMARK    9  A    between atoms: O_18  and  C_19 
REMARK   10  A    between atoms: C_22  and  N_23 
ROOT
ATOM      1  N   UNL d   1      24.779 -14.581  -2.483  0.00  0.00    -0.306 N 
ATOM      2  C   UNL d   1      25.128 -14.303  -3.801  0.00  0.00     0.320 C 
ATOM      3  O   UNL d   1      25.529 -15.139  -4.608  0.00  0.00    -0.247 OA
ATOM      4  N   UNL d   1      25.200 -12.944  -4.064  0.00  0.00    -0.340 N 
ATOM      5  H   UNL d   1      23.971 -14.105  -2.111  0.00  0.00     0.171 HD
ATOM      6  H   UNL d   1      24.382 -12.411  -3.813  0.00  0.00     0.164 HD
ENDROOT
BRANCH   4   7
ATOM      7  C   UNL d   1      26.082 -12.387  -5.111  0.00  0.00     0.158 C 
BRANCH   7   8
ATOM      8  C   UNL d   1      26.316 -10.860  -5.179  0.00  0.00     0.160 C 
BRANCH   8   9
ATOM      9  C   UNL d   1      25.724 -10.122  -3.989  0.00  0.00     0.209 C 
BRANCH   9  10
ATOM     10  O   UNL d   1      26.819  -9.558  -3.266  0.00  0.00    -0.349 OA
BRANCH  10  11
ATOM     11  C   UNL d   1      26.588  -9.209  -1.977  0.00  0.00     0.069 A 
ATOM     12  C   UNL d   1      25.624  -8.217  -1.766  0.00  0.00     0.039 A 
ATOM     13  C   UNL d   1      25.440  -7.688  -0.490  0.00  0.00     0.039 A 
ATOM     14  C   UNL d   1      26.179  -8.213   0.576  0.00  0.00     0.103 A 
ATOM     15  C   UNL d   1      27.146  -9.204   0.359  0.00  0.00     0.039 A 
ATOM     16  C   UNL d   1      27.351  -9.696  -0.925  0.00  0.00     0.039 A 
BRANCH  14  17
ATOM     17  N   UNL d   1      25.904  -7.765   1.943  0.00  0.00    -0.116 N 
ATOM     18  O   UNL d   1      25.532  -6.595   2.100  0.00  0.00    -0.532 OA
ATOM     19  O   UNL d   1      26.029  -8.595   2.855  0.00  0.00    -0.532 OA
ENDBRANCH  14  17
ENDBRANCH  10  11
ENDBRANCH   9  10
ENDBRANCH   8   9
BRANCH   8  20
ATOM     20  O   UNL d   1      27.715 -10.548  -5.284  0.00  0.00    -0.392 OA
ATOM     21  H   UNL d   1      27.993 -10.062  -4.489  0.00  0.00     0.210 HD
ENDBRANCH   8  20
ENDBRANCH   7   8
ENDBRANCH   4   7
BRANCH   1  22
ATOM     22  C   UNL d   1      25.300 -15.677  -1.717  0.00  0.00     0.069 A 
ATOM     23  C   UNL d   1      26.707 -15.823  -1.648  0.00  0.00     0.032 A 
ATOM     24  C   UNL d   1      27.311 -16.820  -0.857  0.00  0.00     0.002 A 
ATOM     25  C   UNL d   1      26.525 -17.699  -0.126  0.00  0.00     0.003 A 
ATOM     26  C   UNL d   1      25.140 -17.629  -0.255  0.00  0.00     0.039 A 
ATOM     27  C   UNL d   1      24.518 -16.643  -1.050  0.00  0.00     0.095 A 
BRANCH  27  28
ATOM     28  O   UNL d   1      23.154 -16.740  -1.006  0.00  0.00    -0.349 OA
BRANCH  28  29
ATOM     29  C   UNL d   1      22.557 -17.701  -0.142  0.00  0.00     0.171 C 
ATOM     30  C   UNL d   1      21.670 -18.595  -1.003  0.00  0.00     0.034 C 
ENDBRANCH  28  29
ENDBRANCH  27  28
ENDBRANCH   1  22
TORSDOF 10
ENDMDL
MODEL 2
REMARK VINA RESULT:    -7.100      6.736     10.415
REMARK INTER + INTRA:         -11.781
REMARK INTER:                 -10.083
REMARK INTRA:                  -1.698
REMARK CONF_INDEPENDENT:        2.983
REMARK UNBOUND:                -1.698
REMARK  10 active torsions:
REMARK  status: ('A' for Active; 'I' for Inactive)
REMARK    1  A    between atoms: C_2  and  O_3 
REMARK    2  A    between atoms: O_3  and  C_4 
REMARK    3  A    between atoms: C_9  and  N_10 
REMARK       I    between atoms: N_10  and  C_11 
REMARK       I    between atoms: C_11  and  N_13 
REMARK    4  A    between atoms: N_13  and  C_14 
REMARK    5  A    between atoms: C_15  and  C_14 
REMARK    6  A    between atoms: C_15  and  C_17 
REMARK    7  A    between atoms: C_15  and  O_16 
REMARK    8  A    between atoms: C_17  and  O_18 
REMARK    9  A    between atoms: O_18  and  C_19 
REMARK   10  A    between atoms: C_22  and  N_23 
ROOT
ATOM      1  N   UNL d   1      27.812 -16.903   0.026  0.00  0.00    -0.306 N 
ATOM      2  C   UNL d   1      28.937 -16.883  -0.793  0.00  0.00     0.320 C 
ATOM      3  O   UNL d   1      28.926 -16.592  -1.987  0.00  0.00    -0.247 OA
ATOM      4  N   UNL d   1      30.052 -17.446  -0.192  0.00  0.00    -0.340 N 
ATOM      5  H   UNL d   1      27.921 -16.554   0.967  0.00  0.00     0.171 HD
ATOM      6  H   UNL d   1      30.288 -17.073   0.715  0.00  0.00     0.164 HD
ENDROOT
BRANCH   4   7
ATOM      7  C   UNL d   1      31.134 -18.083  -0.971  0.00  0.00     0.158 C 
BRANCH   7   8
ATOM      8  C   UNL d   1      31.656 -19.477  -0.553  0.00  0.00     0.160 C 
BRANCH   8   9
ATOM      9  C   UNL d   1      32.449 -19.443   0.744  0.00  0.00     0.209 C 
BRANCH   9  10
ATOM     10  O   UNL d   1      32.598 -20.797   1.174  0.00  0.00    -0.349 OA
BRANCH  10  11
ATOM     11  C   UNL d   1      32.419 -21.044   2.494  0.00  0.00     0.069 A 
ATOM     12  C   UNL d   1      31.116 -21.357   2.895  0.00  0.00     0.039 A 
ATOM     13  C   UNL d   1      30.814 -21.468   4.251  0.00  0.00     0.039 A 
ATOM     14  C   UNL d   1      31.844 -21.331   5.189  0.00  0.00     0.103 A 
ATOM     15  C   UNL d   1      33.147 -21.013   4.783  0.00  0.00     0.039 A 
ATOM     16  C   UNL d   1      33.429 -20.865   3.430  0.00  0.00     0.039 A 
BRANCH  14  17
ATOM     17  N   UNL d   1      31.574 -21.575   6.607  0.00  0.00    -0.116 N 
ATOM     18  O   UNL d   1      30.405 -21.455   6.999  0.00  0.00    -0.532 OA
ATOM     19  O   UNL d   1      32.526 -21.921   7.322  0.00  0.00    -0.532 OA
ENDBRANCH  14  17
ENDBRANCH  10  11
ENDBRANCH   9  10
ENDBRANCH   8   9
BRANCH   8  20
ATOM     20  O   UNL d   1      30.581 -20.424  -0.429  0.00  0.00    -0.392 OA
ATOM     21  H   UNL d   1      30.449 -20.634   0.512  0.00  0.00     0.210 HD
ENDBRANCH   8  20
ENDBRANCH   7   8
ENDBRANCH   4   7
BRANCH   1  22
ATOM     22  C   UNL d   1      26.471 -17.118  -0.438  0.00  0.00     0.069 A 
ATOM     23  C   UNL d   1      25.780 -18.254   0.046  0.00  0.00     0.032 A 
ATOM     24  C   UNL d   1      24.435 -18.505  -0.291  0.00  0.00     0.002 A 
ATOM     25  C   UNL d   1      23.755 -17.632  -1.128  0.00  0.00     0.003 A 
ATOM     26  C   UNL d   1      24.446 -16.560  -1.687  0.00  0.00     0.039 A 
ATOM     27  C   UNL d   1      25.795 -16.300  -1.368  0.00  0.00     0.095 A 
BRANCH  27  28
ATOM     28  O   UNL d   1      26.263 -15.183  -2.005  0.00  0.00    -0.349 OA
BRANCH  28  29
ATOM     29  C   UNL d   1      25.382 -14.449  -2.850  0.00  0.00     0.171 C 
ATOM     30  C   UNL d   1      25.796 -14.734  -4.290  0.00  0.00     0.034 C 
ENDBRANCH  28  29
ENDBRANCH  27  28
ENDBRANCH   1  22
TORSDOF 10
ENDMDL
MODEL 3
REMARK VINA RESULT:    -6.889      4.450      8.652
REMARK INTER + INTRA:         -11.823
REMARK INTER:                  -9.872
REMARK INTRA:                  -1.951
REMARK CONF_INDEPENDENT:        2.983
REMARK UNBOUND:                -1.951
REMARK  10 active torsions:
REMARK  status: ('A' for Active; 'I' for Inactive)
REMARK    1  A    between atoms: C_2  and  O_3 
REMARK    2  A    between atoms: O_3  and  C_4 
REMARK    3  A    between atoms: C_9  and  N_10 
REMARK       I    between atoms: N_10  and  C_11 
REMARK       I    between atoms: C_11  and  N_13 
REMARK    4  A    between atoms: N_13  and  C_14 
REMARK    5  A    between atoms: C_15  and  C_14 
REMARK    6  A    between atoms: C_15  and  C_17 
REMARK    7  A    between atoms: C_15  and  O_16 
REMARK    8  A    between atoms: C_17  and  O_18 
REMARK    9  A    between atoms: O_18  and  C_19 
REMARK   10  A    between atoms: C_22  and  N_23 
ROOT
ATOM      1  N   UNL d   1      28.941 -14.856   1.531  0.00  0.00    -0.306 N 
ATOM      2  C   UNL d   1      29.054 -15.298   0.217  0.00  0.00     0.320 C 
ATOM      3  O   UNL d   1      29.159 -14.561  -0.762  0.00  0.00    -0.247 OA
ATOM      4  N   UNL d   1      28.808 -16.656   0.082  0.00  0.00    -0.340 N 
ATOM      5  H   UNL d   1      29.440 -15.377   2.237  0.00  0.00     0.171 HD
ATOM      6  H   UNL d   1      29.349 -17.255   0.688  0.00  0.00     0.164 HD
ENDROOT
BRANCH   4   7
ATOM      7  C   UNL d   1      28.280 -17.244  -1.166  0.00  0.00     0.158 C 
BRANCH   7   8
ATOM      8  C   UNL d   1      26.992 -16.667  -1.798  0.00  0.00     0.160 C 
BRANCH   8   9
ATOM      9  C   UNL d   1      26.070 -16.030  -0.771  0.00  0.00     0.209 C 
BRANCH   9  10
ATOM     10  O   UNL d   1      25.556 -17.091   0.037  0.00  0.00    -0.349 OA
BRANCH  10  11
ATOM     11  C   UNL d   1      24.276 -17.472  -0.194  0.00  0.00     0.069 A 
ATOM     12  C   UNL d   1      24.032 -18.850  -0.197  0.00  0.00     0.039 A 
ATOM     13  C   UNL d   1      22.783 -19.333  -0.582  0.00  0.00     0.039 A 
ATOM     14  C   UNL d   1      21.769 -18.419  -0.895  0.00  0.00     0.103 A 
ATOM     15  C   UNL d   1      22.020 -17.041  -0.895  0.00  0.00     0.039 A 
ATOM     16  C   UNL d   1      23.282 -16.571  -0.548  0.00  0.00     0.039 A 
BRANCH  14  17
ATOM     17  N   UNL d   1      20.415 -18.903  -1.172  0.00  0.00    -0.116 N 
ATOM     18  O   UNL d   1      20.300 -20.004  -1.726  0.00  0.00    -0.532 OA
ATOM     19  O   UNL d   1      19.466 -18.194  -0.805  0.00  0.00    -0.532 OA
ENDBRANCH  14  17
ENDBRANCH  10  11
ENDBRANCH   9  10
ENDBRANCH   8   9
BRANCH   8  20
ATOM     20  O   UNL d   1      27.297 -15.708  -2.824  0.00  0.00    -0.392 OA
ATOM     21  H   UNL d   1      27.875 -15.019  -2.454  0.00  0.00     0.210 HD
ENDBRANCH   8  20
ENDBRANCH   7   8
ENDBRANCH   4   7
BRANCH   1  22
ATOM     22  C   UNL d   1      28.409 -13.579   1.917  0.00  0.00     0.069 A 
ATOM     23  C   UNL d   1      27.608 -12.888   0.978  0.00  0.00     0.032 A 
ATOM     24  C   UNL d   1      26.979 -11.667   1.295  0.00  0.00     0.002 A 
ATOM     25  C   UNL d   1      27.145 -11.107   2.553  0.00  0.00     0.003 A 
ATOM     26  C   UNL d   1      28.005 -11.725   3.457  0.00  0.00     0.039 A 
ATOM     27  C   UNL d   1      28.650 -12.943   3.153  0.00  0.00     0.095 A 
BRANCH  27  28
ATOM     28  O   UNL d   1      29.419 -13.385   4.194  0.00  0.00    -0.349 OA
BRANCH  28  29
ATOM     29  C   UNL d   1      29.357 -14.758   4.565  0.00  0.00     0.171 C 
ATOM     30  C   UNL d   1      28.581 -14.838   5.877  0.00  0.00     0.034 C 
ENDBRANCH  28  29
ENDBRANCH  27  28
ENDBRANCH   1  22
TORSDOF 10
ENDMDL
MODEL 4
REMARK VINA RESULT:    -6.683      3.056      4.735
REMARK INTER + INTRA:         -12.323
REMARK INTER:                  -9.666
REMARK INTRA:                  -2.657
REMARK CONF_INDEPENDENT:        2.983
REMARK UNBOUND:                -2.657
REMARK  10 active torsions:
REMARK  status: ('A' for Active; 'I' for Inactive)
REMARK    1  A    between atoms: C_2  and  O_3 
REMARK    2  A    between atoms: O_3  and  C_4 
REMARK    3  A    between atoms: C_9  and  N_10 
REMARK       I    between atoms: N_10  and  C_11 
REMARK       I    between atoms: C_11  and  N_13 
REMARK    4  A    between atoms: N_13  and  C_14 
REMARK    5  A    between atoms: C_15  and  C_14 
REMARK    6  A    between atoms: C_15  and  C_17 
REMARK    7  A    between atoms: C_15  and  O_16 
REMARK    8  A    between atoms: C_17  and  O_18 
REMARK    9  A    between atoms: O_18  and  C_19 
REMARK   10  A    between atoms: C_22  and  N_23 
ROOT
ATOM      1  N   UNL d   1      26.806 -17.738   0.079  0.00  0.00    -0.306 N 
ATOM      2  C   UNL d   1      27.684 -16.687   0.324  0.00  0.00     0.320 C 
ATOM      3  O   UNL d   1      27.343 -15.565   0.695  0.00  0.00    -0.247 OA
ATOM      4  N   UNL d   1      28.974 -16.950  -0.109  0.00  0.00    -0.340 N 
ATOM      5  H   UNL d   1      27.097 -18.659   0.372  0.00  0.00     0.171 HD
ATOM      6  H   UNL d   1      29.376 -17.811   0.229  0.00  0.00     0.164 HD
ENDROOT
BRANCH   4   7
ATOM      7  C   UNL d   1      29.904 -15.878  -0.521  0.00  0.00     0.158 C 
BRANCH   7   8
ATOM      8  C   UNL d   1      30.103 -14.646   0.393  0.00  0.00     0.160 C 
BRANCH   8   9
ATOM      9  C   UNL d   1      29.137 -13.517   0.074  0.00  0.00     0.209 C 
BRANCH   9  10
ATOM     10  O   UNL d   1      28.363 -13.289   1.253  0.00  0.00    -0.349 OA
BRANCH  10  11
ATOM     11  C   UNL d   1      27.872 -12.038   1.432  0.00  0.00     0.069 A 
ATOM     12  C   UNL d   1      27.349 -11.754   2.698  0.00  0.00     0.039 A 
ATOM     13  C   UNL d   1      26.682 -10.551   2.919  0.00  0.00     0.039 A 
ATOM     14  C   UNL d   1      26.608  -9.614   1.881  0.00  0.00     0.103 A 
ATOM     15  C   UNL d   1      27.131  -9.906   0.613  0.00  0.00     0.039 A 
ATOM     16  C   UNL d   1      27.758 -11.126   0.392  0.00  0.00     0.039 A 
BRANCH  14  17
ATOM     17  N   UNL d   1      26.030  -8.293   2.132  0.00  0.00    -0.116 N 
ATOM     18  O   UNL d   1      25.155  -7.890   1.355  0.00  0.00    -0.532 OA
ATOM     19  O   UNL d   1      26.429  -7.672   3.129  0.00  0.00    -0.532 OA
ENDBRANCH  14  17
ENDBRANCH  10  11
ENDBRANCH   9  10
ENDBRANCH   8   9
BRANCH   8  20
ATOM     20  O   UNL d   1      29.980 -15.000   1.782  0.00  0.00    -0.392 OA
ATOM     21  H   UNL d   1      29.054 -15.228   1.971  0.00  0.00     0.210 HD
ENDBRANCH   8  20
ENDBRANCH   7   8
ENDBRANCH   4   7
BRANCH   1  22
ATOM     22  C   UNL d   1      25.430 -17.579  -0.299  0.00  0.00     0.069 A 
ATOM     23  C   UNL d   1      24.564 -18.682  -0.111  0.00  0.00     0.032 A 
ATOM     24  C   UNL d   1      23.183 -18.595  -0.379  0.00  0.00     0.002 A 
ATOM     25  C   UNL d   1      22.640 -17.408  -0.850  0.00  0.00     0.003 A 
ATOM     26  C   UNL d   1      23.492 -16.342  -1.129  0.00  0.00     0.039 A 
ATOM     27  C   UNL d   1      24.878 -16.416  -0.875  0.00  0.00     0.095 A 
BRANCH  27  28
ATOM     28  O   UNL d   1      25.516 -15.248  -1.193  0.00  0.00    -0.349 OA
BRANCH  28  29
ATOM     29  C   UNL d   1      25.941 -15.034  -2.535  0.00  0.00     0.171 C 
ATOM     30  C   UNL d   1      24.872 -14.186  -3.218  0.00  0.00     0.034 C 
ENDBRANCH  28  29
ENDBRANCH  27  28
ENDBRANCH   1  22
TORSDOF 10
ENDMDL
MODEL 5
REMARK VINA RESULT:    -6.514      4.238      8.775
REMARK INTER + INTRA:         -12.194
REMARK INTER:                  -9.497
REMARK INTRA:                  -2.697
REMARK CONF_INDEPENDENT:        2.983
REMARK UNBOUND:                -2.697
REMARK  10 active torsions:
REMARK  status: ('A' for Active; 'I' for Inactive)
REMARK    1  A    between atoms: C_2  and  O_3 
REMARK    2  A    between atoms: O_3  and  C_4 
REMARK    3  A    between atoms: C_9  and  N_10 
REMARK       I    between atoms: N_10  and  C_11 
REMARK       I    between atoms: C_11  and  N_13 
REMARK    4  A    between atoms: N_13  and  C_14 
REMARK    5  A    between atoms: C_15  and  C_14 
REMARK    6  A    between atoms: C_15  and  C_17 
REMARK    7  A    between atoms: C_15  and  O_16 
REMARK    8  A    between atoms: C_17  and  O_18 
REMARK    9  A    between atoms: O_18  and  C_19 
REMARK   10  A    between atoms: C_22  and  N_23 
ROOT
ATOM      1  N   UNL d   1      29.021 -13.817   2.012  0.00  0.00    -0.306 N 
ATOM      2  C   UNL d   1      28.390 -14.752   1.200  0.00  0.00     0.320 C 
ATOM      3  O   UNL d   1      27.275 -15.225   1.415  0.00  0.00    -0.247 OA
ATOM      4  N   UNL d   1      29.230 -15.283   0.234  0.00  0.00    -0.340 N 
ATOM      5  H   UNL d   1      29.540 -13.083   1.553  0.00  0.00     0.171 HD
ATOM      6  H   UNL d   1      29.709 -14.606  -0.341  0.00  0.00     0.164 HD
ENDROOT
BRANCH   4   7
ATOM      7  C   UNL d   1      29.039 -16.638  -0.323  0.00  0.00     0.158 C 
BRANCH   7   8
ATOM      8  C   UNL d   1      27.691 -17.008  -0.985  0.00  0.00     0.160 C 
BRANCH   8   9
ATOM      9  C   UNL d   1      26.801 -17.841  -0.076  0.00  0.00     0.209 C 
BRANCH   9  10
ATOM     10  O   UNL d   1      25.658 -17.040   0.229  0.00  0.00    -0.349 OA
BRANCH  10  11
ATOM     11  C   UNL d   1      24.456 -17.502  -0.194  0.00  0.00     0.069 A 
ATOM     12  C   UNL d   1      23.505 -16.534  -0.534  0.00  0.00     0.039 A 
ATOM     13  C   UNL d   1      22.197 -16.916  -0.824  0.00  0.00     0.039 A 
ATOM     14  C   UNL d   1      21.875 -18.279  -0.836  0.00  0.00     0.103 A 
ATOM     15  C   UNL d   1      22.830 -19.245  -0.491  0.00  0.00     0.039 A 
ATOM     16  C   UNL d   1      24.122 -18.849  -0.164  0.00  0.00     0.039 A 
BRANCH  14  17
ATOM     17  N   UNL d   1      20.544 -18.708  -1.268  0.00  0.00    -0.116 N 
ATOM     18  O   UNL d   1      19.573 -18.035  -0.895  0.00  0.00    -0.532 OA
ATOM     19  O   UNL d   1      20.472 -19.699  -2.009  0.00  0.00    -0.532 OA
ENDBRANCH  14  17
ENDBRANCH  10  11
ENDBRANCH   9  10
ENDBRANCH   8   9
BRANCH   8  20
ATOM     20  O   UNL d   1      26.976 -15.835  -1.408  0.00  0.00    -0.392 OA
ATOM     21  H   UNL d   1      26.667 -15.351  -0.623  0.00  0.00     0.210 HD
ENDBRANCH   8  20
ENDBRANCH   7   8
ENDBRANCH   4   7
BRANCH   1  22
ATOM     22  C   UNL d   1      28.770 -13.656   3.417  0.00  0.00     0.069 A 
ATOM     23  C   UNL d   1      29.440 -14.526   4.310  0.00  0.00     0.032 A 
ATOM     24  C   UNL d   1      29.316 -14.393   5.708  0.00  0.00     0.002 A 
ATOM     25  C   UNL d   1      28.514 -13.395   6.242  0.00  0.00     0.003 A 
ATOM     26  C   UNL d   1      27.776 -12.590   5.379  0.00  0.00     0.039 A 
ATOM     27  C   UNL d   1      27.880 -12.716   3.977  0.00  0.00     0.095 A 
BRANCH  27  28
ATOM     28  O   UNL d   1      27.093 -11.807   3.325  0.00  0.00    -0.349 OA
BRANCH  28  29
ATOM     29  C   UNL d   1      27.628 -11.105   2.207  0.00  0.00     0.171 C 
ATOM     30  C   UNL d   1      27.023 -11.726   0.952  0.00  0.00     0.034 C 
ENDBRANCH  28  29
ENDBRANCH  27  28
ENDBRANCH   1  22
TORSDOF 10
ENDMDL
MODEL 6
REMARK VINA RESULT:    -6.125      4.753      7.996
REMARK INTER + INTRA:         -11.794
REMARK INTER:                  -9.108
REMARK INTRA:                  -2.686
REMARK CONF_INDEPENDENT:        2.983
REMARK UNBOUND:                -2.686
REMARK  10 active torsions:
REMARK  status: ('A' for Active; 'I' for Inactive)
REMARK    1  A    between atoms: C_2  and  O_3 
REMARK    2  A    between atoms: O_3  and  C_4 
REMARK    3  A    between atoms: C_9  and  N_10 
REMARK       I    between atoms: N_10  and  C_11 
REMARK       I    between atoms: C_11  and  N_13 
REMARK    4  A    between atoms: N_13  and  C_14 
REMARK    5  A    between atoms: C_15  and  C_14 
REMARK    6  A    between atoms: C_15  and  C_17 
REMARK    7  A    between atoms: C_15  and  O_16 
REMARK    8  A    between atoms: C_17  and  O_18 
REMARK    9  A    between atoms: O_18  and  C_19 
REMARK   10  A    between atoms: C_22  and  N_23 
ROOT
ATOM      1  N   UNL d   1      25.636 -14.841  -1.806  0.00  0.00    -0.306 N 
ATOM      2  C   UNL d   1      25.556 -14.662  -3.183  0.00  0.00     0.320 C 
ATOM      3  O   UNL d   1      25.233 -15.538  -3.984  0.00  0.00    -0.247 OA
ATOM      4  N   UNL d   1      26.097 -13.457  -3.603  0.00  0.00    -0.340 N 
ATOM      5  H   UNL d   1      25.309 -14.085  -1.223  0.00  0.00     0.171 HD
ATOM      6  H   UNL d   1      25.741 -12.637  -3.135  0.00  0.00     0.164 HD
ENDROOT
BRANCH   4   7
ATOM      7  C   UNL d   1      26.676 -13.276  -4.950  0.00  0.00     0.158 C 
BRANCH   7   8
ATOM      8  C   UNL d   1      27.673 -14.322  -5.500  0.00  0.00     0.160 C 
BRANCH   8   9
ATOM      9  C   UNL d   1      28.849 -14.558  -4.567  0.00  0.00     0.209 C 
BRANCH   9  10
ATOM     10  O   UNL d   1      28.899 -15.963  -4.311  0.00  0.00    -0.349 OA
BRANCH  10  11
ATOM     11  C   UNL d   1      29.709 -16.702  -5.108  0.00  0.00     0.069 A 
ATOM     12  C   UNL d   1      30.080 -16.121  -6.325  0.00  0.00     0.039 A 
ATOM     13  C   UNL d   1      30.775 -16.871  -7.270  0.00  0.00     0.039 A 
ATOM     14  C   UNL d   1      31.152 -18.182  -6.953  0.00  0.00     0.103 A 
ATOM     15  C   UNL d   1      30.774 -18.762  -5.734  0.00  0.00     0.039 A 
ATOM     16  C   UNL d   1      30.045 -18.017  -4.815  0.00  0.00     0.039 A 
BRANCH  14  17
ATOM     17  N   UNL d   1      31.997 -18.940  -7.877  0.00  0.00    -0.116 N 
ATOM     18  O   UNL d   1      31.477 -19.361  -8.919  0.00  0.00    -0.532 OA
ATOM     19  O   UNL d   1      33.191 -19.085  -7.576  0.00  0.00    -0.532 OA
ENDBRANCH  14  17
ENDBRANCH  10  11
ENDBRANCH   9  10
ENDBRANCH   8   9
BRANCH   8  20
ATOM     20  O   UNL d   1      27.021 -15.574  -5.771  0.00  0.00    -0.392 OA
ATOM     21  H   UNL d   1      26.811 -16.013  -4.928  0.00  0.00     0.210 HD
ENDBRANCH   8  20
ENDBRANCH   7   8
ENDBRANCH   4   7
BRANCH   1  22
ATOM     22  C   UNL d   1      25.884 -16.100  -1.162  0.00  0.00     0.069 A 
ATOM     23  C   UNL d   1      27.221 -16.415  -0.824  0.00  0.00     0.032 A 
ATOM     24  C   UNL d   1      27.552 -17.591  -0.120  0.00  0.00     0.002 A 
ATOM     25  C   UNL d   1      26.555 -18.481   0.252  0.00  0.00     0.003 A 
ATOM     26  C   UNL d   1      25.246 -18.232  -0.153  0.00  0.00     0.039 A 
ATOM     27  C   UNL d   1      24.899 -17.065  -0.866  0.00  0.00     0.095 A 
BRANCH  27  28
ATOM     28  O   UNL d   1      23.558 -17.011  -1.133  0.00  0.00    -0.349 OA
BRANCH  28  29
ATOM     29  C   UNL d   1      22.643 -17.553  -0.186  0.00  0.00     0.171 C 
ATOM     30  C   UNL d   1      21.871 -18.666  -0.889  0.00  0.00     0.034 C 
ENDBRANCH  28  29
ENDBRANCH  27  28
ENDBRANCH   1  22
TORSDOF 10
ENDMDL
MODEL 7
REMARK VINA RESULT:    -5.931      1.626      2.771
REMARK INTER + INTRA:         -12.110
REMARK INTER:                  -8.914
REMARK INTRA:                  -3.196
REMARK CONF_INDEPENDENT:        2.983
REMARK UNBOUND:                -3.196
REMARK  10 active torsions:
REMARK  status: ('A' for Active; 'I' for Inactive)
REMARK    1  A    between atoms: C_2  and  O_3 
REMARK    2  A    between atoms: O_3  and  C_4 
REMARK    3  A    between atoms: C_9  and  N_10 
REMARK       I    between atoms: N_10  and  C_11 
REMARK       I    between atoms: C_11  and  N_13 
REMARK    4  A    between atoms: N_13  and  C_14 
REMARK    5  A    between atoms: C_15  and  C_14 
REMARK    6  A    between atoms: C_15  and  C_17 
REMARK    7  A    between atoms: C_15  and  O_16 
REMARK    8  A    between atoms: C_17  and  O_18 
REMARK    9  A    between atoms: O_18  and  C_19 
REMARK   10  A    between atoms: C_22  and  N_23 
ROOT
ATOM      1  N   UNL d   1      24.256 -14.686  -2.567  0.00  0.00    -0.306 N 
ATOM      2  C   UNL d   1      25.006 -14.407  -3.704  0.00  0.00     0.320 C 
ATOM      3  O   UNL d   1      25.598 -15.250  -4.375  0.00  0.00    -0.247 OA
ATOM      4  N   UNL d   1      25.219 -13.050  -3.890  0.00  0.00    -0.340 N 
ATOM      5  H   UNL d   1      23.394 -14.174  -2.446  0.00  0.00     0.171 HD
ATOM      6  H   UNL d   1      24.388 -12.478  -3.885  0.00  0.00     0.164 HD
ENDROOT
BRANCH   4   7
ATOM      7  C   UNL d   1      26.405 -12.524  -4.597  0.00  0.00     0.158 C 
BRANCH   7   8
ATOM      8  C   UNL d   1      27.794 -12.608  -3.924  0.00  0.00     0.160 C 
BRANCH   8   9
ATOM      9  C   UNL d   1      28.081 -11.421  -3.019  0.00  0.00     0.209 C 
BRANCH   9  10
ATOM     10  O   UNL d   1      27.736 -11.819  -1.692  0.00  0.00    -0.349 OA
BRANCH  10  11
ATOM     11  C   UNL d   1      27.409 -10.833  -0.821  0.00  0.00     0.069 A 
ATOM     12  C   UNL d   1      27.227 -11.218   0.511  0.00  0.00     0.039 A 
ATOM     13  C   UNL d   1      26.736 -10.301   1.438  0.00  0.00     0.039 A 
ATOM     14  C   UNL d   1      26.498  -8.983   1.030  0.00  0.00     0.103 A 
ATOM     15  C   UNL d   1      26.678  -8.604  -0.307  0.00  0.00     0.039 A 
ATOM     16  C   UNL d   1      27.130  -9.537  -1.233  0.00  0.00     0.039 A 
BRANCH  14  17
ATOM     17  N   UNL d   1      26.110  -7.974   2.017  0.00  0.00    -0.116 N 
ATOM     18  O   UNL d   1      25.234  -7.161   1.694  0.00  0.00    -0.532 OA
ATOM     19  O   UNL d   1      26.659  -8.017   3.128  0.00  0.00    -0.532 OA
ENDBRANCH  14  17
ENDBRANCH  10  11
ENDBRANCH   9  10
ENDBRANCH   8   9
BRANCH   8  20
ATOM     20  O   UNL d   1      27.939 -13.825  -3.172  0.00  0.00    -0.392 OA
ATOM     21  H   UNL d   1      27.298 -13.825  -2.441  0.00  0.00     0.210 HD
ENDBRANCH   8  20
ENDBRANCH   7   8
ENDBRANCH   4   7
BRANCH   1  22
ATOM     22  C   UNL d   1      24.464 -15.821  -1.712  0.00  0.00     0.069 A 
ATOM     23  C   UNL d   1      23.321 -16.496  -1.223  0.00  0.00     0.032 A 
ATOM     24  C   UNL d   1      23.427 -17.664  -0.442  0.00  0.00     0.002 A 
ATOM     25  C   UNL d   1      24.677 -18.177  -0.125  0.00  0.00     0.003 A 
ATOM     26  C   UNL d   1      25.812 -17.474  -0.519  0.00  0.00     0.039 A 
ATOM     27  C   UNL d   1      25.724 -16.297  -1.293  0.00  0.00     0.095 A 
BRANCH  27  28
ATOM     28  O   UNL d   1      26.959 -15.792  -1.592  0.00  0.00    -0.349 OA
BRANCH  28  29
ATOM     29  C   UNL d   1      27.812 -15.375  -0.530  0.00  0.00     0.171 C 
ATOM     30  C   UNL d   1      26.984 -14.485   0.392  0.00  0.00     0.034 C 
ENDBRANCH  28  29
ENDBRANCH  27  28
ENDBRANCH   1  22
TORSDOF 10
ENDMDL
MODEL 8
REMARK VINA RESULT:    -5.722      1.802      3.015
REMARK INTER + INTRA:         -12.308
REMARK INTER:                  -8.705
REMARK INTRA:                  -3.603
REMARK CONF_INDEPENDENT:        2.983
REMARK UNBOUND:                -3.603
REMARK  10 active torsions:
REMARK  status: ('A' for Active; 'I' for Inactive)
REMARK    1  A    between atoms: C_2  and  O_3 
REMARK    2  A    between atoms: O_3  and  C_4 
REMARK    3  A    between atoms: C_9  and  N_10 
REMARK       I    between atoms: N_10  and  C_11 
REMARK       I    between atoms: C_11  and  N_13 
REMARK    4  A    between atoms: N_13  and  C_14 
REMARK    5  A    between atoms: C_15  and  C_14 
REMARK    6  A    between atoms: C_15  and  C_17 
REMARK    7  A    between atoms: C_15  and  O_16 
REMARK    8  A    between atoms: C_17  and  O_18 
REMARK    9  A    between atoms: O_18  and  C_19 
REMARK   10  A    between atoms: C_22  and  N_23 
ROOT
ATOM      1  N   UNL d   1      24.261 -14.740  -2.522  0.00  0.00    -0.306 N 
ATOM      2  C   UNL d   1      25.076 -14.445  -3.610  0.00  0.00     0.320 C 
ATOM      3  O   UNL d   1      25.739 -15.274  -4.231  0.00  0.00    -0.247 OA
ATOM      4  N   UNL d   1      25.254 -13.083  -3.796  0.00  0.00    -0.340 N 
ATOM      5  H   UNL d   1      23.377 -14.256  -2.463  0.00  0.00     0.171 HD
ATOM      6  H   UNL d   1      24.406 -12.540  -3.853  0.00  0.00     0.164 HD
ENDROOT
BRANCH   4   7
ATOM      7  C   UNL d   1      26.466 -12.523  -4.429  0.00  0.00     0.158 C 
BRANCH   7   8
ATOM      8  C   UNL d   1      27.861 -12.925  -3.897  0.00  0.00     0.160 C 
BRANCH   8   9
ATOM      9  C   UNL d   1      28.329 -12.043  -2.751  0.00  0.00     0.209 C 
BRANCH   9  10
ATOM     10  O   UNL d   1      27.765 -12.584  -1.555  0.00  0.00    -0.349 OA
BRANCH  10  11
ATOM     11  C   UNL d   1      27.323 -11.697  -0.630  0.00  0.00     0.069 A 
ATOM     12  C   UNL d   1      27.311 -10.353  -1.017  0.00  0.00     0.039 A 
ATOM     13  C   UNL d   1      27.024  -9.363  -0.079  0.00  0.00     0.039 A 
ATOM     14  C   UNL d   1      26.683  -9.742   1.225  0.00  0.00     0.103 A 
ATOM     15  C   UNL d   1      26.700 -11.089   1.608  0.00  0.00     0.039 A 
ATOM     16  C   UNL d   1      27.028 -12.066   0.675  0.00  0.00     0.039 A 
BRANCH  14  17
ATOM     17  N   UNL d   1      26.249  -8.727   2.187  0.00  0.00    -0.116 N 
ATOM     18  O   UNL d   1      26.655  -8.828   3.353  0.00  0.00    -0.532 OA
ATOM     19  O   UNL d   1      25.530  -7.808   1.768  0.00  0.00    -0.532 OA
ENDBRANCH  14  17
ENDBRANCH  10  11
ENDBRANCH   9  10
ENDBRANCH   8   9
BRANCH   8  20
ATOM     20  O   UNL d   1      27.885 -14.301  -3.478  0.00  0.00    -0.392 OA
ATOM     21  H   UNL d   1      27.228 -14.430  -2.773  0.00  0.00     0.210 HD
ENDBRANCH   8  20
ENDBRANCH   7   8
ENDBRANCH   4   7
BRANCH   1  22
ATOM     22  C   UNL d   1      24.451 -15.858  -1.642  0.00  0.00     0.069 A 
ATOM     23  C   UNL d   1      23.308 -16.605  -1.270  0.00  0.00     0.032 A 
ATOM     24  C   UNL d   1      23.405 -17.764  -0.474  0.00  0.00     0.002 A 
ATOM     25  C   UNL d   1      24.645 -18.196  -0.025  0.00  0.00     0.003 A 
ATOM     26  C   UNL d   1      25.769 -17.423  -0.304  0.00  0.00     0.039 A 
ATOM     27  C   UNL d   1      25.688 -16.254  -1.090  0.00  0.00     0.095 A 
BRANCH  27  28
ATOM     28  O   UNL d   1      26.913 -15.671  -1.262  0.00  0.00    -0.349 OA
BRANCH  28  29
ATOM     29  C   UNL d   1      28.081 -16.387  -0.874  0.00  0.00     0.171 C 
ATOM     30  C   UNL d   1      28.753 -15.587   0.239  0.00  0.00     0.034 C 
ENDBRANCH  28  29
ENDBRANCH  27  28
ENDBRANCH   1  22
TORSDOF 10
ENDMDL
MODEL 9
REMARK VINA RESULT:    -5.401      4.421      6.736
REMARK INTER + INTRA:         -11.753
REMARK INTER:                  -8.384
REMARK INTRA:                  -3.369
REMARK CONF_INDEPENDENT:        2.983
REMARK UNBOUND:                -3.369
REMARK  10 active torsions:
REMARK  status: ('A' for Active; 'I' for Inactive)
REMARK    1  A    between atoms: C_2  and  O_3 
REMARK    2  A    between atoms: O_3  and  C_4 
REMARK    3  A    between atoms: C_9  and  N_10 
REMARK       I    between atoms: N_10  and  C_11 
REMARK       I    between atoms: C_11  and  N_13 
REMARK    4  A    between atoms: N_13  and  C_14 
REMARK    5  A    between atoms: C_15  and  C_14 
REMARK    6  A    between atoms: C_15  and  C_17 
REMARK    7  A    between atoms: C_15  and  O_16 
REMARK    8  A    between atoms: C_17  and  O_18 
REMARK    9  A    between atoms: O_18  and  C_19 
REMARK   10  A    between atoms: C_22  and  N_23 
ROOT
ATOM      1  N   UNL d   1      28.754 -14.751   2.516  0.00  0.00    -0.306 N 
ATOM      2  C   UNL d   1      28.196 -14.714   3.790  0.00  0.00     0.320 C 
ATOM      3  O   UNL d   1      27.082 -14.263   4.052  0.00  0.00    -0.247 OA
ATOM      4  N   UNL d   1      29.108 -15.026   4.787  0.00  0.00    -0.340 N 
ATOM      5  H   UNL d   1      29.281 -15.575   2.268  0.00  0.00     0.171 HD
ATOM      6  H   UNL d   1      29.604 -15.895   4.661  0.00  0.00     0.164 HD
ENDROOT
BRANCH   4   7
ATOM      7  C   UNL d   1      28.985 -14.503   6.163  0.00  0.00     0.158 C 
BRANCH   7   8
ATOM      8  C   UNL d   1      28.564 -13.032   6.386  0.00  0.00     0.160 C 
BRANCH   8   9
ATOM      9  C   UNL d   1      29.404 -12.052   5.583  0.00  0.00     0.209 C 
BRANCH   9  10
ATOM     10  O   UNL d   1      28.899 -12.073   4.247  0.00  0.00    -0.349 OA
BRANCH  10  11
ATOM     11  C   UNL d   1      28.173 -10.999   3.850  0.00  0.00     0.069 A 
ATOM     12  C   UNL d   1      27.030 -11.270   3.089  0.00  0.00     0.039 A 
ATOM     13  C   UNL d   1      26.319 -10.224   2.508  0.00  0.00     0.039 A 
ATOM     14  C   UNL d   1      26.724  -8.906   2.755  0.00  0.00     0.103 A 
ATOM     15  C   UNL d   1      27.872  -8.640   3.514  0.00  0.00     0.039 A 
ATOM     16  C   UNL d   1      28.598  -9.694   4.056  0.00  0.00     0.039 A 
BRANCH  14  17
ATOM     17  N   UNL d   1      25.913  -7.791   2.264  0.00  0.00    -0.116 N 
ATOM     18  O   UNL d   1      25.154  -8.008   1.310  0.00  0.00    -0.532 OA
ATOM     19  O   UNL d   1      26.011  -6.706   2.855  0.00  0.00    -0.532 OA
ENDBRANCH  14  17
ENDBRANCH  10  11
ENDBRANCH   9  10
ENDBRANCH   8   9
BRANCH   8  20
ATOM     20  O   UNL d   1      27.174 -12.832   6.076  0.00  0.00    -0.392 OA
ATOM     21  H   UNL d   1      27.064 -12.805   5.110  0.00  0.00     0.210 HD
ENDBRANCH   8  20
ENDBRANCH   7   8
ENDBRANCH   4   7
BRANCH   1  22
ATOM     22  C   UNL d   1      28.412 -13.851   1.451  0.00  0.00     0.069 A 
ATOM     23  C   UNL d   1      29.214 -12.697   1.281  0.00  0.00     0.032 A 
ATOM     24  C   UNL d   1      29.005 -11.797   0.217  0.00  0.00     0.002 A 
ATOM     25  C   UNL d   1      27.984 -12.026  -0.694  0.00  0.00     0.003 A 
ATOM     26  C   UNL d   1      27.127 -13.104  -0.489  0.00  0.00     0.039 A 
ATOM     27  C   UNL d   1      27.317 -14.009   0.577  0.00  0.00     0.095 A 
BRANCH  27  28
ATOM     28  O   UNL d   1      26.381 -15.008   0.569  0.00  0.00    -0.349 OA
BRANCH  28  29
ATOM     29  C   UNL d   1      26.785 -16.330   0.230  0.00  0.00     0.171 C 
ATOM     30  C   UNL d   1      25.525 -17.103  -0.151  0.00  0.00     0.034 C 
ENDBRANCH  28  29
ENDBRANCH  27  28
ENDBRANCH   1  22
TORSDOF 10
ENDMDL
