MODEL 1
REMARK VINA RESULT:    -8.537      0.000      0.000
REMARK INTER + INTRA:         -10.879
REMARK INTER:                  -9.730
REMARK INTRA:                  -1.150
REMARK CONF_INDEPENDENT:        1.193
REMARK UNBOUND:                -1.150
REMARK  4 active torsions:
REMARK  status: ('A' for Active; 'I' for Inactive)
REMARK       I    between atoms: C_2  and  N_3 
REMARK    1  A    between atoms: C_2  and  C_19 
REMARK    2  A    between atoms: N_3  and  N_4 
REMARK       I    between atoms: N_4  and  C_5 
REMARK    3  A    between atoms: C_5  and  C_7 
REMARK    4  A    between atoms: C_7  and  C_8 
ROOT
ATOM      1  N   UNL d   1      24.003 -17.348   0.025  0.00  0.00    -0.266 N 
ATOM      2  C   UNL d   1      24.265 -16.356  -0.900  0.00  0.00     0.249 C 
ATOM      3  O   UNL d   1      23.327 -15.925  -1.581  0.00  0.00    -0.271 OA
ATOM      4  H   UNL d   1      24.684 -17.759   0.659  0.00  0.00     0.190 HD
ENDROOT
BRANCH   2   5
ATOM      5  C   UNL d   1      25.757 -15.875  -1.086  0.00  0.00     0.069 C 
ATOM      6  C   UNL d   1      26.377 -15.334   0.230  0.00  0.00     0.024 C 
ATOM      7  C   UNL d   1      27.893 -15.409   0.028  0.00  0.00     0.002 C 
ATOM      8  C   UNL d   1      28.116 -16.602  -0.895  0.00  0.00     0.002 C 
ATOM      9  C   UNL d   1      26.722 -17.063  -1.348  0.00  0.00     0.024 C 
BRANCH   5  10
ATOM     10  C   UNL d   1      25.827 -14.858  -2.255  0.00  0.00    -0.040 A 
ATOM     11  C   UNL d   1      26.014 -13.488  -1.981  0.00  0.00     0.010 A 
ATOM     12  C   UNL d   1      26.158 -12.553  -3.011  0.00  0.00     0.024 A 
ATOM     13  C   UNL d   1      26.091 -12.970  -4.334  0.00  0.00     0.034 A 
ATOM     14 CL   UNL d   1      26.244 -11.826  -5.608  0.00  0.00    -0.084 Cl
ATOM     15  C   UNL d   1      25.903 -14.312  -4.635  0.00  0.00     0.024 A 
ATOM     16  C   UNL d   1      25.779 -15.247  -3.606  0.00  0.00     0.010 A 
ENDBRANCH   5  10
ENDBRANCH   2   5
BRANCH   1  17
ATOM     17  N   UNL d   1      22.659 -17.795   0.175  0.00  0.00    -0.263 N 
ATOM     18  C   UNL d   1      22.201 -18.829  -0.622  0.00  0.00     0.272 C 
ATOM     19  O   UNL d   1      22.920 -19.350  -1.479  0.00  0.00    -0.266 OA
ATOM     20  H   UNL d   1      22.154 -17.441   0.988  0.00  0.00     0.190 HD
BRANCH  18  21
ATOM     21  C   UNL d   1      20.843 -19.293  -0.375  0.00  0.00     0.057 A 
ATOM     22  C   UNL d   1      20.328 -19.895   0.816  0.00  0.00     0.043 A 
ATOM     23  C   UNL d   1      19.013 -20.213   0.570  0.00  0.00     0.142 A 
ATOM     24  O   UNL d   1      18.682 -19.877  -0.702  0.00  0.00    -0.334 OA
ATOM     25  C   UNL d   1      19.790 -19.325  -1.270  0.00  0.00     0.158 A 
ENDBRANCH  18  21
ENDBRANCH   1  17
TORSDOF 4
ENDMDL
MODEL 2
REMARK VINA RESULT:    -7.944      4.567      7.596
REMARK INTER + INTRA:         -11.045
REMARK INTER:                  -9.137
REMARK INTRA:                  -1.909
REMARK CONF_INDEPENDENT:        1.193
REMARK UNBOUND:                -1.909
REMARK  4 active torsions:
REMARK  status: ('A' for Active; 'I' for Inactive)
REMARK       I    between atoms: C_2  and  N_3 
REMARK    1  A    between atoms: C_2  and  C_19 
REMARK    2  A    between atoms: N_3  and  N_4 
REMARK       I    between atoms: N_4  and  C_5 
REMARK    3  A    between atoms: C_5  and  C_7 
REMARK    4  A    between atoms: C_7  and  C_8 
ROOT
ATOM      1  N   UNL d   1      27.036 -14.708   1.110  0.00  0.00    -0.266 N 
ATOM      2  C   UNL d   1      27.058 -15.812   0.279  0.00  0.00     0.249 C 
ATOM      3  O   UNL d   1      27.774 -16.770   0.594  0.00  0.00    -0.271 OA
ATOM      4  H   UNL d   1      26.468 -13.876   0.972  0.00  0.00     0.190 HD
ENDROOT
BRANCH   2   5
ATOM      5  C   UNL d   1      26.222 -15.763  -1.059  0.00  0.00     0.069 C 
ATOM      6  C   UNL d   1      25.905 -14.312  -1.510  0.00  0.00     0.024 C 
ATOM      7  C   UNL d   1      25.583 -14.411  -3.004  0.00  0.00     0.002 C 
ATOM      8  C   UNL d   1      26.422 -15.575  -3.519  0.00  0.00     0.002 C 
ATOM      9  C   UNL d   1      27.056 -16.230  -2.282  0.00  0.00     0.024 C 
BRANCH   5  10
ATOM     10  C   UNL d   1      24.955 -16.643  -0.905  0.00  0.00    -0.040 A 
ATOM     11  C   UNL d   1      25.079 -17.985  -0.488  0.00  0.00     0.010 A 
ATOM     12  C   UNL d   1      23.955 -18.785  -0.265  0.00  0.00     0.024 A 
ATOM     13  C   UNL d   1      22.685 -18.264  -0.480  0.00  0.00     0.034 A 
ATOM     14 CL   UNL d   1      21.296 -19.246  -0.231  0.00  0.00    -0.084 Cl
ATOM     15  C   UNL d   1      22.530 -16.948  -0.895  0.00  0.00     0.024 A 
ATOM     16  C   UNL d   1      23.654 -16.145  -1.098  0.00  0.00     0.010 A 
ENDBRANCH   5  10
ENDBRANCH   2   5
BRANCH   1  17
ATOM     17  N   UNL d   1      27.810 -14.747   2.306  0.00  0.00    -0.263 N 
ATOM     18  C   UNL d   1      27.591 -13.790   3.281  0.00  0.00     0.272 C 
ATOM     19  O   UNL d   1      26.765 -12.886   3.124  0.00  0.00    -0.266 OA
ATOM     20  H   UNL d   1      28.367 -15.588   2.455  0.00  0.00     0.190 HD
BRANCH  18  21
ATOM     21  C   UNL d   1      28.358 -13.922   4.512  0.00  0.00     0.057 A 
ATOM     22  C   UNL d   1      29.657 -14.499   4.674  0.00  0.00     0.043 A 
ATOM     23  C   UNL d   1      29.954 -14.450   6.016  0.00  0.00     0.142 A 
ATOM     24  O   UNL d   1      28.917 -13.907   6.703  0.00  0.00    -0.334 OA
ATOM     25  C   UNL d   1      27.955 -13.593   5.792  0.00  0.00     0.158 A 
ENDBRANCH  18  21
ENDBRANCH   1  17
TORSDOF 4
ENDMDL
MODEL 3
REMARK VINA RESULT:    -7.878      1.249      1.574
REMARK INTER + INTRA:         -11.063
REMARK INTER:                  -9.072
REMARK INTRA:                  -1.991
REMARK CONF_INDEPENDENT:        1.193
REMARK UNBOUND:                -1.991
REMARK  4 active torsions:
REMARK  status: ('A' for Active; 'I' for Inactive)
REMARK       I    between atoms: C_2  and  N_3 
REMARK    1  A    between atoms: C_2  and  C_19 
REMARK    2  A    between atoms: N_3  and  N_4 
REMARK       I    between atoms: N_4  and  C_5 
REMARK    3  A    between atoms: C_5  and  C_7 
REMARK    4  A    between atoms: C_7  and  C_8 
ROOT
ATOM      1  N   UNL d   1      24.454 -17.251  -0.331  0.00  0.00    -0.266 N 
ATOM      2  C   UNL d   1      25.753 -17.701  -0.193  0.00  0.00     0.249 C 
ATOM      3  O   UNL d   1      25.935 -18.877   0.144  0.00  0.00    -0.271 OA
ATOM      4  H   UNL d   1      24.181 -16.318  -0.628  0.00  0.00     0.190 HD
ENDROOT
BRANCH   2   5
ATOM      5  C   UNL d   1      26.933 -16.673  -0.404  0.00  0.00     0.069 C 
ATOM      6  C   UNL d   1      27.400 -16.023   0.926  0.00  0.00     0.024 C 
ATOM      7  C   UNL d   1      28.811 -15.497   0.649  0.00  0.00     0.002 C 
ATOM      8  C   UNL d   1      29.398 -16.449  -0.387  0.00  0.00     0.002 C 
ATOM      9  C   UNL d   1      28.252 -17.380  -0.815  0.00  0.00     0.024 C 
BRANCH   5  10
ATOM     10  C   UNL d   1      26.522 -15.634  -1.478  0.00  0.00    -0.040 A 
ATOM     11  C   UNL d   1      26.554 -14.258  -1.172  0.00  0.00     0.010 A 
ATOM     12  C   UNL d   1      26.264 -13.290  -2.138  0.00  0.00     0.024 A 
ATOM     13  C   UNL d   1      25.911 -13.683  -3.423  0.00  0.00     0.034 A 
ATOM     14 CL   UNL d   1      25.532 -12.501  -4.612  0.00  0.00    -0.084 Cl
ATOM     15  C   UNL d   1      25.867 -15.031  -3.754  0.00  0.00     0.024 A 
ATOM     16  C   UNL d   1      26.175 -15.995  -2.793  0.00  0.00     0.010 A 
ENDBRANCH   5  10
ENDBRANCH   2   5
BRANCH   1  17
ATOM     17  N   UNL d   1      23.393 -18.176  -0.117  0.00  0.00    -0.263 N 
ATOM     18  C   UNL d   1      22.101 -17.807  -0.449  0.00  0.00     0.272 C 
ATOM     19  O   UNL d   1      21.845 -16.685  -0.895  0.00  0.00    -0.266 OA
ATOM     20  H   UNL d   1      23.666 -19.133   0.109  0.00  0.00     0.190 HD
BRANCH  18  21
ATOM     21  C   UNL d   1      21.067 -18.818  -0.279  0.00  0.00     0.057 A 
ATOM     22  C   UNL d   1      20.654 -19.450   0.936  0.00  0.00     0.043 A 
ATOM     23  C   UNL d   1      19.688 -20.370   0.604  0.00  0.00     0.142 A 
ATOM     24  O   UNL d   1      19.490 -20.373  -0.739  0.00  0.00    -0.334 OA
ATOM     25  C   UNL d   1      20.327 -19.439  -1.268  0.00  0.00     0.158 A 
ENDBRANCH  18  21
ENDBRANCH   1  17
TORSDOF 4
ENDMDL
MODEL 4
REMARK VINA RESULT:    -7.868      4.059      7.837
REMARK INTER + INTRA:         -10.816
REMARK INTER:                  -9.062
REMARK INTRA:                  -1.755
REMARK CONF_INDEPENDENT:        1.193
REMARK UNBOUND:                -1.755
REMARK  4 active torsions:
REMARK  status: ('A' for Active; 'I' for Inactive)
REMARK       I    between atoms: C_2  and  N_3 
REMARK    1  A    between atoms: C_2  and  C_19 
REMARK    2  A    between atoms: N_3  and  N_4 
REMARK       I    between atoms: N_4  and  C_5 
REMARK    3  A    between atoms: C_5  and  C_7 
REMARK    4  A    between atoms: C_7  and  C_8 
ROOT
ATOM      1  N   UNL d   1      25.783 -13.163  -2.454  0.00  0.00    -0.266 N 
ATOM      2  C   UNL d   1      25.328 -14.461  -2.594  0.00  0.00     0.249 C 
ATOM      3  O   UNL d   1      24.547 -14.713  -3.519  0.00  0.00    -0.271 OA
ATOM      4  H   UNL d   1      26.446 -12.842  -1.753  0.00  0.00     0.190 HD
ENDROOT
BRANCH   2   5
ATOM      5  C   UNL d   1      25.775 -15.534  -1.526  0.00  0.00     0.069 C 
ATOM      6  C   UNL d   1      27.068 -16.285  -1.943  0.00  0.00     0.024 C 
ATOM      7  C   UNL d   1      27.638 -16.866  -0.646  0.00  0.00     0.002 C 
ATOM      8  C   UNL d   1      27.227 -15.886   0.447  0.00  0.00     0.002 C 
ATOM      9  C   UNL d   1      26.280 -14.874  -0.215  0.00  0.00     0.024 C 
BRANCH   5  10
ATOM     10  C   UNL d   1      24.588 -16.486  -1.227  0.00  0.00    -0.040 A 
ATOM     11  C   UNL d   1      24.837 -17.832  -0.887  0.00  0.00     0.010 A 
ATOM     12  C   UNL d   1      23.797 -18.698  -0.537  0.00  0.00     0.024 A 
ATOM     13  C   UNL d   1      22.486 -18.240  -0.546  0.00  0.00     0.034 A 
ATOM     14 CL   UNL d   1      21.198 -19.303  -0.139  0.00  0.00    -0.084 Cl
ATOM     15  C   UNL d   1      22.209 -16.921  -0.880  0.00  0.00     0.024 A 
ATOM     16  C   UNL d   1      23.250 -16.052  -1.210  0.00  0.00     0.010 A 
ENDBRANCH   5  10
ENDBRANCH   2   5
BRANCH   1  17
ATOM     17  N   UNL d   1      25.359 -12.193  -3.407  0.00  0.00    -0.263 N 
ATOM     18  C   UNL d   1      25.979 -10.956  -3.430  0.00  0.00     0.272 C 
ATOM     19  O   UNL d   1      26.868 -10.666  -2.624  0.00  0.00    -0.266 OA
ATOM     20  H   UNL d   1      24.733 -12.525  -4.141  0.00  0.00     0.190 HD
BRANCH  18  21
ATOM     21  C   UNL d   1      25.556 -10.031  -4.472  0.00  0.00     0.057 A 
ATOM     22  C   UNL d   1      24.799  -8.828  -4.317  0.00  0.00     0.043 A 
ATOM     23  C   UNL d   1      24.597  -8.315  -5.576  0.00  0.00     0.142 A 
ATOM     24  O   UNL d   1      25.153  -9.130  -6.507  0.00  0.00    -0.334 OA
ATOM     25  C   UNL d   1      25.728 -10.167  -5.837  0.00  0.00     0.158 A 
ENDBRANCH  18  21
ENDBRANCH   1  17
TORSDOF 4
ENDMDL
MODEL 5
REMARK VINA RESULT:    -7.512      1.655      2.158
REMARK INTER + INTRA:         -10.674
REMARK INTER:                  -8.705
REMARK INTRA:                  -1.969
REMARK CONF_INDEPENDENT:        1.193
REMARK UNBOUND:                -1.969
REMARK  4 active torsions:
REMARK  status: ('A' for Active; 'I' for Inactive)
REMARK       I    between atoms: C_2  and  N_3 
REMARK    1  A    between atoms: C_2  and  C_19 
REMARK    2  A    between atoms: N_3  and  N_4 
REMARK       I    between atoms: N_4  and  C_5 
REMARK    3  A    between atoms: C_5  and  C_7 
REMARK    4  A    between atoms: C_7  and  C_8 
ROOT
ATOM      1  N   UNL d   1      24.559 -16.871  -0.344  0.00  0.00    -0.266 N 
ATOM      2  C   UNL d   1      25.881 -17.221  -0.142  0.00  0.00     0.249 C 
ATOM      3  O   UNL d   1      26.134 -18.378   0.213  0.00  0.00    -0.271 OA
ATOM      4  H   UNL d   1      24.232 -15.962  -0.662  0.00  0.00     0.190 HD
ENDROOT
BRANCH   2   5
ATOM      5  C   UNL d   1      26.988 -16.109  -0.307  0.00  0.00     0.069 C 
ATOM      6  C   UNL d   1      26.666 -14.823   0.500  0.00  0.00     0.024 C 
ATOM      7  C   UNL d   1      28.004 -14.097   0.663  0.00  0.00     0.002 C 
ATOM      8  C   UNL d   1      29.056 -15.199   0.705  0.00  0.00     0.002 C 
ATOM      9  C   UNL d   1      28.321 -16.509   0.381  0.00  0.00     0.024 C 
BRANCH   5  10
ATOM     10  C   UNL d   1      27.222 -15.837  -1.816  0.00  0.00    -0.040 A 
ATOM     11  C   UNL d   1      26.168 -15.341  -2.611  0.00  0.00     0.010 A 
ATOM     12  C   UNL d   1      26.363 -15.013  -3.956  0.00  0.00     0.024 A 
ATOM     13  C   UNL d   1      27.611 -15.200  -4.537  0.00  0.00     0.034 A 
ATOM     14 CL   UNL d   1      27.856 -14.821  -6.196  0.00  0.00    -0.084 Cl
ATOM     15  C   UNL d   1      28.668 -15.691  -3.781  0.00  0.00     0.024 A 
ATOM     16  C   UNL d   1      28.476 -15.999  -2.433  0.00  0.00     0.010 A 
ENDBRANCH   5  10
ENDBRANCH   2   5
BRANCH   1  17
ATOM     17  N   UNL d   1      23.561 -17.871  -0.172  0.00  0.00    -0.263 N 
ATOM     18  C   UNL d   1      22.248 -17.576  -0.494  0.00  0.00     0.272 C 
ATOM     19  O   UNL d   1      21.919 -16.456  -0.895  0.00  0.00    -0.266 OA
ATOM     20  H   UNL d   1      23.897 -18.816   0.017  0.00  0.00     0.190 HD
BRANCH  18  21
ATOM     21  C   UNL d   1      21.283 -18.659  -0.368  0.00  0.00     0.057 A 
ATOM     22  C   UNL d   1      20.868 -19.325   0.828  0.00  0.00     0.043 A 
ATOM     23  C   UNL d   1      19.984 -20.310   0.454  0.00  0.00     0.142 A 
ATOM     24  O   UNL d   1      19.841 -20.320  -0.895  0.00  0.00    -0.334 OA
ATOM     25  C   UNL d   1      20.630 -19.325  -1.387  0.00  0.00     0.158 A 
ENDBRANCH  18  21
ENDBRANCH   1  17
TORSDOF 4
ENDMDL
MODEL 6
REMARK VINA RESULT:    -7.388      5.201      7.881
REMARK INTER + INTRA:         -10.530
REMARK INTER:                  -8.581
REMARK INTRA:                  -1.949
REMARK CONF_INDEPENDENT:        1.193
REMARK UNBOUND:                -1.949
REMARK  4 active torsions:
REMARK  status: ('A' for Active; 'I' for Inactive)
REMARK       I    between atoms: C_2  and  N_3 
REMARK    1  A    between atoms: C_2  and  C_19 
REMARK    2  A    between atoms: N_3  and  N_4 
REMARK       I    between atoms: N_4  and  C_5 
REMARK    3  A    between atoms: C_5  and  C_7 
REMARK    4  A    between atoms: C_7  and  C_8 
ROOT
ATOM      1  N   UNL d   1      28.143 -14.865   2.423  0.00  0.00    -0.266 N 
ATOM      2  C   UNL d   1      27.403 -14.570   1.295  0.00  0.00     0.249 C 
ATOM      3  O   UNL d   1      26.575 -13.653   1.359  0.00  0.00    -0.271 OA
ATOM      4  H   UNL d   1      28.870 -15.575   2.483  0.00  0.00     0.190 HD
ENDROOT
BRANCH   2   5
ATOM      5  C   UNL d   1      27.603 -15.461   0.008  0.00  0.00     0.069 C 
ATOM      6  C   UNL d   1      28.091 -14.639  -1.215  0.00  0.00     0.024 C 
ATOM      7  C   UNL d   1      28.718 -15.660  -2.169  0.00  0.00     0.002 C 
ATOM      8  C   UNL d   1      29.283 -16.754  -1.270  0.00  0.00     0.002 C 
ATOM      9  C   UNL d   1      28.806 -16.431   0.154  0.00  0.00     0.024 C 
BRANCH   5  10
ATOM     10  C   UNL d   1      26.302 -16.257  -0.274  0.00  0.00    -0.040 A 
ATOM     11  C   UNL d   1      26.100 -17.510   0.340  0.00  0.00     0.010 A 
ATOM     12  C   UNL d   1      24.908 -18.221   0.170  0.00  0.00     0.024 A 
ATOM     13  C   UNL d   1      23.906 -17.700  -0.638  0.00  0.00     0.034 A 
ATOM     14 CL   UNL d   1      22.444 -18.575  -0.871  0.00  0.00    -0.084 Cl
ATOM     15  C   UNL d   1      24.076 -16.470  -1.259  0.00  0.00     0.024 A 
ATOM     16  C   UNL d   1      25.260 -15.754  -1.072  0.00  0.00     0.010 A 
ENDBRANCH   5  10
ENDBRANCH   2   5
BRANCH   1  17
ATOM     17  N   UNL d   1      27.944 -14.073   3.589  0.00  0.00    -0.263 N 
ATOM     18  C   UNL d   1      28.731 -14.303   4.703  0.00  0.00     0.272 C 
ATOM     19  O   UNL d   1      29.579 -15.200   4.719  0.00  0.00    -0.266 OA
ATOM     20  H   UNL d   1      27.343 -13.255   3.482  0.00  0.00     0.190 HD
BRANCH  18  21
ATOM     21  C   UNL d   1      28.533 -13.415   5.840  0.00  0.00     0.057 A 
ATOM     22  C   UNL d   1      29.001 -13.593   7.180  0.00  0.00     0.043 A 
ATOM     23  C   UNL d   1      28.531 -12.530   7.915  0.00  0.00     0.142 A 
ATOM     24  O   UNL d   1      27.780 -11.716   7.130  0.00  0.00    -0.334 OA
ATOM     25  C   UNL d   1      27.781 -12.256   5.880  0.00  0.00     0.158 A 
ENDBRANCH  18  21
ENDBRANCH   1  17
TORSDOF 4
ENDMDL
MODEL 7
REMARK VINA RESULT:    -6.983      2.733      4.334
REMARK INTER + INTRA:         -10.078
REMARK INTER:                  -8.176
REMARK INTRA:                  -1.902
REMARK CONF_INDEPENDENT:        1.193
REMARK UNBOUND:                -1.902
REMARK  4 active torsions:
REMARK  status: ('A' for Active; 'I' for Inactive)
REMARK       I    between atoms: C_2  and  N_3 
REMARK    1  A    between atoms: C_2  and  C_19 
REMARK    2  A    between atoms: N_3  and  N_4 
REMARK       I    between atoms: N_4  and  C_5 
REMARK    3  A    between atoms: C_5  and  C_7 
REMARK    4  A    between atoms: C_7  and  C_8 
ROOT
ATOM      1  N   UNL d   1      25.487 -15.070  -2.675  0.00  0.00    -0.266 N 
ATOM      2  C   UNL d   1      25.265 -14.133  -3.667  0.00  0.00     0.249 C 
ATOM      3  O   UNL d   1      24.140 -14.073  -4.178  0.00  0.00    -0.271 OA
ATOM      4  H   UNL d   1      26.357 -15.193  -2.164  0.00  0.00     0.190 HD
ENDROOT
BRANCH   2   5
ATOM      5  C   UNL d   1      26.475 -13.237  -4.141  0.00  0.00     0.069 C 
ATOM      6  C   UNL d   1      26.022 -12.045  -5.025  0.00  0.00     0.024 C 
ATOM      7  C   UNL d   1      27.167 -11.030  -4.959  0.00  0.00     0.002 C 
ATOM      8  C   UNL d   1      27.788 -11.216  -3.579  0.00  0.00     0.002 C 
ATOM      9  C   UNL d   1      27.111 -12.450  -2.964  0.00  0.00     0.024 C 
BRANCH   5  10
ATOM     10  C   UNL d   1      27.539 -14.133  -4.826  0.00  0.00    -0.040 A 
ATOM     11  C   UNL d   1      27.938 -13.860  -6.151  0.00  0.00     0.010 A 
ATOM     12  C   UNL d   1      28.948 -14.598  -6.774  0.00  0.00     0.024 A 
ATOM     13  C   UNL d   1      29.561 -15.640  -6.090  0.00  0.00     0.034 A 
ATOM     14 CL   UNL d   1      30.790 -16.568  -6.855  0.00  0.00    -0.084 Cl
ATOM     15  C   UNL d   1      29.188 -15.936  -4.786  0.00  0.00     0.024 A 
ATOM     16  C   UNL d   1      28.192 -15.185  -4.159  0.00  0.00     0.010 A 
ENDBRANCH   5  10
ENDBRANCH   2   5
BRANCH   1  17
ATOM     17  N   UNL d   1      24.398 -15.891  -2.266  0.00  0.00    -0.263 N 
ATOM     18  C   UNL d   1      24.606 -16.848  -1.289  0.00  0.00     0.272 C 
ATOM     19  O   UNL d   1      25.720 -17.027  -0.789  0.00  0.00    -0.266 OA
ATOM     20  H   UNL d   1      23.473 -15.611  -2.595  0.00  0.00     0.190 HD
BRANCH  18  21
ATOM     21  C   UNL d   1      23.441 -17.608  -0.858  0.00  0.00     0.057 A 
ATOM     22  C   UNL d   1      23.404 -18.958  -0.387  0.00  0.00     0.043 A 
ATOM     23  C   UNL d   1      22.085 -19.264  -0.146  0.00  0.00     0.142 A 
ATOM     24  O   UNL d   1      21.296 -18.206  -0.461  0.00  0.00    -0.334 OA
ATOM     25  C   UNL d   1      22.118 -17.211  -0.894  0.00  0.00     0.158 A 
ENDBRANCH  18  21
ENDBRANCH   1  17
TORSDOF 4
ENDMDL
MODEL 8
REMARK VINA RESULT:    -6.938      2.584      3.640
REMARK INTER + INTRA:         -10.132
REMARK INTER:                  -8.131
REMARK INTRA:                  -2.000
REMARK CONF_INDEPENDENT:        1.193
REMARK UNBOUND:                -2.000
REMARK  4 active torsions:
REMARK  status: ('A' for Active; 'I' for Inactive)
REMARK       I    between atoms: C_2  and  N_3 
REMARK    1  A    between atoms: C_2  and  C_19 
REMARK    2  A    between atoms: N_3  and  N_4 
REMARK       I    between atoms: N_4  and  C_5 
REMARK    3  A    between atoms: C_5  and  C_7 
REMARK    4  A    between atoms: C_7  and  C_8 
ROOT
ATOM      1  N   UNL d   1      24.831 -16.833  -1.319  0.00  0.00    -0.266 N 
ATOM      2  C   UNL d   1      25.031 -15.606  -1.920  0.00  0.00     0.249 C 
ATOM      3  O   UNL d   1      24.070 -15.060  -2.476  0.00  0.00    -0.271 OA
ATOM      4  H   UNL d   1      25.534 -17.362  -0.809  0.00  0.00     0.190 HD
ENDROOT
BRANCH   2   5
ATOM      5  C   UNL d   1      26.487 -14.997  -1.925  0.00  0.00     0.069 C 
ATOM      6  C   UNL d   1      27.514 -15.918  -2.637  0.00  0.00     0.024 C 
ATOM      7  C   UNL d   1      28.687 -15.008  -3.013  0.00  0.00     0.002 C 
ATOM      8  C   UNL d   1      28.067 -13.637  -3.260  0.00  0.00     0.002 C 
ATOM      9  C   UNL d   1      26.593 -13.749  -2.841  0.00  0.00     0.024 C 
BRANCH   5  10
ATOM     10  C   UNL d   1      26.897 -14.636  -0.474  0.00  0.00    -0.040 A 
ATOM     11  C   UNL d   1      26.629 -13.346   0.030  0.00  0.00     0.010 A 
ATOM     12  C   UNL d   1      26.916 -13.009   1.356  0.00  0.00     0.024 A 
ATOM     13  C   UNL d   1      27.500 -13.949   2.195  0.00  0.00     0.034 A 
ATOM     14 CL   UNL d   1      27.876 -13.538   3.822  0.00  0.00    -0.084 Cl
ATOM     15  C   UNL d   1      27.779 -15.226   1.727  0.00  0.00     0.024 A 
ATOM     16  C   UNL d   1      27.475 -15.567   0.408  0.00  0.00     0.010 A 
ENDBRANCH   5  10
ENDBRANCH   2   5
BRANCH   1  17
ATOM     17  N   UNL d   1      23.520 -17.389  -1.336  0.00  0.00    -0.263 N 
ATOM     18  C   UNL d   1      23.226 -18.449  -0.497  0.00  0.00     0.272 C 
ATOM     19  O   UNL d   1      24.083 -18.943   0.241  0.00  0.00    -0.266 OA
ATOM     20  H   UNL d   1      22.812 -16.859  -1.846  0.00  0.00     0.190 HD
BRANCH  18  21
ATOM     21  C   UNL d   1      21.851 -18.928  -0.504  0.00  0.00     0.057 A 
ATOM     22  C   UNL d   1      21.050 -19.304   0.620  0.00  0.00     0.043 A 
ATOM     23  C   UNL d   1      19.843 -19.738   0.127  0.00  0.00     0.142 A 
ATOM     24  O   UNL d   1      19.846 -19.684  -1.229  0.00  0.00    -0.334 OA
ATOM     25  C   UNL d   1      21.061 -19.199  -1.606  0.00  0.00     0.158 A 
ENDBRANCH  18  21
ENDBRANCH   1  17
TORSDOF 4
ENDMDL
MODEL 9
REMARK VINA RESULT:    -6.846      4.822      7.968
REMARK INTER + INTRA:          -9.979
REMARK INTER:                  -8.040
REMARK INTRA:                  -1.940
REMARK CONF_INDEPENDENT:        1.193
REMARK UNBOUND:                -1.940
REMARK  4 active torsions:
REMARK  status: ('A' for Active; 'I' for Inactive)
REMARK       I    between atoms: C_2  and  N_3 
REMARK    1  A    between atoms: C_2  and  C_19 
REMARK    2  A    between atoms: N_3  and  N_4 
REMARK       I    between atoms: N_4  and  C_5 
REMARK    3  A    between atoms: C_5  and  C_7 
REMARK    4  A    between atoms: C_7  and  C_8 
ROOT
ATOM      1  N   UNL d   1      28.341 -15.749  -3.037  0.00  0.00    -0.266 N 
ATOM      2  C   UNL d   1      28.479 -16.150  -1.723  0.00  0.00     0.249 C 
ATOM      3  O   UNL d   1      29.334 -17.003  -1.455  0.00  0.00    -0.271 OA
ATOM      4  H   UNL d   1      27.696 -15.037  -3.373  0.00  0.00     0.190 HD
ENDROOT
BRANCH   2   5
ATOM      5  C   UNL d   1      27.495 -15.550  -0.644  0.00  0.00     0.069 C 
ATOM      6  C   UNL d   1      28.145 -15.442   0.760  0.00  0.00     0.024 C 
ATOM      7  C   UNL d   1      27.307 -14.410   1.520  0.00  0.00     0.002 C 
ATOM      8  C   UNL d   1      26.799 -13.444   0.455  0.00  0.00     0.002 C 
ATOM      9  C   UNL d   1      27.199 -14.048  -0.900  0.00  0.00     0.024 C 
BRANCH   5  10
ATOM     10  C   UNL d   1      26.176 -16.365  -0.643  0.00  0.00    -0.040 A 
ATOM     11  C   UNL d   1      26.073 -17.531   0.144  0.00  0.00     0.010 A 
ATOM     12  C   UNL d   1      24.875 -18.248   0.228  0.00  0.00     0.024 A 
ATOM     13  C   UNL d   1      23.766 -17.825  -0.494  0.00  0.00     0.034 A 
ATOM     14 CL   UNL d   1      22.296 -18.713  -0.413  0.00  0.00    -0.084 Cl
ATOM     15  C   UNL d   1      23.838 -16.684  -1.280  0.00  0.00     0.024 A 
ATOM     16  C   UNL d   1      25.029 -15.958  -1.348  0.00  0.00     0.010 A 
ENDBRANCH   5  10
ENDBRANCH   2   5
BRANCH   1  17
ATOM     17  N   UNL d   1      29.216 -16.309  -4.011  0.00  0.00    -0.263 N 
ATOM     18  C   UNL d   1      29.058 -15.960  -5.340  0.00  0.00     0.272 C 
ATOM     19  O   UNL d   1      28.156 -15.200  -5.704  0.00  0.00    -0.266 OA
ATOM     20  H   UNL d   1      30.030 -16.809  -3.651  0.00  0.00     0.190 HD
BRANCH  18  21
ATOM     21  C   UNL d   1      30.027 -16.505  -6.280  0.00  0.00     0.057 A 
ATOM     22  C   UNL d   1      30.542 -17.839  -6.330  0.00  0.00     0.043 A 
ATOM     23  C   UNL d   1      31.465 -17.876  -7.348  0.00  0.00     0.142 A 
ATOM     24  O   UNL d   1      31.579 -16.651  -7.919  0.00  0.00    -0.334 OA
ATOM     25  C   UNL d   1      30.713 -15.826  -7.269  0.00  0.00     0.158 A 
ENDBRANCH  18  21
ENDBRANCH   1  17
TORSDOF 4
ENDMDL
