MODEL 1
REMARK VINA RESULT:    -8.267      0.000      0.000
REMARK INTER + INTRA:         -12.019
REMARK INTER:                 -10.057
REMARK INTRA:                  -1.962
REMARK CONF_INDEPENDENT:        1.790
REMARK UNBOUND:                -1.962
REMARK  6 active torsions:
REMARK  status: ('A' for Active; 'I' for Inactive)
REMARK    1  A    between atoms: O_2  and  C_3 
REMARK       I    between atoms: C_3  and  N_5 
REMARK    2  A    between atoms: N_5  and  C_6 
REMARK    3  A    between atoms: C_8  and  N_9 
REMARK       I    between atoms: N_9  and  C_10 
REMARK    4  A    between atoms: C_10  and  C_12 
REMARK       I    between atoms: C_12  and  N_14 
REMARK    5  A    between atoms: N_14  and  C_15 
REMARK    6  A    between atoms: C_15  and  C_16 
ROOT
ATOM      1  N   UNL d   1      26.154 -14.682  -2.461  0.00  0.00    -0.319 N 
ATOM      2  C   UNL d   1      25.523 -13.987  -3.510  0.00  0.00     0.313 C 
ATOM      3  O   UNL d   1      24.397 -14.171  -3.967  0.00  0.00    -0.262 OA
ATOM      4  H   UNL d   1      27.103 -14.389  -2.236  0.00  0.00     0.169 HD
ENDROOT
BRANCH   1   5
ATOM      5  C   UNL d   1      25.574 -15.768  -1.719  0.00  0.00     0.037 A 
ATOM      6  C   UNL d   1      24.168 -15.973  -1.641  0.00  0.00     0.062 A 
ATOM      7  C   UNL d   1      23.631 -16.999  -0.815  0.00  0.00     0.077 A 
ATOM      8  C   UNL d   1      24.513 -17.880  -0.174  0.00  0.00     0.143 A 
ATOM      9  C   UNL d   1      25.880 -17.715  -0.273  0.00  0.00     0.047 A 
ATOM     10  F   UNL d   1      24.059 -18.950   0.495  0.00  0.00    -0.204 F 
ATOM     11  C   UNL d   1      26.395 -16.658  -1.015  0.00  0.00     0.032 A 
BRANCH   7  12
ATOM     12  N   UNL d   1      22.230 -17.142  -0.592  0.00  0.00    -0.300 N 
ATOM     13  C   UNL d   1      21.534 -18.250  -1.058  0.00  0.00     0.364 C 
ATOM     14  O   UNL d   1      22.032 -19.210  -1.646  0.00  0.00    -0.238 OA
ATOM     15  H   UNL d   1      21.755 -16.560   0.083  0.00  0.00     0.171 HD
BRANCH  13  16
ATOM     16  O   UNL d   1      20.215 -18.212  -0.706  0.00  0.00    -0.309 OA
ATOM     17  C   UNL d   1      19.671 -19.508  -0.376  0.00  0.00     0.215 C 
ENDBRANCH  13  16
ENDBRANCH   7  12
ENDBRANCH   1   5
BRANCH   2  18
ATOM     18  C   UNL d   1      26.317 -12.835  -4.177  0.00  0.00     0.309 C 
ATOM     19  O   UNL d   1      27.518 -12.719  -3.987  0.00  0.00    -0.262 OA
ATOM     20  N   UNL d   1      25.533 -11.997  -4.965  0.00  0.00    -0.349 N 
ATOM     21  H   UNL d   1      24.550 -12.241  -5.068  0.00  0.00     0.163 HD
BRANCH  20  22
ATOM     22  C   UNL d   1      26.080 -10.870  -5.695  0.00  0.00     0.163 C 
BRANCH  22  23
ATOM     23  C   UNL d   1      25.464  -9.543  -5.299  0.00  0.00    -0.019 A 
ATOM     24  C   UNL d   1      24.524  -8.918  -6.145  0.00  0.00     0.010 A 
ATOM     25  C   UNL d   1      23.980  -7.666  -5.826  0.00  0.00     0.001 A 
ATOM     26  C   UNL d   1      24.344  -7.026  -4.644  0.00  0.00     0.002 A 
ATOM     27  C   UNL d   1      25.238  -7.645  -3.775  0.00  0.00     0.024 A 
ATOM     28  C   UNL d   1      25.792  -8.891  -4.096  0.00  0.00     0.042 A 
ATOM     29 CL   UNL d   1      26.893  -9.566  -2.946  0.00  0.00    -0.084 Cl
ENDBRANCH  22  23
ENDBRANCH  20  22
ENDBRANCH   2  18
TORSDOF 6
ENDMDL
MODEL 2
REMARK VINA RESULT:    -8.009      1.066      1.536
REMARK INTER + INTRA:         -11.730
REMARK INTER:                  -9.799
REMARK INTRA:                  -1.932
REMARK CONF_INDEPENDENT:        1.790
REMARK UNBOUND:                -1.932
REMARK  6 active torsions:
REMARK  status: ('A' for Active; 'I' for Inactive)
REMARK    1  A    between atoms: O_2  and  C_3 
REMARK       I    between atoms: C_3  and  N_5 
REMARK    2  A    between atoms: N_5  and  C_6 
REMARK    3  A    between atoms: C_8  and  N_9 
REMARK       I    between atoms: N_9  and  C_10 
REMARK    4  A    between atoms: C_10  and  C_12 
REMARK       I    between atoms: C_12  and  N_14 
REMARK    5  A    between atoms: N_14  and  C_15 
REMARK    6  A    between atoms: C_15  and  C_16 
ROOT
ATOM      1  N   UNL d   1      26.030 -14.646  -2.304  0.00  0.00    -0.319 N 
ATOM      2  C   UNL d   1      25.478 -13.951  -3.397  0.00  0.00     0.313 C 
ATOM      3  O   UNL d   1      24.427 -14.187  -3.988  0.00  0.00    -0.262 OA
ATOM      4  H   UNL d   1      26.925 -14.304  -1.960  0.00  0.00     0.169 HD
ENDROOT
BRANCH   1   5
ATOM      5  C   UNL d   1      25.442 -15.794  -1.668  0.00  0.00     0.037 A 
ATOM      6  C   UNL d   1      24.034 -15.991  -1.603  0.00  0.00     0.062 A 
ATOM      7  C   UNL d   1      23.490 -17.089  -0.879  0.00  0.00     0.077 A 
ATOM      8  C   UNL d   1      24.365 -18.037  -0.332  0.00  0.00     0.143 A 
ATOM      9  C   UNL d   1      25.733 -17.877  -0.422  0.00  0.00     0.047 A 
ATOM     10  F   UNL d   1      23.903 -19.162   0.230  0.00  0.00    -0.204 F 
ATOM     11  C   UNL d   1      26.256 -16.757  -1.060  0.00  0.00     0.032 A 
BRANCH   7  12
ATOM     12  N   UNL d   1      22.088 -17.238  -0.664  0.00  0.00    -0.300 N 
ATOM     13  C   UNL d   1      21.404 -18.359  -1.116  0.00  0.00     0.364 C 
ATOM     14  O   UNL d   1      21.913 -19.325  -1.684  0.00  0.00    -0.238 OA
ATOM     15  H   UNL d   1      21.604 -16.648  -0.002  0.00  0.00     0.171 HD
BRANCH  13  16
ATOM     16  O   UNL d   1      20.082 -18.326  -0.773  0.00  0.00    -0.309 OA
ATOM     17  C   UNL d   1      19.520 -19.631  -0.524  0.00  0.00     0.215 C 
ENDBRANCH  13  16
ENDBRANCH   7  12
ENDBRANCH   1   5
BRANCH   2  18
ATOM     18  C   UNL d   1      26.266 -12.728  -3.930  0.00  0.00     0.309 C 
ATOM     19  O   UNL d   1      27.421 -12.535  -3.583  0.00  0.00    -0.262 OA
ATOM     20  N   UNL d   1      25.530 -11.922  -4.795  0.00  0.00    -0.349 N 
ATOM     21  H   UNL d   1      24.589 -12.230  -5.030  0.00  0.00     0.163 HD
BRANCH  20  22
ATOM     22  C   UNL d   1      26.083 -10.738  -5.423  0.00  0.00     0.163 C 
BRANCH  22  23
ATOM     23  C   UNL d   1      26.048  -9.514  -4.530  0.00  0.00    -0.019 A 
ATOM     24  C   UNL d   1      26.925  -9.416  -3.430  0.00  0.00     0.010 A 
ATOM     25  C   UNL d   1      26.876  -8.318  -2.559  0.00  0.00     0.001 A 
ATOM     26  C   UNL d   1      25.969  -7.287  -2.784  0.00  0.00     0.002 A 
ATOM     27  C   UNL d   1      25.123  -7.345  -3.888  0.00  0.00     0.024 A 
ATOM     28  C   UNL d   1      25.161  -8.445  -4.754  0.00  0.00     0.042 A 
ATOM     29 CL   UNL d   1      24.065  -8.415  -6.091  0.00  0.00    -0.084 Cl
ENDBRANCH  22  23
ENDBRANCH  20  22
ENDBRANCH   2  18
TORSDOF 6
ENDMDL
MODEL 3
REMARK VINA RESULT:    -7.922      7.714     10.022
REMARK INTER + INTRA:         -10.835
REMARK INTER:                  -9.712
REMARK INTRA:                  -1.123
REMARK CONF_INDEPENDENT:        1.790
REMARK UNBOUND:                -1.123
REMARK  6 active torsions:
REMARK  status: ('A' for Active; 'I' for Inactive)
REMARK    1  A    between atoms: O_2  and  C_3 
REMARK       I    between atoms: C_3  and  N_5 
REMARK    2  A    between atoms: N_5  and  C_6 
REMARK    3  A    between atoms: C_8  and  N_9 
REMARK       I    between atoms: N_9  and  C_10 
REMARK    4  A    between atoms: C_10  and  C_12 
REMARK       I    between atoms: C_12  and  N_14 
REMARK    5  A    between atoms: N_14  and  C_15 
REMARK    6  A    between atoms: C_15  and  C_16 
ROOT
ATOM      1  N   UNL d   1      28.662 -14.595   3.425  0.00  0.00    -0.319 N 
ATOM      2  C   UNL d   1      27.882 -13.881   2.495  0.00  0.00     0.313 C 
ATOM      3  O   UNL d   1      27.535 -12.703   2.547  0.00  0.00    -0.262 OA
ATOM      4  H   UNL d   1      28.831 -15.575   3.209  0.00  0.00     0.169 HD
ENDROOT
BRANCH   1   5
ATOM      5  C   UNL d   1      29.203 -14.053   4.641  0.00  0.00     0.037 A 
ATOM      6  C   UNL d   1      28.932 -14.623   5.917  0.00  0.00     0.062 A 
ATOM      7  C   UNL d   1      29.405 -13.998   7.104  0.00  0.00     0.077 A 
ATOM      8  C   UNL d   1      30.243 -12.880   6.990  0.00  0.00     0.143 A 
ATOM      9  C   UNL d   1      30.545 -12.341   5.756  0.00  0.00     0.047 A 
ATOM     10  F   UNL d   1      30.833 -12.345   8.068  0.00  0.00    -0.204 F 
ATOM     11  C   UNL d   1      30.009 -12.909   4.605  0.00  0.00     0.032 A 
BRANCH   7  12
ATOM     12  N   UNL d   1      29.031 -14.451   8.403  0.00  0.00    -0.300 N 
ATOM     13  C   UNL d   1      28.436 -13.596   9.322  0.00  0.00     0.364 C 
ATOM     14  O   UNL d   1      28.135 -12.421   9.112  0.00  0.00    -0.238 OA
ATOM     15  H   UNL d   1      28.992 -15.438   8.611  0.00  0.00     0.171 HD
BRANCH  13  16
ATOM     16  O   UNL d   1      28.120 -14.235  10.487  0.00  0.00    -0.309 OA
ATOM     17  C   UNL d   1      28.207 -13.386  11.650  0.00  0.00     0.215 C 
ENDBRANCH  13  16
ENDBRANCH   7  12
ENDBRANCH   1   5
BRANCH   2  18
ATOM     18  C   UNL d   1      27.402 -14.646   1.236  0.00  0.00     0.309 C 
ATOM     19  O   UNL d   1      26.462 -14.229   0.576  0.00  0.00    -0.262 OA
ATOM     20  N   UNL d   1      28.128 -15.805   0.974  0.00  0.00    -0.349 N 
ATOM     21  H   UNL d   1      28.917 -16.008   1.585  0.00  0.00     0.163 HD
BRANCH  20  22
ATOM     22  C   UNL d   1      27.857 -16.658  -0.167  0.00  0.00     0.163 C 
BRANCH  22  23
ATOM     23  C   UNL d   1      26.388 -16.991  -0.330  0.00  0.00    -0.019 A 
ATOM     24  C   UNL d   1      25.748 -17.844   0.594  0.00  0.00     0.010 A 
ATOM     25  C   UNL d   1      24.404 -18.209   0.434  0.00  0.00     0.001 A 
ATOM     26  C   UNL d   1      23.667 -17.710  -0.637  0.00  0.00     0.002 A 
ATOM     27  C   UNL d   1      24.268 -16.835  -1.537  0.00  0.00     0.024 A 
ATOM     28  C   UNL d   1      25.614 -16.477  -1.387  0.00  0.00     0.042 A 
ATOM     29 CL   UNL d   1      26.259 -15.386  -2.563  0.00  0.00    -0.084 Cl
ENDBRANCH  22  23
ENDBRANCH  20  22
ENDBRANCH   2  18
TORSDOF 6
ENDMDL
MODEL 4
REMARK VINA RESULT:    -7.869      1.973      2.988
REMARK INTER + INTRA:         -11.644
REMARK INTER:                  -9.658
REMARK INTRA:                  -1.985
REMARK CONF_INDEPENDENT:        1.790
REMARK UNBOUND:                -1.985
REMARK  6 active torsions:
REMARK  status: ('A' for Active; 'I' for Inactive)
REMARK    1  A    between atoms: O_2  and  C_3 
REMARK       I    between atoms: C_3  and  N_5 
REMARK    2  A    between atoms: N_5  and  C_6 
REMARK    3  A    between atoms: C_8  and  N_9 
REMARK       I    between atoms: N_9  and  C_10 
REMARK    4  A    between atoms: C_10  and  C_12 
REMARK       I    between atoms: C_12  and  N_14 
REMARK    5  A    between atoms: N_14  and  C_15 
REMARK    6  A    between atoms: C_15  and  C_16 
ROOT
ATOM      1  N   UNL d   1      25.837 -14.554  -2.287  0.00  0.00    -0.319 N 
ATOM      2  C   UNL d   1      25.395 -14.023  -3.514  0.00  0.00     0.313 C 
ATOM      3  O   UNL d   1      24.503 -14.450  -4.244  0.00  0.00    -0.262 OA
ATOM      4  H   UNL d   1      26.605 -14.062  -1.836  0.00  0.00     0.169 HD
ENDROOT
BRANCH   1   5
ATOM      5  C   UNL d   1      25.306 -15.731  -1.654  0.00  0.00     0.037 A 
ATOM      6  C   UNL d   1      23.908 -15.965  -1.530  0.00  0.00     0.062 A 
ATOM      7  C   UNL d   1      23.424 -17.092  -0.809  0.00  0.00     0.077 A 
ATOM      8  C   UNL d   1      24.346 -18.030  -0.326  0.00  0.00     0.143 A 
ATOM      9  C   UNL d   1      25.704 -17.834  -0.474  0.00  0.00     0.047 A 
ATOM     10  F   UNL d   1      23.937 -19.180   0.230  0.00  0.00    -0.204 F 
ATOM     11  C   UNL d   1      26.171 -16.687  -1.107  0.00  0.00     0.032 A 
BRANCH   7  12
ATOM     12  N   UNL d   1      22.038 -17.281  -0.534  0.00  0.00    -0.300 N 
ATOM     13  C   UNL d   1      21.354 -18.394  -1.007  0.00  0.00     0.364 C 
ATOM     14  O   UNL d   1      21.853 -19.320  -1.645  0.00  0.00    -0.238 OA
ATOM     15  H   UNL d   1      21.576 -16.735   0.178  0.00  0.00     0.171 HD
BRANCH  13  16
ATOM     16  O   UNL d   1      20.050 -18.405  -0.600  0.00  0.00    -0.309 OA
ATOM     17  C   UNL d   1      19.602 -19.698  -0.140  0.00  0.00     0.215 C 
ENDBRANCH  13  16
ENDBRANCH   7  12
ENDBRANCH   1   5
BRANCH   2  18
ATOM     18  C   UNL d   1      26.093 -12.736  -4.022  0.00  0.00     0.309 C 
ATOM     19  O   UNL d   1      26.965 -12.199  -3.356  0.00  0.00    -0.262 OA
ATOM     20  N   UNL d   1      25.620 -12.291  -5.254  0.00  0.00    -0.349 N 
ATOM     21  H   UNL d   1      24.918 -12.865  -5.716  0.00  0.00     0.163 HD
BRANCH  20  22
ATOM     22  C   UNL d   1      26.150 -11.117  -5.919  0.00  0.00     0.163 C 
BRANCH  22  23
ATOM     23  C   UNL d   1      26.815 -11.428  -7.244  0.00  0.00    -0.019 A 
ATOM     24  C   UNL d   1      26.287 -10.902  -8.442  0.00  0.00     0.010 A 
ATOM     25  C   UNL d   1      26.854 -11.218  -9.685  0.00  0.00     0.001 A 
ATOM     26  C   UNL d   1      27.972 -12.044  -9.754  0.00  0.00     0.002 A 
ATOM     27  C   UNL d   1      28.533 -12.541  -8.581  0.00  0.00     0.024 A 
ATOM     28  C   UNL d   1      27.963 -12.236  -7.338  0.00  0.00     0.042 A 
ATOM     29 CL   UNL d   1      28.740 -12.908  -5.947  0.00  0.00    -0.084 Cl
ENDBRANCH  22  23
ENDBRANCH  20  22
ENDBRANCH   2  18
TORSDOF 6
ENDMDL
MODEL 5
REMARK VINA RESULT:    -7.691      7.885     10.089
REMARK INTER + INTRA:         -11.209
REMARK INTER:                  -9.481
REMARK INTRA:                  -1.728
REMARK CONF_INDEPENDENT:        1.790
REMARK UNBOUND:                -1.728
REMARK  6 active torsions:
REMARK  status: ('A' for Active; 'I' for Inactive)
REMARK    1  A    between atoms: O_2  and  C_3 
REMARK       I    between atoms: C_3  and  N_5 
REMARK    2  A    between atoms: N_5  and  C_6 
REMARK    3  A    between atoms: C_8  and  N_9 
REMARK       I    between atoms: N_9  and  C_10 
REMARK    4  A    between atoms: C_10  and  C_12 
REMARK       I    between atoms: C_12  and  N_14 
REMARK    5  A    between atoms: N_14  and  C_15 
REMARK    6  A    between atoms: C_15  and  C_16 
ROOT
ATOM      1  N   UNL d   1      28.311 -14.451   3.582  0.00  0.00    -0.319 N 
ATOM      2  C   UNL d   1      27.439 -14.036   2.557  0.00  0.00     0.313 C 
ATOM      3  O   UNL d   1      26.684 -13.067   2.555  0.00  0.00    -0.262 OA
ATOM      4  H   UNL d   1      28.849 -15.295   3.399  0.00  0.00     0.169 HD
ENDROOT
BRANCH   1   5
ATOM      5  C   UNL d   1      28.473 -13.792   4.849  0.00  0.00     0.037 A 
ATOM      6  C   UNL d   1      29.046 -14.441   5.978  0.00  0.00     0.062 A 
ATOM      7  C   UNL d   1      29.097 -13.786   7.241  0.00  0.00     0.077 A 
ATOM      8  C   UNL d   1      28.683 -12.450   7.326  0.00  0.00     0.143 A 
ATOM      9  C   UNL d   1      28.160 -11.797   6.228  0.00  0.00     0.047 A 
ATOM     10  F   UNL d   1      28.847 -11.745   8.454  0.00  0.00    -0.204 F 
ATOM     11  C   UNL d   1      28.036 -12.472   5.018  0.00  0.00     0.032 A 
BRANCH   7  12
ATOM     12  N   UNL d   1      29.525 -14.453   8.426  0.00  0.00    -0.300 N 
ATOM     13  C   UNL d   1      28.828 -14.321   9.620  0.00  0.00     0.364 C 
ATOM     14  O   UNL d   1      27.787 -13.683   9.772  0.00  0.00    -0.238 OA
ATOM     15  H   UNL d   1      30.207 -15.196   8.380  0.00  0.00     0.171 HD
BRANCH  13  16
ATOM     16  O   UNL d   1      29.378 -15.070  10.621  0.00  0.00    -0.309 OA
ATOM     17  C   UNL d   1      30.816 -14.964  10.695  0.00  0.00     0.215 C 
ENDBRANCH  13  16
ENDBRANCH   7  12
ENDBRANCH   1   5
BRANCH   2  18
ATOM     18  C   UNL d   1      27.420 -14.880   1.258  0.00  0.00     0.309 C 
ATOM     19  O   UNL d   1      28.346 -15.632   0.993  0.00  0.00    -0.262 OA
ATOM     20  N   UNL d   1      26.287 -14.676   0.474  0.00  0.00    -0.349 N 
ATOM     21  H   UNL d   1      25.574 -14.050   0.842  0.00  0.00     0.163 HD
BRANCH  20  22
ATOM     22  C   UNL d   1      26.060 -15.380  -0.773  0.00  0.00     0.163 C 
BRANCH  22  23
ATOM     23  C   UNL d   1      25.004 -16.462  -0.666  0.00  0.00    -0.019 A 
ATOM     24  C   UNL d   1      23.670 -16.188  -1.033  0.00  0.00     0.010 A 
ATOM     25  C   UNL d   1      22.665 -17.156  -0.894  0.00  0.00     0.001 A 
ATOM     26  C   UNL d   1      22.978 -18.423  -0.410  0.00  0.00     0.002 A 
ATOM     27  C   UNL d   1      24.296 -18.728  -0.081  0.00  0.00     0.024 A 
ATOM     28  C   UNL d   1      25.300 -17.759  -0.208  0.00  0.00     0.042 A 
ATOM     29 CL   UNL d   1      26.901 -18.244   0.231  0.00  0.00    -0.084 Cl
ENDBRANCH  22  23
ENDBRANCH  20  22
ENDBRANCH   2  18
TORSDOF 6
ENDMDL
MODEL 6
REMARK VINA RESULT:    -7.491      5.627      8.948
REMARK INTER + INTRA:         -10.374
REMARK INTER:                  -9.281
REMARK INTRA:                  -1.093
REMARK CONF_INDEPENDENT:        1.790
REMARK UNBOUND:                -1.093
REMARK  6 active torsions:
REMARK  status: ('A' for Active; 'I' for Inactive)
REMARK    1  A    between atoms: O_2  and  C_3 
REMARK       I    between atoms: C_3  and  N_5 
REMARK    2  A    between atoms: N_5  and  C_6 
REMARK    3  A    between atoms: C_8  and  N_9 
REMARK       I    between atoms: N_9  and  C_10 
REMARK    4  A    between atoms: C_10  and  C_12 
REMARK       I    between atoms: C_12  and  N_14 
REMARK    5  A    between atoms: N_14  and  C_15 
REMARK    6  A    between atoms: C_15  and  C_16 
ROOT
ATOM      1  N   UNL d   1      28.194 -15.529  -4.370  0.00  0.00    -0.319 N 
ATOM      2  C   UNL d   1      26.824 -15.427  -4.677  0.00  0.00     0.313 C 
ATOM      3  O   UNL d   1      26.282 -15.574  -5.770  0.00  0.00    -0.262 OA
ATOM      4  H   UNL d   1      28.451 -15.356  -3.400  0.00  0.00     0.169 HD
ENDROOT
BRANCH   1   5
ATOM      5  C   UNL d   1      29.235 -15.831  -5.315  0.00  0.00     0.037 A 
ATOM      6  C   UNL d   1      29.916 -17.080  -5.326  0.00  0.00     0.062 A 
ATOM      7  C   UNL d   1      31.007 -17.301  -6.212  0.00  0.00     0.077 A 
ATOM      8  C   UNL d   1      31.322 -16.313  -7.155  0.00  0.00     0.143 A 
ATOM      9  C   UNL d   1      30.643 -15.112  -7.179  0.00  0.00     0.047 A 
ATOM     10  F   UNL d   1      32.242 -16.531  -8.105  0.00  0.00    -0.204 F 
ATOM     11  C   UNL d   1      29.633 -14.871  -6.254  0.00  0.00     0.032 A 
BRANCH   7  12
ATOM     12  N   UNL d   1      31.810 -18.478  -6.152  0.00  0.00    -0.300 N 
ATOM     13  C   UNL d   1      31.235 -19.743  -6.128  0.00  0.00     0.364 C 
ATOM     14  O   UNL d   1      30.030 -19.980  -6.201  0.00  0.00    -0.238 OA
ATOM     15  H   UNL d   1      32.801 -18.435  -6.339  0.00  0.00     0.171 HD
BRANCH  13  16
ATOM     16  O   UNL d   1      32.176 -20.733  -6.111  0.00  0.00    -0.309 OA
ATOM     17  C   UNL d   1      31.947 -21.761  -7.097  0.00  0.00     0.215 C 
ENDBRANCH  13  16
ENDBRANCH   7  12
ENDBRANCH   1   5
BRANCH   2  18
ATOM     18  C   UNL d   1      25.858 -15.104  -3.509  0.00  0.00     0.309 C 
ATOM     19  O   UNL d   1      24.827 -14.480  -3.711  0.00  0.00    -0.262 OA
ATOM     20  N   UNL d   1      26.293 -15.577  -2.274  0.00  0.00    -0.349 N 
ATOM     21  H   UNL d   1      27.154 -16.120  -2.262  0.00  0.00     0.163 HD
BRANCH  20  22
ATOM     22  C   UNL d   1      25.531 -15.400  -1.054  0.00  0.00     0.163 C 
BRANCH  22  23
ATOM     23  C   UNL d   1      24.554 -16.528  -0.789  0.00  0.00    -0.019 A 
ATOM     24  C   UNL d   1      23.170 -16.325  -0.974  0.00  0.00     0.010 A 
ATOM     25  C   UNL d   1      22.243 -17.337  -0.684  0.00  0.00     0.001 A 
ATOM     26  C   UNL d   1      22.681 -18.577  -0.230  0.00  0.00     0.002 A 
ATOM     27  C   UNL d   1      24.045 -18.812  -0.080  0.00  0.00     0.024 A 
ATOM     28  C   UNL d   1      24.974 -17.800  -0.358  0.00  0.00     0.042 A 
ATOM     29 CL   UNL d   1      26.641 -18.200  -0.135  0.00  0.00    -0.084 Cl
ENDBRANCH  22  23
ENDBRANCH  20  22
ENDBRANCH   2  18
TORSDOF 6
ENDMDL
MODEL 7
REMARK VINA RESULT:    -6.794      6.641      9.641
REMARK INTER + INTRA:         -10.487
REMARK INTER:                  -8.584
REMARK INTRA:                  -1.904
REMARK CONF_INDEPENDENT:        1.790
REMARK UNBOUND:                -1.904
REMARK  6 active torsions:
REMARK  status: ('A' for Active; 'I' for Inactive)
REMARK    1  A    between atoms: O_2  and  C_3 
REMARK       I    between atoms: C_3  and  N_5 
REMARK    2  A    between atoms: N_5  and  C_6 
REMARK    3  A    between atoms: C_8  and  N_9 
REMARK       I    between atoms: N_9  and  C_10 
REMARK    4  A    between atoms: C_10  and  C_12 
REMARK       I    between atoms: C_12  and  N_14 
REMARK    5  A    between atoms: N_14  and  C_15 
REMARK    6  A    between atoms: C_15  and  C_16 
ROOT
ATOM      1  N   UNL d   1      28.051 -14.240   3.172  0.00  0.00    -0.319 N 
ATOM      2  C   UNL d   1      27.297 -13.960   2.016  0.00  0.00     0.313 C 
ATOM      3  O   UNL d   1      26.691 -12.927   1.743  0.00  0.00    -0.262 OA
ATOM      4  H   UNL d   1      28.469 -15.167   3.220  0.00  0.00     0.169 HD
ENDROOT
BRANCH   1   5
ATOM      5  C   UNL d   1      28.247 -13.337   4.272  0.00  0.00     0.037 A 
ATOM      6  C   UNL d   1      27.955 -11.947   4.180  0.00  0.00     0.062 A 
ATOM      7  C   UNL d   1      28.257 -11.071   5.260  0.00  0.00     0.077 A 
ATOM      8  C   UNL d   1      28.736 -11.617   6.458  0.00  0.00     0.143 A 
ATOM      9  C   UNL d   1      28.987 -12.970   6.573  0.00  0.00     0.047 A 
ATOM     10  F   UNL d   1      28.896 -10.856   7.550  0.00  0.00    -0.204 F 
ATOM     11  C   UNL d   1      28.768 -13.807   5.485  0.00  0.00     0.032 A 
BRANCH   7  12
ATOM     12  N   UNL d   1      28.120  -9.656   5.152  0.00  0.00    -0.300 N 
ATOM     13  C   UNL d   1      27.138  -9.085   4.353  0.00  0.00     0.364 C 
ATOM     14  O   UNL d   1      26.287  -9.705   3.715  0.00  0.00    -0.238 OA
ATOM     15  H   UNL d   1      28.582  -9.044   5.808  0.00  0.00     0.171 HD
BRANCH  13  16
ATOM     16  O   UNL d   1      27.151  -7.721   4.420  0.00  0.00    -0.309 OA
ATOM     17  C   UNL d   1      28.058  -7.107   3.481  0.00  0.00     0.215 C 
ENDBRANCH  13  16
ENDBRANCH   7  12
ENDBRANCH   1   5
BRANCH   2  18
ATOM     18  C   UNL d   1      27.217 -15.068   0.935  0.00  0.00     0.309 C 
ATOM     19  O   UNL d   1      27.985 -16.018   0.962  0.00  0.00    -0.262 OA
ATOM     20  N   UNL d   1      26.226 -14.850  -0.018  0.00  0.00    -0.349 N 
ATOM     21  H   UNL d   1      25.629 -14.036   0.110  0.00  0.00     0.163 HD
BRANCH  20  22
ATOM     22  C   UNL d   1      25.967 -15.774  -1.105  0.00  0.00     0.163 C 
BRANCH  22  23
ATOM     23  C   UNL d   1      24.811 -16.714  -0.831  0.00  0.00    -0.019 A 
ATOM     24  C   UNL d   1      23.497 -16.342  -1.186  0.00  0.00     0.010 A 
ATOM     25  C   UNL d   1      22.404 -17.171  -0.895  0.00  0.00     0.001 A 
ATOM     26  C   UNL d   1      22.604 -18.397  -0.267  0.00  0.00     0.002 A 
ATOM     27  C   UNL d   1      23.897 -18.802   0.055  0.00  0.00     0.024 A 
ATOM     28  C   UNL d   1      24.990 -17.971  -0.225  0.00  0.00     0.042 A 
ATOM     29 CL   UNL d   1      26.549 -18.571   0.220  0.00  0.00    -0.084 Cl
ENDBRANCH  22  23
ENDBRANCH  20  22
ENDBRANCH   2  18
TORSDOF 6
ENDMDL
MODEL 8
REMARK VINA RESULT:    -6.644      4.261      9.311
REMARK INTER + INTRA:         -10.385
REMARK INTER:                  -8.433
REMARK INTRA:                  -1.952
REMARK CONF_INDEPENDENT:        1.790
REMARK UNBOUND:                -1.952
REMARK  6 active torsions:
REMARK  status: ('A' for Active; 'I' for Inactive)
REMARK    1  A    between atoms: O_2  and  C_3 
REMARK       I    between atoms: C_3  and  N_5 
REMARK    2  A    between atoms: N_5  and  C_6 
REMARK    3  A    between atoms: C_8  and  N_9 
REMARK       I    between atoms: N_9  and  C_10 
REMARK    4  A    between atoms: C_10  and  C_12 
REMARK       I    between atoms: C_12  and  N_14 
REMARK    5  A    between atoms: N_14  and  C_15 
REMARK    6  A    between atoms: C_15  and  C_16 
ROOT
ATOM      1  N   UNL d   1      25.307 -11.393  -3.909  0.00  0.00    -0.319 N 
ATOM      2  C   UNL d   1      25.683 -12.455  -3.064  0.00  0.00     0.313 C 
ATOM      3  O   UNL d   1      26.246 -12.388  -1.974  0.00  0.00    -0.262 OA
ATOM      4  H   UNL d   1      24.860 -11.654  -4.786  0.00  0.00     0.169 HD
ENDROOT
BRANCH   1   5
ATOM      5  C   UNL d   1      25.526  -9.999  -3.636  0.00  0.00     0.037 A 
ATOM      6  C   UNL d   1      26.017  -9.535  -2.384  0.00  0.00     0.062 A 
ATOM      7  C   UNL d   1      26.125  -8.141  -2.121  0.00  0.00     0.077 A 
ATOM      8  C   UNL d   1      25.854  -7.236  -3.156  0.00  0.00     0.143 A 
ATOM      9  C   UNL d   1      25.414  -7.675  -4.388  0.00  0.00     0.047 A 
ATOM     10  F   UNL d   1      26.082  -5.923  -3.004  0.00  0.00    -0.204 F 
ATOM     11  C   UNL d   1      25.231  -9.036  -4.610  0.00  0.00     0.032 A 
BRANCH   7  12
ATOM     12  N   UNL d   1      26.469  -7.635  -0.833  0.00  0.00    -0.300 N 
ATOM     13  C   UNL d   1      25.549  -7.624   0.208  0.00  0.00     0.364 C 
ATOM     14  O   UNL d   1      24.404  -8.072   0.152  0.00  0.00    -0.238 OA
ATOM     15  H   UNL d   1      27.434  -7.473  -0.585  0.00  0.00     0.171 HD
BRANCH  13  16
ATOM     16  O   UNL d   1      26.088  -7.137   1.364  0.00  0.00    -0.309 OA
ATOM     17  C   UNL d   1      25.804  -5.740   1.588  0.00  0.00     0.215 C 
ENDBRANCH  13  16
ENDBRANCH   7  12
ENDBRANCH   1   5
BRANCH   2  18
ATOM     18  C   UNL d   1      25.345 -13.891  -3.537  0.00  0.00     0.309 C 
ATOM     19  O   UNL d   1      24.779 -14.077  -4.604  0.00  0.00    -0.262 OA
ATOM     20  N   UNL d   1      25.736 -14.883  -2.641  0.00  0.00    -0.349 N 
ATOM     21  H   UNL d   1      26.239 -14.584  -1.807  0.00  0.00     0.163 HD
BRANCH  20  22
ATOM     22  C   UNL d   1      25.533 -16.295  -2.897  0.00  0.00     0.163 C 
BRANCH  22  23
ATOM     23  C   UNL d   1      25.013 -17.054  -1.693  0.00  0.00    -0.019 A 
ATOM     24  C   UNL d   1      23.664 -17.465  -1.643  0.00  0.00     0.010 A 
ATOM     25  C   UNL d   1      23.147 -18.122  -0.518  0.00  0.00     0.001 A 
ATOM     26  C   UNL d   1      23.971 -18.403   0.568  0.00  0.00     0.002 A 
ATOM     27  C   UNL d   1      25.314 -18.042   0.523  0.00  0.00     0.024 A 
ATOM     28  C   UNL d   1      25.833 -17.376  -0.595  0.00  0.00     0.042 A 
ATOM     29 CL   UNL d   1      27.513 -16.973  -0.544  0.00  0.00    -0.084 Cl
ENDBRANCH  22  23
ENDBRANCH  20  22
ENDBRANCH   2  18
TORSDOF 6
ENDMDL
MODEL 9
REMARK VINA RESULT:    -6.611      4.375      9.804
REMARK INTER + INTRA:         -10.313
REMARK INTER:                  -8.401
REMARK INTRA:                  -1.911
REMARK CONF_INDEPENDENT:        1.790
REMARK UNBOUND:                -1.911
REMARK  6 active torsions:
REMARK  status: ('A' for Active; 'I' for Inactive)
REMARK    1  A    between atoms: O_2  and  C_3 
REMARK       I    between atoms: C_3  and  N_5 
REMARK    2  A    between atoms: N_5  and  C_6 
REMARK    3  A    between atoms: C_8  and  N_9 
REMARK       I    between atoms: N_9  and  C_10 
REMARK    4  A    between atoms: C_10  and  C_12 
REMARK       I    between atoms: C_12  and  N_14 
REMARK    5  A    between atoms: N_14  and  C_15 
REMARK    6  A    between atoms: C_15  and  C_16 
ROOT
ATOM      1  N   UNL d   1      25.532 -11.415  -4.442  0.00  0.00    -0.319 N 
ATOM      2  C   UNL d   1      25.878 -12.361  -3.458  0.00  0.00     0.313 C 
ATOM      3  O   UNL d   1      26.560 -12.188  -2.451  0.00  0.00    -0.262 OA
ATOM      4  H   UNL d   1      24.967 -11.758  -5.216  0.00  0.00     0.169 HD
ENDROOT
BRANCH   1   5
ATOM      5  C   UNL d   1      25.932 -10.034  -4.440  0.00  0.00     0.037 A 
ATOM      6  C   UNL d   1      25.054  -8.987  -4.043  0.00  0.00     0.062 A 
ATOM      7  C   UNL d   1      25.456  -7.626  -4.151  0.00  0.00     0.077 A 
ATOM      8  C   UNL d   1      26.771  -7.340  -4.542  0.00  0.00     0.143 A 
ATOM      9  C   UNL d   1      27.644  -8.349  -4.893  0.00  0.00     0.047 A 
ATOM     10  F   UNL d   1      27.243  -6.085  -4.518  0.00  0.00    -0.204 F 
ATOM     11  C   UNL d   1      27.217  -9.673  -4.865  0.00  0.00     0.032 A 
BRANCH   7  12
ATOM     12  N   UNL d   1      24.558  -6.546  -3.906  0.00  0.00    -0.300 N 
ATOM     13  C   UNL d   1      24.007  -5.815  -4.950  0.00  0.00     0.364 C 
ATOM     14  O   UNL d   1      24.185  -6.035  -6.147  0.00  0.00    -0.238 OA
ATOM     15  H   UNL d   1      24.138  -6.424  -2.996  0.00  0.00     0.171 HD
BRANCH  13  16
ATOM     16  O   UNL d   1      23.144  -4.854  -4.504  0.00  0.00    -0.309 OA
ATOM     17  C   UNL d   1      21.816  -5.352  -4.240  0.00  0.00     0.215 C 
ENDBRANCH  13  16
ENDBRANCH   7  12
ENDBRANCH   1   5
BRANCH   2  18
ATOM     18  C   UNL d   1      25.335 -13.802  -3.638  0.00  0.00     0.309 C 
ATOM     19  O   UNL d   1      24.721 -14.112  -4.648  0.00  0.00    -0.262 OA
ATOM     20  N   UNL d   1      25.612 -14.643  -2.563  0.00  0.00    -0.349 N 
ATOM     21  H   UNL d   1      26.173 -14.259  -1.806  0.00  0.00     0.163 HD
BRANCH  20  22
ATOM     22  C   UNL d   1      25.212 -16.036  -2.535  0.00  0.00     0.163 C 
BRANCH  22  23
ATOM     23  C   UNL d   1      25.687 -16.771  -1.299  0.00  0.00    -0.019 A 
ATOM     24  C   UNL d   1      27.037 -16.685  -0.898  0.00  0.00     0.010 A 
ATOM     25  C   UNL d   1      27.512 -17.398   0.212  0.00  0.00     0.001 A 
ATOM     26  C   UNL d   1      26.644 -18.191   0.957  0.00  0.00     0.002 A 
ATOM     27  C   UNL d   1      25.299 -18.258   0.603  0.00  0.00     0.024 A 
ATOM     28  C   UNL d   1      24.823 -17.555  -0.511  0.00  0.00     0.042 A 
ATOM     29 CL   UNL d   1      23.137 -17.712  -0.861  0.00  0.00    -0.084 Cl
ENDBRANCH  22  23
ENDBRANCH  20  22
ENDBRANCH   2  18
TORSDOF 6
ENDMDL
