MODEL 1
REMARK VINA RESULT:   -10.726      0.000      0.000
REMARK INTER + INTRA:         -14.441
REMARK INTER:                 -13.410
REMARK INTRA:                  -1.031
REMARK CONF_INDEPENDENT:        2.685
REMARK UNBOUND:                -1.031
REMARK  9 active torsions:
REMARK  status: ('A' for Active; 'I' for Inactive)
REMARK    1  A    between atoms: C_2  and  N_12 
REMARK    2  A    between atoms: C_2  and  C_3 
REMARK    3  A    between atoms: C_3  and  C_4 
REMARK    4  A    between atoms: C_4  and  C_5 
REMARK    5  A    between atoms: C_8  and  O_9 
REMARK       I    between atoms: N_12  and  C_13 
REMARK    6  A    between atoms: C_13  and  C_15 
REMARK       I    between atoms: C_15  and  N_17 
REMARK    7  A    between atoms: N_17  and  C_18 
REMARK    8  A    between atoms: C_22  and  C_23 
REMARK    9  A    between atoms: C_23  and  N_24 
ROOT
ATOM      1  C   UNL d   1      27.714 -13.660   2.175  0.00  0.00     0.313 C 
ATOM      2  O   UNL d   1      27.457 -12.469   2.010  0.00  0.00    -0.262 OA
ATOM      3  N   UNL d   1      28.160 -14.248   3.384  0.00  0.00    -0.319 N 
ATOM      4  H   UNL d   1      28.500 -15.204   3.304  0.00  0.00     0.169 HD
ENDROOT
BRANCH   1   5
ATOM      5  C   UNL d   1      27.466 -14.627   0.955  0.00  0.00     0.310 C 
ATOM      6  N   UNL d   1      28.304 -15.763   0.931  0.00  0.00    -0.349 N 
ATOM      7  H   UNL d   1      29.006 -15.841   1.658  0.00  0.00     0.163 HD
ATOM      8  O   UNL d   1      26.613 -14.366   0.145  0.00  0.00    -0.262 OA
BRANCH   6   9
ATOM      9  C   UNL d   1      28.007 -16.953   0.111  0.00  0.00     0.081 C 
ATOM     10  C   UNL d   1      28.973 -17.033  -1.075  0.00  0.00     0.032 C 
BRANCH   9  11
ATOM     11  C   UNL d   1      26.556 -16.960  -0.441  0.00  0.00     0.029 C 
BRANCH  11  12
ATOM     12  C   UNL d   1      25.820 -18.257  -0.078  0.00  0.00     0.040 C 
BRANCH  12  13
ATOM     13  C   UNL d   1      24.345 -18.166  -0.387  0.00  0.00    -0.058 A 
ATOM     14  C   UNL d   1      23.546 -19.319  -0.409  0.00  0.00     0.010 A 
ATOM     15  C   UNL d   1      22.174 -19.228  -0.665  0.00  0.00     0.037 A 
ATOM     16  C   UNL d   1      21.603 -17.980  -0.895  0.00  0.00     0.065 A 
ATOM     17  C   UNL d   1      22.383 -16.830  -0.887  0.00  0.00     0.037 A 
ATOM     18  C   UNL d   1      23.751 -16.921  -0.636  0.00  0.00     0.010 A 
BRANCH  16  19
ATOM     19  O   UNL d   1      20.269 -17.825  -1.130  0.00  0.00    -0.361 OA
ATOM     20  H   UNL d   1      20.143 -17.208  -1.870  0.00  0.00     0.217 HD
ENDBRANCH  16  19
ENDBRANCH  12  13
ENDBRANCH  11  12
ENDBRANCH   9  11
ENDBRANCH   6   9
ENDBRANCH   1   5
BRANCH   3  21
ATOM     21  C   UNL d   1      28.212 -13.605   4.680  0.00  0.00     0.035 C 
ATOM     22  C   UNL d   1      27.744 -12.368   5.011  0.00  0.00     0.029 C 
ATOM     23  C   UNL d   1      28.019 -11.836   6.315  0.00  0.00     0.003 C 
ATOM     24  C   UNL d   1      28.867 -12.473   7.268  0.00  0.00     0.009 C 
ATOM     25  C   UNL d   1      29.467 -13.653   6.898  0.00  0.00    -0.030 C 
ATOM     26  C   UNL d   1      28.973 -14.148   5.695  0.00  0.00     0.038 C 
BRANCH  25  27
ATOM     27  C   UNL d   1      30.560 -14.449   7.611  0.00  0.00     0.273 C 
BRANCH  27  28
ATOM     28  N   UNL d   1      30.330 -14.842   9.155  0.00  0.00    -0.067 N 
ATOM     29  C   UNL d   1      28.859 -14.931   9.621  0.00  0.00     0.235 C 
ATOM     30  C   UNL d   1      28.558 -13.600  10.262  0.00  0.00     0.029 C 
ATOM     31  C   UNL d   1      29.891 -13.261  10.943  0.00  0.00     0.029 C 
ATOM     32  C   UNL d   1      31.045 -13.979  10.204  0.00  0.00     0.235 C 
ATOM     33  H   UNL d   1      30.733 -15.784   9.242  0.00  0.00     0.280 HD
ENDBRANCH  27  28
ENDBRANCH  25  27
ENDBRANCH   3  21
TORSDOF 9
ENDMDL
MODEL 2
REMARK VINA RESULT:    -9.644      1.080      1.454
REMARK INTER + INTRA:         -14.302
REMARK INTER:                 -12.328
REMARK INTRA:                  -1.974
REMARK CONF_INDEPENDENT:        2.685
REMARK UNBOUND:                -1.974
REMARK  9 active torsions:
REMARK  status: ('A' for Active; 'I' for Inactive)
REMARK    1  A    between atoms: C_2  and  N_12 
REMARK    2  A    between atoms: C_2  and  C_3 
REMARK    3  A    between atoms: C_3  and  C_4 
REMARK    4  A    between atoms: C_4  and  C_5 
REMARK    5  A    between atoms: C_8  and  O_9 
REMARK       I    between atoms: N_12  and  C_13 
REMARK    6  A    between atoms: C_13  and  C_15 
REMARK       I    between atoms: C_15  and  N_17 
REMARK    7  A    between atoms: N_17  and  C_18 
REMARK    8  A    between atoms: C_22  and  C_23 
REMARK    9  A    between atoms: C_23  and  N_24 
ROOT
ATOM      1  C   UNL d   1      27.965 -14.130   3.473  0.00  0.00     0.313 C 
ATOM      2  O   UNL d   1      28.548 -15.044   4.053  0.00  0.00    -0.262 OA
ATOM      3  N   UNL d   1      27.597 -12.890   4.049  0.00  0.00    -0.319 N 
ATOM      4  H   UNL d   1      26.964 -12.321   3.490  0.00  0.00     0.169 HD
ENDROOT
BRANCH   1   5
ATOM      5  C   UNL d   1      27.656 -14.329   1.941  0.00  0.00     0.310 C 
ATOM      6  N   UNL d   1      28.325 -15.422   1.348  0.00  0.00    -0.349 N 
ATOM      7  H   UNL d   1      28.966 -15.950   1.930  0.00  0.00     0.163 HD
ATOM      8  O   UNL d   1      26.897 -13.581   1.378  0.00  0.00    -0.262 OA
BRANCH   6   9
ATOM      9  C   UNL d   1      27.913 -16.001   0.054  0.00  0.00     0.081 C 
ATOM     10  C   UNL d   1      28.468 -15.163  -1.102  0.00  0.00     0.032 C 
BRANCH   9  11
ATOM     11  C   UNL d   1      26.371 -16.089  -0.104  0.00  0.00     0.029 C 
BRANCH  11  12
ATOM     12  C   UNL d   1      25.909 -17.534  -0.344  0.00  0.00     0.040 C 
BRANCH  12  13
ATOM     13  C   UNL d   1      24.412 -17.619  -0.514  0.00  0.00    -0.058 A 
ATOM     14  C   UNL d   1      23.646 -16.460  -0.704  0.00  0.00     0.010 A 
ATOM     15  C   UNL d   1      22.262 -16.545  -0.893  0.00  0.00     0.037 A 
ATOM     16  C   UNL d   1      21.649 -17.794  -0.895  0.00  0.00     0.065 A 
ATOM     17  C   UNL d   1      22.392 -18.951  -0.697  0.00  0.00     0.037 A 
ATOM     18  C   UNL d   1      23.770 -18.865  -0.505  0.00  0.00     0.010 A 
BRANCH  16  19
ATOM     19  O   UNL d   1      20.308 -17.943  -1.092  0.00  0.00    -0.361 OA
ATOM     20  H   UNL d   1      20.023 -17.358  -1.813  0.00  0.00     0.217 HD
ENDBRANCH  16  19
ENDBRANCH  12  13
ENDBRANCH  11  12
ENDBRANCH   9  11
ENDBRANCH   6   9
ENDBRANCH   1   5
BRANCH   3  21
ATOM     21  C   UNL d   1      28.000 -12.396   5.349  0.00  0.00     0.035 C 
ATOM     22  C   UNL d   1      27.945 -11.111   5.802  0.00  0.00     0.029 C 
ATOM     23  C   UNL d   1      28.531 -10.785   7.070  0.00  0.00     0.003 C 
ATOM     24  C   UNL d   1      29.288 -11.705   7.854  0.00  0.00     0.009 C 
ATOM     25  C   UNL d   1      29.478 -12.967   7.345  0.00  0.00    -0.030 C 
ATOM     26  C   UNL d   1      28.709 -13.208   6.211  0.00  0.00     0.038 C 
BRANCH  25  27
ATOM     27  C   UNL d   1      30.391 -14.087   7.847  0.00  0.00     0.273 C 
BRANCH  27  28
ATOM     28  N   UNL d   1      30.004 -14.823   9.225  0.00  0.00    -0.067 N 
ATOM     29  C   UNL d   1      28.547 -14.635   9.709  0.00  0.00     0.235 C 
ATOM     30  C   UNL d   1      28.599 -13.511  10.713  0.00  0.00     0.029 C 
ATOM     31  C   UNL d   1      29.947 -13.757  11.405  0.00  0.00     0.029 C 
ATOM     32  C   UNL d   1      30.887 -14.522  10.445  0.00  0.00     0.235 C 
ATOM     33  H   UNL d   1      30.130 -15.823   9.025  0.00  0.00     0.280 HD
ENDBRANCH  27  28
ENDBRANCH  25  27
ENDBRANCH   3  21
TORSDOF 9
ENDMDL
MODEL 3
REMARK VINA RESULT:    -9.611      1.472      2.073
REMARK INTER + INTRA:         -14.244
REMARK INTER:                 -12.295
REMARK INTRA:                  -1.948
REMARK CONF_INDEPENDENT:        2.685
REMARK UNBOUND:                -1.948
REMARK  9 active torsions:
REMARK  status: ('A' for Active; 'I' for Inactive)
REMARK    1  A    between atoms: C_2  and  N_12 
REMARK    2  A    between atoms: C_2  and  C_3 
REMARK    3  A    between atoms: C_3  and  C_4 
REMARK    4  A    between atoms: C_4  and  C_5 
REMARK    5  A    between atoms: C_8  and  O_9 
REMARK       I    between atoms: N_12  and  C_13 
REMARK    6  A    between atoms: C_13  and  C_15 
REMARK       I    between atoms: C_15  and  N_17 
REMARK    7  A    between atoms: N_17  and  C_18 
REMARK    8  A    between atoms: C_22  and  C_23 
REMARK    9  A    between atoms: C_23  and  N_24 
ROOT
ATOM      1  C   UNL d   1      27.921 -14.136   2.524  0.00  0.00     0.313 C 
ATOM      2  O   UNL d   1      26.988 -13.335   2.512  0.00  0.00    -0.262 OA
ATOM      3  N   UNL d   1      28.761 -14.407   3.632  0.00  0.00    -0.319 N 
ATOM      4  H   UNL d   1      29.592 -14.956   3.424  0.00  0.00     0.169 HD
ENDROOT
BRANCH   1   5
ATOM      5  C   UNL d   1      28.165 -14.979   1.215  0.00  0.00     0.310 C 
ATOM      6  N   UNL d   1      27.042 -15.076   0.365  0.00  0.00    -0.349 N 
ATOM      7  H   UNL d   1      26.181 -14.643   0.678  0.00  0.00     0.163 HD
ATOM      8  O   UNL d   1      29.247 -15.470   1.009  0.00  0.00    -0.262 OA
BRANCH   6   9
ATOM      9  C   UNL d   1      27.146 -15.493  -1.047  0.00  0.00     0.081 C 
ATOM     10  C   UNL d   1      26.232 -14.630  -1.922  0.00  0.00     0.032 C 
BRANCH   9  11
ATOM     11  C   UNL d   1      26.768 -16.982  -1.267  0.00  0.00     0.029 C 
BRANCH  11  12
ATOM     12  C   UNL d   1      26.014 -17.557  -0.059  0.00  0.00     0.040 C 
BRANCH  12  13
ATOM     13  C   UNL d   1      24.525 -17.606  -0.303  0.00  0.00    -0.058 A 
ATOM     14  C   UNL d   1      23.808 -16.434  -0.586  0.00  0.00     0.010 A 
ATOM     15  C   UNL d   1      22.433 -16.487  -0.843  0.00  0.00     0.037 A 
ATOM     16  C   UNL d   1      21.780 -17.715  -0.819  0.00  0.00     0.065 A 
ATOM     17  C   UNL d   1      22.474 -18.883  -0.529  0.00  0.00     0.037 A 
ATOM     18  C   UNL d   1      23.843 -18.830  -0.270  0.00  0.00     0.010 A 
BRANCH  16  19
ATOM     19  O   UNL d   1      20.447 -17.832  -1.079  0.00  0.00    -0.361 OA
ATOM     20  H   UNL d   1      20.284 -17.632  -2.015  0.00  0.00     0.217 HD
ENDBRANCH  16  19
ENDBRANCH  12  13
ENDBRANCH  11  12
ENDBRANCH   9  11
ENDBRANCH   6   9
ENDBRANCH   1   5
BRANCH   3  21
ATOM     21  C   UNL d   1      28.562 -13.945   4.989  0.00  0.00     0.035 C 
ATOM     22  C   UNL d   1      27.732 -12.950   5.414  0.00  0.00     0.029 C 
ATOM     23  C   UNL d   1      27.779 -12.529   6.784  0.00  0.00     0.003 C 
ATOM     24  C   UNL d   1      28.738 -13.004   7.727  0.00  0.00     0.009 C 
ATOM     25  C   UNL d   1      29.679 -13.901   7.280  0.00  0.00    -0.030 C 
ATOM     26  C   UNL d   1      29.407 -14.365   5.996  0.00  0.00     0.038 C 
BRANCH  25  27
ATOM     27  C   UNL d   1      30.929 -14.427   7.987  0.00  0.00     0.273 C 
BRANCH  27  28
ATOM     28  N   UNL d   1      32.191 -13.439   8.134  0.00  0.00    -0.067 N 
ATOM     29  C   UNL d   1      33.014 -13.578   9.436  0.00  0.00     0.235 C 
ATOM     30  C   UNL d   1      32.491 -12.506  10.358  0.00  0.00     0.029 C 
ATOM     31  C   UNL d   1      32.191 -11.359   9.384  0.00  0.00     0.029 C 
ATOM     32  C   UNL d   1      31.918 -11.936   7.976  0.00  0.00     0.235 C 
ATOM     33  H   UNL d   1      32.810 -13.697   7.355  0.00  0.00     0.280 HD
ENDBRANCH  27  28
ENDBRANCH  25  27
ENDBRANCH   3  21
TORSDOF 9
ENDMDL
MODEL 4
REMARK VINA RESULT:    -9.329      5.938      9.853
REMARK INTER + INTRA:         -13.557
REMARK INTER:                 -12.014
REMARK INTRA:                  -1.543
REMARK CONF_INDEPENDENT:        2.685
REMARK UNBOUND:                -1.543
REMARK  9 active torsions:
REMARK  status: ('A' for Active; 'I' for Inactive)
REMARK    1  A    between atoms: C_2  and  N_12 
REMARK    2  A    between atoms: C_2  and  C_3 
REMARK    3  A    between atoms: C_3  and  C_4 
REMARK    4  A    between atoms: C_4  and  C_5 
REMARK    5  A    between atoms: C_8  and  O_9 
REMARK       I    between atoms: N_12  and  C_13 
REMARK    6  A    between atoms: C_13  and  C_15 
REMARK       I    between atoms: C_15  and  N_17 
REMARK    7  A    between atoms: N_17  and  C_18 
REMARK    8  A    between atoms: C_22  and  C_23 
REMARK    9  A    between atoms: C_23  and  N_24 
ROOT
ATOM      1  C   UNL d   1      29.188 -16.950  -1.000  0.00  0.00     0.313 C 
ATOM      2  O   UNL d   1      28.915 -15.906  -1.590  0.00  0.00    -0.262 OA
ATOM      3  N   UNL d   1      28.277 -17.745  -0.263  0.00  0.00    -0.319 N 
ATOM      4  H   UNL d   1      28.698 -18.471   0.312  0.00  0.00     0.169 HD
ENDROOT
BRANCH   1   5
ATOM      5  C   UNL d   1      30.667 -17.482  -1.124  0.00  0.00     0.310 C 
ATOM      6  N   UNL d   1      31.233 -17.923   0.091  0.00  0.00    -0.349 N 
ATOM      7  H   UNL d   1      30.673 -17.825   0.931  0.00  0.00     0.163 HD
ATOM      8  O   UNL d   1      31.214 -17.492  -2.199  0.00  0.00    -0.262 OA
BRANCH   6   9
ATOM      9  C   UNL d   1      32.435 -18.777   0.146  0.00  0.00     0.081 C 
ATOM     10  C   UNL d   1      32.212 -20.058  -0.664  0.00  0.00     0.032 C 
BRANCH   9  11
ATOM     11  C   UNL d   1      32.826 -19.178   1.594  0.00  0.00     0.029 C 
BRANCH  11  12
ATOM     12  C   UNL d   1      32.566 -20.668   1.857  0.00  0.00     0.040 C 
BRANCH  12  13
ATOM     13  C   UNL d   1      32.057 -20.906   3.258  0.00  0.00    -0.058 A 
ATOM     14  C   UNL d   1      30.781 -21.446   3.474  0.00  0.00     0.010 A 
ATOM     15  C   UNL d   1      30.325 -21.695   4.773  0.00  0.00     0.037 A 
ATOM     16  C   UNL d   1      31.151 -21.406   5.855  0.00  0.00     0.065 A 
ATOM     17  C   UNL d   1      32.414 -20.861   5.658  0.00  0.00     0.037 A 
ATOM     18  C   UNL d   1      32.867 -20.610   4.363  0.00  0.00     0.010 A 
BRANCH  16  19
ATOM     19  O   UNL d   1      30.771 -21.644   7.142  0.00  0.00    -0.361 OA
ATOM     20  H   UNL d   1      30.078 -22.324   7.152  0.00  0.00     0.217 HD
ENDBRANCH  16  19
ENDBRANCH  12  13
ENDBRANCH  11  12
ENDBRANCH   9  11
ENDBRANCH   6   9
ENDBRANCH   1   5
BRANCH   3  21
ATOM     21  C   UNL d   1      26.838 -17.586  -0.227  0.00  0.00     0.035 C 
ATOM     22  C   UNL d   1      25.919 -18.463   0.269  0.00  0.00     0.029 C 
ATOM     23  C   UNL d   1      24.521 -18.201   0.082  0.00  0.00     0.003 C 
ATOM     24  C   UNL d   1      24.015 -17.127  -0.708  0.00  0.00     0.009 C 
ATOM     25  C   UNL d   1      24.928 -16.316  -1.338  0.00  0.00    -0.030 C 
ATOM     26  C   UNL d   1      26.235 -16.561  -0.926  0.00  0.00     0.038 C 
BRANCH  25  27
ATOM     27  C   UNL d   1      24.696 -15.229  -2.389  0.00  0.00     0.273 C 
BRANCH  27  28
ATOM     28  N   UNL d   1      25.980 -14.474  -3.000  0.00  0.00    -0.067 N 
ATOM     29  C   UNL d   1      26.109 -12.971  -2.661  0.00  0.00     0.235 C 
ATOM     30  C   UNL d   1      25.532 -12.241  -3.848  0.00  0.00     0.029 C 
ATOM     31  C   UNL d   1      25.973 -13.129  -5.020  0.00  0.00     0.029 C 
ATOM     32  C   UNL d   1      26.187 -14.577  -4.518  0.00  0.00     0.235 C 
ATOM     33  H   UNL d   1      26.784 -14.951  -2.572  0.00  0.00     0.280 HD
ENDBRANCH  27  28
ENDBRANCH  25  27
ENDBRANCH   3  21
TORSDOF 9
ENDMDL
MODEL 5
REMARK VINA RESULT:    -9.317      7.395      9.495
REMARK INTER + INTRA:         -13.918
REMARK INTER:                 -12.002
REMARK INTRA:                  -1.916
REMARK CONF_INDEPENDENT:        2.685
REMARK UNBOUND:                -1.916
REMARK  9 active torsions:
REMARK  status: ('A' for Active; 'I' for Inactive)
REMARK    1  A    between atoms: C_2  and  N_12 
REMARK    2  A    between atoms: C_2  and  C_3 
REMARK    3  A    between atoms: C_3  and  C_4 
REMARK    4  A    between atoms: C_4  and  C_5 
REMARK    5  A    between atoms: C_8  and  O_9 
REMARK       I    between atoms: N_12  and  C_13 
REMARK    6  A    between atoms: C_13  and  C_15 
REMARK       I    between atoms: C_15  and  N_17 
REMARK    7  A    between atoms: N_17  and  C_18 
REMARK    8  A    between atoms: C_22  and  C_23 
REMARK    9  A    between atoms: C_23  and  N_24 
ROOT
ATOM      1  C   UNL d   1      25.867 -15.434  -3.337  0.00  0.00     0.313 C 
ATOM      2  O   UNL d   1      24.936 -14.765  -3.780  0.00  0.00    -0.262 OA
ATOM      3  N   UNL d   1      27.157 -15.536  -3.912  0.00  0.00    -0.319 N 
ATOM      4  H   UNL d   1      27.750 -16.268  -3.526  0.00  0.00     0.169 HD
ENDROOT
BRANCH   1   5
ATOM      5  C   UNL d   1      25.625 -16.196  -1.979  0.00  0.00     0.310 C 
ATOM      6  N   UNL d   1      24.327 -16.041  -1.446  0.00  0.00    -0.349 N 
ATOM      7  H   UNL d   1      23.686 -15.434  -1.945  0.00  0.00     0.163 HD
ATOM      8  O   UNL d   1      26.513 -16.847  -1.487  0.00  0.00    -0.262 OA
BRANCH   6   9
ATOM      9  C   UNL d   1      23.781 -16.935  -0.407  0.00  0.00     0.081 C 
ATOM     10  C   UNL d   1      24.452 -18.311  -0.486  0.00  0.00     0.032 C 
BRANCH   9  11
ATOM     11  C   UNL d   1      22.246 -17.134  -0.527  0.00  0.00     0.029 C 
BRANCH  11  12
ATOM     12  C   UNL d   1      21.900 -18.498  -1.143  0.00  0.00     0.040 C 
BRANCH  12  13
ATOM     13  C   UNL d   1      20.784 -19.181  -0.392  0.00  0.00    -0.058 A 
ATOM     14  C   UNL d   1      19.673 -19.699  -1.075  0.00  0.00     0.010 A 
ATOM     15  C   UNL d   1      18.655 -20.360  -0.380  0.00  0.00     0.037 A 
ATOM     16  C   UNL d   1      18.754 -20.506   1.000  0.00  0.00     0.065 A 
ATOM     17  C   UNL d   1      19.842 -19.989   1.693  0.00  0.00     0.037 A 
ATOM     18  C   UNL d   1      20.854 -19.328   1.000  0.00  0.00     0.010 A 
BRANCH  16  19
ATOM     19  O   UNL d   1      17.804 -21.156   1.730  0.00  0.00    -0.361 OA
ATOM     20  H   UNL d   1      17.055 -21.382   1.155  0.00  0.00     0.217 HD
ENDBRANCH  16  19
ENDBRANCH  12  13
ENDBRANCH  11  12
ENDBRANCH   9  11
ENDBRANCH   6   9
ENDBRANCH   1   5
BRANCH   3  21
ATOM     21  C   UNL d   1      27.674 -14.734  -5.001  0.00  0.00     0.035 C 
ATOM     22  C   UNL d   1      28.899 -14.831  -5.593  0.00  0.00     0.029 C 
ATOM     23  C   UNL d   1      29.293 -13.849  -6.562  0.00  0.00     0.003 C 
ATOM     24  C   UNL d   1      28.527 -12.686  -6.869  0.00  0.00     0.009 C 
ATOM     25  C   UNL d   1      27.355 -12.495  -6.176  0.00  0.00    -0.030 C 
ATOM     26  C   UNL d   1      27.000 -13.603  -5.412  0.00  0.00     0.038 C 
BRANCH  25  27
ATOM     27  C   UNL d   1      26.439 -11.271  -6.141  0.00  0.00     0.273 C 
BRANCH  27  28
ATOM     28  N   UNL d   1      25.644 -10.955  -4.777  0.00  0.00    -0.067 N 
ATOM     29  C   UNL d   1      25.213  -9.485  -4.568  0.00  0.00     0.235 C 
ATOM     30  C   UNL d   1      26.280  -8.873  -3.695  0.00  0.00     0.029 C 
ATOM     31  C   UNL d   1      26.643 -10.038  -2.765  0.00  0.00     0.029 C 
ATOM     32  C   UNL d   1      26.320 -11.379  -3.466  0.00  0.00     0.235 C 
ATOM     33  H   UNL d   1      24.785 -11.516  -4.846  0.00  0.00     0.280 HD
ENDBRANCH  27  28
ENDBRANCH  25  27
ENDBRANCH   3  21
TORSDOF 9
ENDMDL
MODEL 6
REMARK VINA RESULT:    -9.264      1.748      2.643
REMARK INTER + INTRA:         -14.159
REMARK INTER:                 -11.949
REMARK INTRA:                  -2.210
REMARK CONF_INDEPENDENT:        2.685
REMARK UNBOUND:                -2.210
REMARK  9 active torsions:
REMARK  status: ('A' for Active; 'I' for Inactive)
REMARK    1  A    between atoms: C_2  and  N_12 
REMARK    2  A    between atoms: C_2  and  C_3 
REMARK    3  A    between atoms: C_3  and  C_4 
REMARK    4  A    between atoms: C_4  and  C_5 
REMARK    5  A    between atoms: C_8  and  O_9 
REMARK       I    between atoms: N_12  and  C_13 
REMARK    6  A    between atoms: C_13  and  C_15 
REMARK       I    between atoms: C_15  and  N_17 
REMARK    7  A    between atoms: N_17  and  C_18 
REMARK    8  A    between atoms: C_22  and  C_23 
REMARK    9  A    between atoms: C_23  and  N_24 
ROOT
ATOM      1  C   UNL d   1      27.602 -14.170   1.634  0.00  0.00     0.313 C 
ATOM      2  O   UNL d   1      27.882 -14.827   2.635  0.00  0.00    -0.262 OA
ATOM      3  N   UNL d   1      27.290 -12.789   1.614  0.00  0.00    -0.319 N 
ATOM      4  H   UNL d   1      26.906 -12.442   0.738  0.00  0.00     0.169 HD
ENDROOT
BRANCH   1   5
ATOM      5  C   UNL d   1      27.656 -14.914   0.246  0.00  0.00     0.310 C 
ATOM      6  N   UNL d   1      28.286 -16.176   0.283  0.00  0.00    -0.349 N 
ATOM      7  H   UNL d   1      28.679 -16.476   1.168  0.00  0.00     0.163 HD
ATOM      8  O   UNL d   1      27.176 -14.397  -0.732  0.00  0.00    -0.262 OA
BRANCH   6   9
ATOM      9  C   UNL d   1      28.127 -17.178  -0.789  0.00  0.00     0.081 C 
ATOM     10  C   UNL d   1      28.854 -16.717  -2.056  0.00  0.00     0.032 C 
BRANCH   9  11
ATOM     11  C   UNL d   1      26.641 -17.445  -1.150  0.00  0.00     0.029 C 
BRANCH  11  12
ATOM     12  C   UNL d   1      25.788 -17.681   0.105  0.00  0.00     0.040 C 
BRANCH  12  13
ATOM     13  C   UNL d   1      24.316 -17.736  -0.223  0.00  0.00    -0.058 A 
ATOM     14  C   UNL d   1      23.605 -16.564  -0.523  0.00  0.00     0.010 A 
ATOM     15  C   UNL d   1      22.248 -16.621  -0.858  0.00  0.00     0.037 A 
ATOM     16  C   UNL d   1      21.606 -17.855  -0.896  0.00  0.00     0.065 A 
ATOM     17  C   UNL d   1      22.293 -19.023  -0.592  0.00  0.00     0.037 A 
ATOM     18  C   UNL d   1      23.644 -18.965  -0.255  0.00  0.00     0.010 A 
BRANCH  16  19
ATOM     19  O   UNL d   1      20.291 -17.977  -1.234  0.00  0.00    -0.361 OA
ATOM     20  H   UNL d   1      20.017 -17.199  -1.747  0.00  0.00     0.217 HD
ENDBRANCH  16  19
ENDBRANCH  12  13
ENDBRANCH  11  12
ENDBRANCH   9  11
ENDBRANCH   6   9
ENDBRANCH   1   5
BRANCH   3  21
ATOM     21  C   UNL d   1      27.427 -11.864   2.720  0.00  0.00     0.035 C 
ATOM     22  C   UNL d   1      26.739 -10.704   2.921  0.00  0.00     0.029 C 
ATOM     23  C   UNL d   1      27.118  -9.838   4.001  0.00  0.00     0.003 C 
ATOM     24  C   UNL d   1      28.263 -10.051   4.823  0.00  0.00     0.009 C 
ATOM     25  C   UNL d   1      29.054 -11.140   4.543  0.00  0.00    -0.030 C 
ATOM     26  C   UNL d   1      28.478 -11.991   3.604  0.00  0.00     0.038 C 
BRANCH  25  27
ATOM     27  C   UNL d   1      30.426 -11.511   5.107  0.00  0.00     0.273 C 
BRANCH  27  28
ATOM     28  N   UNL d   1      30.600 -12.957   5.793  0.00  0.00    -0.067 N 
ATOM     29  C   UNL d   1      29.986 -14.151   5.025  0.00  0.00     0.235 C 
ATOM     30  C   UNL d   1      28.637 -14.384   5.657  0.00  0.00     0.029 C 
ATOM     31  C   UNL d   1      28.914 -14.073   7.134  0.00  0.00     0.029 C 
ATOM     32  C   UNL d   1      30.112 -13.101   7.241  0.00  0.00     0.235 C 
ATOM     33  H   UNL d   1      31.617 -13.106   5.821  0.00  0.00     0.280 HD
ENDBRANCH  27  28
ENDBRANCH  25  27
ENDBRANCH   3  21
TORSDOF 9
ENDMDL
MODEL 7
REMARK VINA RESULT:    -8.917      2.624      5.101
REMARK INTER + INTRA:         -13.619
REMARK INTER:                 -11.602
REMARK INTRA:                  -2.017
REMARK CONF_INDEPENDENT:        2.685
REMARK UNBOUND:                -2.017
REMARK  9 active torsions:
REMARK  status: ('A' for Active; 'I' for Inactive)
REMARK    1  A    between atoms: C_2  and  N_12 
REMARK    2  A    between atoms: C_2  and  C_3 
REMARK    3  A    between atoms: C_3  and  C_4 
REMARK    4  A    between atoms: C_4  and  C_5 
REMARK    5  A    between atoms: C_8  and  O_9 
REMARK       I    between atoms: N_12  and  C_13 
REMARK    6  A    between atoms: C_13  and  C_15 
REMARK       I    between atoms: C_15  and  N_17 
REMARK    7  A    between atoms: N_17  and  C_18 
REMARK    8  A    between atoms: C_22  and  C_23 
REMARK    9  A    between atoms: C_23  and  N_24 
ROOT
ATOM      1  C   UNL d   1      26.797 -16.847   0.099  0.00  0.00     0.313 C 
ATOM      2  O   UNL d   1      27.174 -17.553   1.033  0.00  0.00    -0.262 OA
ATOM      3  N   UNL d   1      27.517 -15.763  -0.459  0.00  0.00    -0.319 N 
ATOM      4  H   UNL d   1      26.989 -15.173  -1.099  0.00  0.00     0.169 HD
ENDROOT
BRANCH   1   5
ATOM      5  C   UNL d   1      25.422 -17.219  -0.576  0.00  0.00     0.310 C 
ATOM      6  N   UNL d   1      24.897 -18.469  -0.183  0.00  0.00    -0.349 N 
ATOM      7  H   UNL d   1      25.453 -19.030   0.453  0.00  0.00     0.163 HD
ATOM      8  O   UNL d   1      24.907 -16.453  -1.353  0.00  0.00    -0.262 OA
BRANCH   6   9
ATOM      9  C   UNL d   1      23.487 -18.844  -0.400  0.00  0.00     0.081 C 
ATOM     10  C   UNL d   1      23.280 -19.319  -1.841  0.00  0.00     0.032 C 
BRANCH   9  11
ATOM     11  C   UNL d   1      22.502 -17.675  -0.126  0.00  0.00     0.029 C 
BRANCH  11  12
ATOM     12  C   UNL d   1      21.185 -17.854  -0.896  0.00  0.00     0.040 C 
BRANCH  12  13
ATOM     13  C   UNL d   1      20.337 -18.951  -0.301  0.00  0.00    -0.058 A 
ATOM     14  C   UNL d   1      20.618 -19.460   0.976  0.00  0.00     0.010 A 
ATOM     15  C   UNL d   1      19.810 -20.455   1.538  0.00  0.00     0.037 A 
ATOM     16  C   UNL d   1      18.719 -20.935   0.820  0.00  0.00     0.065 A 
ATOM     17  C   UNL d   1      18.434 -20.449  -0.449  0.00  0.00     0.037 A 
ATOM     18  C   UNL d   1      19.241 -19.460  -1.010  0.00  0.00     0.010 A 
BRANCH  16  19
ATOM     19  O   UNL d   1      17.885 -21.890   1.322  0.00  0.00    -0.361 OA
ATOM     20  H   UNL d   1      17.179 -22.070   0.680  0.00  0.00     0.217 HD
ENDBRANCH  16  19
ENDBRANCH  12  13
ENDBRANCH  11  12
ENDBRANCH   9  11
ENDBRANCH   6   9
ENDBRANCH   1   5
BRANCH   3  21
ATOM     21  C   UNL d   1      28.891 -15.408  -0.169  0.00  0.00     0.035 C 
ATOM     22  C   UNL d   1      30.001 -15.743  -0.886  0.00  0.00     0.029 C 
ATOM     23  C   UNL d   1      31.299 -15.427  -0.362  0.00  0.00     0.003 C 
ATOM     24  C   UNL d   1      31.519 -14.885   0.938  0.00  0.00     0.009 C 
ATOM     25  C   UNL d   1      30.418 -14.676   1.734  0.00  0.00    -0.030 C 
ATOM     26  C   UNL d   1      29.221 -14.843   1.045  0.00  0.00     0.038 C 
BRANCH  25  27
ATOM     27  C   UNL d   1      30.351 -14.301   3.215  0.00  0.00     0.273 C 
BRANCH  27  28
ATOM     28  N   UNL d   1      29.039 -14.720   4.047  0.00  0.00    -0.067 N 
ATOM     29  C   UNL d   1      27.875 -13.702   4.037  0.00  0.00     0.235 C 
ATOM     30  C   UNL d   1      28.022 -12.910   5.311  0.00  0.00     0.029 C 
ATOM     31  C   UNL d   1      28.521 -13.974   6.298  0.00  0.00     0.029 C 
ATOM     32  C   UNL d   1      29.243 -15.100   5.521  0.00  0.00     0.235 C 
ATOM     33  H   UNL d   1      28.702 -15.571   3.581  0.00  0.00     0.280 HD
ENDBRANCH  27  28
ENDBRANCH  25  27
ENDBRANCH   3  21
TORSDOF 9
ENDMDL
MODEL 8
REMARK VINA RESULT:    -8.716      1.926      3.374
REMARK INTER + INTRA:         -13.520
REMARK INTER:                 -11.401
REMARK INTRA:                  -2.120
REMARK CONF_INDEPENDENT:        2.685
REMARK UNBOUND:                -2.120
REMARK  9 active torsions:
REMARK  status: ('A' for Active; 'I' for Inactive)
REMARK    1  A    between atoms: C_2  and  N_12 
REMARK    2  A    between atoms: C_2  and  C_3 
REMARK    3  A    between atoms: C_3  and  C_4 
REMARK    4  A    between atoms: C_4  and  C_5 
REMARK    5  A    between atoms: C_8  and  O_9 
REMARK       I    between atoms: N_12  and  C_13 
REMARK    6  A    between atoms: C_13  and  C_15 
REMARK       I    between atoms: C_15  and  N_17 
REMARK    7  A    between atoms: N_17  and  C_18 
REMARK    8  A    between atoms: C_22  and  C_23 
REMARK    9  A    between atoms: C_23  and  N_24 
ROOT
ATOM      1  C   UNL d   1      28.323 -13.972   5.492  0.00  0.00     0.313 C 
ATOM      2  O   UNL d   1      28.327 -15.190   5.664  0.00  0.00    -0.262 OA
ATOM      3  N   UNL d   1      28.393 -12.994   6.514  0.00  0.00    -0.319 N 
ATOM      4  H   UNL d   1      28.196 -12.041   6.218  0.00  0.00     0.169 HD
ENDROOT
BRANCH   1   5
ATOM      5  C   UNL d   1      28.302 -13.454   4.003  0.00  0.00     0.310 C 
ATOM      6  N   UNL d   1      28.385 -14.473   3.029  0.00  0.00    -0.349 N 
ATOM      7  H   UNL d   1      28.492 -15.426   3.358  0.00  0.00     0.163 HD
ATOM      8  O   UNL d   1      28.214 -12.273   3.779  0.00  0.00    -0.262 OA
BRANCH   6   9
ATOM      9  C   UNL d   1      28.022 -14.254   1.616  0.00  0.00     0.081 C 
ATOM     10  C   UNL d   1      26.702 -13.483   1.521  0.00  0.00     0.032 C 
BRANCH   9  11
ATOM     11  C   UNL d   1      27.871 -15.578   0.819  0.00  0.00     0.029 C 
BRANCH  11  12
ATOM     12  C   UNL d   1      26.971 -15.397  -0.412  0.00  0.00     0.040 C 
BRANCH  12  13
ATOM     13  C   UNL d   1      25.863 -16.421  -0.447  0.00  0.00    -0.058 A 
ATOM     14  C   UNL d   1      25.994 -17.641   0.232  0.00  0.00     0.010 A 
ATOM     15  C   UNL d   1      24.952 -18.575   0.223  0.00  0.00     0.037 A 
ATOM     16  C   UNL d   1      23.778 -18.283  -0.464  0.00  0.00     0.065 A 
ATOM     17  C   UNL d   1      23.637 -17.083  -1.151  0.00  0.00     0.037 A 
ATOM     18  C   UNL d   1      24.676 -16.154  -1.144  0.00  0.00     0.010 A 
BRANCH  16  19
ATOM     19  O   UNL d   1      22.722 -19.144  -0.493  0.00  0.00    -0.361 OA
ATOM     20  H   UNL d   1      22.822 -19.799   0.216  0.00  0.00     0.217 HD
ENDBRANCH  16  19
ENDBRANCH  12  13
ENDBRANCH  11  12
ENDBRANCH   9  11
ENDBRANCH   6   9
ENDBRANCH   1   5
BRANCH   3  21
ATOM     21  C   UNL d   1      28.672 -13.238   7.914  0.00  0.00     0.035 C 
ATOM     22  C   UNL d   1      28.157 -12.575   8.989  0.00  0.00     0.029 C 
ATOM     23  C   UNL d   1      28.665 -12.858  10.300  0.00  0.00     0.003 C 
ATOM     24  C   UNL d   1      29.778 -13.713  10.551  0.00  0.00     0.009 C 
ATOM     25  C   UNL d   1      30.404 -14.278   9.466  0.00  0.00    -0.030 C 
ATOM     26  C   UNL d   1      29.704 -14.076   8.280  0.00  0.00     0.038 C 
BRANCH  25  27
ATOM     27  C   UNL d   1      31.716 -15.062   9.404  0.00  0.00     0.273 C 
BRANCH  27  28
ATOM     28  N   UNL d   1      33.094 -14.234   9.331  0.00  0.00    -0.067 N 
ATOM     29  C   UNL d   1      33.730 -13.854  10.688  0.00  0.00     0.235 C 
ATOM     30  C   UNL d   1      33.283 -12.439  10.959  0.00  0.00     0.029 C 
ATOM     31  C   UNL d   1      33.283 -11.825   9.553  0.00  0.00     0.029 C 
ATOM     32  C   UNL d   1      33.084 -12.942   8.502  0.00  0.00     0.235 C 
ATOM     33  H   UNL d   1      33.749 -14.869   8.857  0.00  0.00     0.280 HD
ENDBRANCH  27  28
ENDBRANCH  25  27
ENDBRANCH   3  21
TORSDOF 9
ENDMDL
MODEL 9
REMARK VINA RESULT:    -8.518      6.649      9.634
REMARK INTER + INTRA:         -13.477
REMARK INTER:                 -11.203
REMARK INTRA:                  -2.274
REMARK CONF_INDEPENDENT:        2.685
REMARK UNBOUND:                -2.274
REMARK  9 active torsions:
REMARK  status: ('A' for Active; 'I' for Inactive)
REMARK    1  A    between atoms: C_2  and  N_12 
REMARK    2  A    between atoms: C_2  and  C_3 
REMARK    3  A    between atoms: C_3  and  C_4 
REMARK    4  A    between atoms: C_4  and  C_5 
REMARK    5  A    between atoms: C_8  and  O_9 
REMARK       I    between atoms: N_12  and  C_13 
REMARK    6  A    between atoms: C_13  and  C_15 
REMARK       I    between atoms: C_15  and  N_17 
REMARK    7  A    between atoms: N_17  and  C_18 
REMARK    8  A    between atoms: C_22  and  C_23 
REMARK    9  A    between atoms: C_23  and  N_24 
ROOT
ATOM      1  C   UNL d   1      25.284 -14.338  -3.749  0.00  0.00     0.313 C 
ATOM      2  O   UNL d   1      25.530 -15.199  -4.592  0.00  0.00    -0.262 OA
ATOM      3  N   UNL d   1      24.843 -14.582  -2.426  0.00  0.00    -0.319 N 
ATOM      4  H   UNL d   1      24.513 -13.763  -1.919  0.00  0.00     0.169 HD
ENDROOT
BRANCH   1   5
ATOM      5  C   UNL d   1      25.542 -12.838  -4.155  0.00  0.00     0.310 C 
ATOM      6  N   UNL d   1      26.204 -12.672  -5.391  0.00  0.00    -0.349 N 
ATOM      7  H   UNL d   1      26.490 -13.511  -5.884  0.00  0.00     0.163 HD
ATOM      8  O   UNL d   1      25.174 -11.947  -3.431  0.00  0.00    -0.262 OA
BRANCH   6   9
ATOM      9  C   UNL d   1      26.218 -11.390  -6.121  0.00  0.00     0.081 C 
ATOM     10  C   UNL d   1      27.208 -11.456  -7.289  0.00  0.00     0.032 C 
BRANCH   9  11
ATOM     11  C   UNL d   1      26.607 -10.186  -5.221  0.00  0.00     0.029 C 
BRANCH  11  12
ATOM     12  C   UNL d   1      26.724  -8.888  -6.033  0.00  0.00     0.040 C 
BRANCH  12  13
ATOM     13  C   UNL d   1      25.392  -8.190  -6.163  0.00  0.00    -0.058 A 
ATOM     14  C   UNL d   1      25.148  -7.305  -7.223  0.00  0.00     0.010 A 
ATOM     15  C   UNL d   1      23.902  -6.684  -7.359  0.00  0.00     0.037 A 
ATOM     16  C   UNL d   1      22.899  -6.954  -6.433  0.00  0.00     0.065 A 
ATOM     17  C   UNL d   1      23.129  -7.820  -5.371  0.00  0.00     0.037 A 
ATOM     18  C   UNL d   1      24.372  -8.436  -5.234  0.00  0.00     0.010 A 
BRANCH  16  19
ATOM     19  O   UNL d   1      21.660  -6.395  -6.522  0.00  0.00    -0.361 OA
ATOM     20  H   UNL d   1      21.039  -7.046  -6.887  0.00  0.00     0.217 HD
ENDBRANCH  16  19
ENDBRANCH  12  13
ENDBRANCH  11  12
ENDBRANCH   9  11
ENDBRANCH   6   9
ENDBRANCH   1   5
BRANCH   3  21
ATOM     21  C   UNL d   1      24.785 -15.869  -1.766  0.00  0.00     0.035 C 
ATOM     22  C   UNL d   1      23.685 -16.485  -1.245  0.00  0.00     0.029 C 
ATOM     23  C   UNL d   1      23.846 -17.696  -0.493  0.00  0.00     0.003 C 
ATOM     24  C   UNL d   1      25.112 -18.249  -0.142  0.00  0.00     0.009 C 
ATOM     25  C   UNL d   1      26.237 -17.563  -0.534  0.00  0.00    -0.030 C 
ATOM     26  C   UNL d   1      25.948 -16.519  -1.408  0.00  0.00     0.038 C 
BRANCH  25  27
ATOM     27  C   UNL d   1      27.698 -17.794  -0.144  0.00  0.00     0.273 C 
BRANCH  27  28
ATOM     28  N   UNL d   1      28.524 -16.560   0.476  0.00  0.00    -0.067 N 
ATOM     29  C   UNL d   1      27.716 -15.573   1.350  0.00  0.00     0.235 C 
ATOM     30  C   UNL d   1      27.347 -14.433   0.435  0.00  0.00     0.029 C 
ATOM     31  C   UNL d   1      28.590 -14.321  -0.458  0.00  0.00     0.029 C 
ATOM     32  C   UNL d   1      29.313 -15.687  -0.511  0.00  0.00     0.235 C 
ATOM     33  H   UNL d   1      29.224 -17.001   1.085  0.00  0.00     0.280 HD
ENDBRANCH  27  28
ENDBRANCH  25  27
ENDBRANCH   3  21
TORSDOF 9
ENDMDL
