MODEL 1
REMARK VINA RESULT:   -10.265      0.000      0.000
REMARK INTER + INTRA:         -13.790
REMARK INTER:                 -12.353
REMARK INTRA:                  -1.437
REMARK CONF_INDEPENDENT:        2.088
REMARK UNBOUND:                -1.437
REMARK  7 active torsions:
REMARK  status: ('A' for Active; 'I' for Inactive)
REMARK    1  A    between atoms: C_2  and  O_3 
REMARK    2  A    between atoms: C_2  and  C_11 
REMARK    3  A    between atoms: O_3  and  C_4 
REMARK       I    between atoms: C_11  and  N_13 
REMARK    4  A    between atoms: N_13  and  N_14 
REMARK    5  A    between atoms: C_15  and  C_16 
REMARK    6  A    between atoms: N_18  and  C_19 
REMARK    7  A    between atoms: C_26  and  C_27 
ROOT
ATOM      1  C   UNL d   1      25.225 -17.307   0.007  0.00  0.00     0.032 A 
ATOM      2  C   UNL d   1      24.232 -18.143   0.477  0.00  0.00     0.134 A 
ATOM      3  N   UNL d   1      23.197 -18.102  -0.430  0.00  0.00    -0.244 N 
ATOM      4  N   UNL d   1      23.481 -17.294  -1.481  0.00  0.00    -0.166 NA
ATOM      5  C   UNL d   1      24.691 -16.778  -1.203  0.00  0.00     0.101 A 
ENDROOT
BRANCH   1   6
ATOM      6  C   UNL d   1      26.521 -17.030   0.604  0.00  0.00     0.154 C 
ATOM      7  N   UNL d   1      26.908 -15.807   0.752  0.00  0.00    -0.184 NA
BRANCH   7   8
ATOM      8  N   UNL d   1      28.138 -15.574   1.350  0.00  0.00    -0.245 N 
ATOM      9  C   UNL d   1      28.309 -14.379   2.041  0.00  0.00     0.266 C 
ATOM     10  O   UNL d   1      27.384 -13.559   2.158  0.00  0.00    -0.269 OA
ATOM     11  H   UNL d   1      28.883 -16.258   1.279  0.00  0.00     0.192 HD
BRANCH   9  12
ATOM     12  C   UNL d   1      29.736 -14.074   2.606  0.00  0.00     0.218 C 
ATOM     13  C   UNL d   1      30.667 -14.077   1.379  0.00  0.00     0.050 C 
BRANCH  12  14
ATOM     14  O   UNL d   1      29.753 -12.846   3.373  0.00  0.00    -0.337 OA
BRANCH  14  15
ATOM     15  C   UNL d   1      29.476 -12.925   4.719  0.00  0.00     0.070 C 
ATOM     16  C   UNL d   1      28.691 -11.992   5.400  0.00  0.00     0.038 C 
ATOM     17  C   UNL d   1      28.474 -12.066   6.776  0.00  0.00     0.022 C 
ATOM     18  C   UNL d   1      28.915 -13.179   7.471  0.00  0.00     0.011 C 
ATOM     19 BR   UNL d   1      28.530 -13.323   9.315  0.00  0.00    -0.051 Br
ATOM     20  C   UNL d   1      29.584 -14.198   6.795  0.00  0.00     0.022 C 
ATOM     21  C   UNL d   1      29.873 -14.066   5.422  0.00  0.00     0.038 C 
ENDBRANCH  14  15
ENDBRANCH  12  14
ENDBRANCH   9  12
ENDBRANCH   7   8
ENDBRANCH   1   6
BRANCH   5  22
ATOM     22  C   UNL d   1      25.374 -15.883  -2.134  0.00  0.00    -0.005 A 
ATOM     23  C   UNL d   1      24.708 -14.826  -2.763  0.00  0.00     0.014 A 
ATOM     24  C   UNL d   1      25.391 -14.014  -3.676  0.00  0.00     0.001 A 
ATOM     25  C   UNL d   1      26.753 -14.215  -3.913  0.00  0.00     0.000 A 
ATOM     26  C   UNL d   1      27.426 -15.251  -3.269  0.00  0.00     0.001 A 
ATOM     27  C   UNL d   1      26.737 -16.088  -2.391  0.00  0.00     0.014 A 
ENDBRANCH   5  22
BRANCH   3  28
ATOM     28  C   UNL d   1      21.919 -18.704  -0.291  0.00  0.00     0.058 A 
ATOM     29  C   UNL d   1      21.149 -18.998  -1.424  0.00  0.00     0.031 A 
ATOM     30  C   UNL d   1      19.857 -19.515  -1.270  0.00  0.00     0.002 A 
ATOM     31  C   UNL d   1      19.341 -19.754   0.005  0.00  0.00     0.000 A 
ATOM     32  C   UNL d   1      20.110 -19.462   1.132  0.00  0.00     0.002 A 
ATOM     33  C   UNL d   1      21.405 -18.950   0.989  0.00  0.00     0.031 A 
ENDBRANCH   3  28
TORSDOF 7
ENDMDL
MODEL 2
REMARK VINA RESULT:   -10.147      2.092      5.547
REMARK INTER + INTRA:         -13.396
REMARK INTER:                 -12.235
REMARK INTRA:                  -1.161
REMARK CONF_INDEPENDENT:        2.088
REMARK UNBOUND:                -1.161
REMARK  7 active torsions:
REMARK  status: ('A' for Active; 'I' for Inactive)
REMARK    1  A    between atoms: C_2  and  O_3 
REMARK    2  A    between atoms: C_2  and  C_11 
REMARK    3  A    between atoms: O_3  and  C_4 
REMARK       I    between atoms: C_11  and  N_13 
REMARK    4  A    between atoms: N_13  and  N_14 
REMARK    5  A    between atoms: C_15  and  C_16 
REMARK    6  A    between atoms: N_18  and  C_19 
REMARK    7  A    between atoms: C_26  and  C_27 
ROOT
ATOM      1  C   UNL d   1      26.535 -14.925  -0.824  0.00  0.00     0.032 A 
ATOM      2  C   UNL d   1      27.033 -13.992  -1.712  0.00  0.00     0.134 A 
ATOM      3  N   UNL d   1      26.277 -14.072  -2.860  0.00  0.00    -0.244 N 
ATOM      4  N   UNL d   1      25.292 -14.999  -2.751  0.00  0.00    -0.166 NA
ATOM      5  C   UNL d   1      25.468 -15.547  -1.536  0.00  0.00     0.101 A 
ENDROOT
BRANCH   1   6
ATOM      6  C   UNL d   1      26.987 -15.208   0.528  0.00  0.00     0.154 C 
ATOM      7  N   UNL d   1      27.822 -14.409   1.103  0.00  0.00    -0.184 NA
BRANCH   7   8
ATOM      8  N   UNL d   1      28.215 -14.691   2.403  0.00  0.00    -0.245 N 
ATOM      9  C   UNL d   1      27.781 -13.838   3.412  0.00  0.00     0.266 C 
ATOM     10  O   UNL d   1      27.035 -12.875   3.173  0.00  0.00    -0.269 OA
ATOM     11  H   UNL d   1      28.799 -15.495   2.600  0.00  0.00     0.192 HD
BRANCH   9  12
ATOM     12  C   UNL d   1      28.330 -14.097   4.856  0.00  0.00     0.218 C 
ATOM     13  C   UNL d   1      29.675 -14.819   4.655  0.00  0.00     0.050 C 
BRANCH  12  14
ATOM     14  O   UNL d   1      28.412 -12.871   5.622  0.00  0.00    -0.337 OA
BRANCH  14  15
ATOM     15  C   UNL d   1      28.458 -12.972   6.994  0.00  0.00     0.070 C 
ATOM     16  C   UNL d   1      28.923 -14.104   7.667  0.00  0.00     0.038 C 
ATOM     17  C   UNL d   1      28.904 -14.201   9.059  0.00  0.00     0.022 C 
ATOM     18  C   UNL d   1      28.566 -13.088   9.810  0.00  0.00     0.011 C 
ATOM     19 BR   UNL d   1      28.641 -13.194  11.694  0.00  0.00    -0.051 Br
ATOM     20  C   UNL d   1      28.229 -11.897   9.169  0.00  0.00     0.022 C 
ATOM     21  C   UNL d   1      28.165 -11.842   7.763  0.00  0.00     0.038 C 
ENDBRANCH  14  15
ENDBRANCH  12  14
ENDBRANCH   9  12
ENDBRANCH   7   8
ENDBRANCH   1   6
BRANCH   5  22
ATOM     22  C   UNL d   1      24.562 -16.570  -1.019  0.00  0.00    -0.005 A 
ATOM     23  C   UNL d   1      23.186 -16.343  -0.903  0.00  0.00     0.014 A 
ATOM     24  C   UNL d   1      22.358 -17.336  -0.367  0.00  0.00     0.001 A 
ATOM     25  C   UNL d   1      22.889 -18.577  -0.008  0.00  0.00     0.000 A 
ATOM     26  C   UNL d   1      24.255 -18.815  -0.145  0.00  0.00     0.001 A 
ATOM     27  C   UNL d   1      25.089 -17.811  -0.640  0.00  0.00     0.014 A 
ENDBRANCH   5  22
BRANCH   3  28
ATOM     28  C   UNL d   1      26.511 -13.391  -4.083  0.00  0.00     0.058 A 
ATOM     29  C   UNL d   1      27.500 -13.842  -4.965  0.00  0.00     0.031 A 
ATOM     30  C   UNL d   1      27.778 -13.114  -6.129  0.00  0.00     0.002 A 
ATOM     31  C   UNL d   1      27.061 -11.952  -6.420  0.00  0.00     0.000 A 
ATOM     32  C   UNL d   1      26.075 -11.505  -5.541  0.00  0.00     0.002 A 
ATOM     33  C   UNL d   1      25.786 -12.229  -4.378  0.00  0.00     0.031 A 
ENDBRANCH   3  28
TORSDOF 7
ENDMDL
MODEL 3
REMARK VINA RESULT:   -10.083      3.659      9.617
REMARK INTER + INTRA:         -13.892
REMARK INTER:                 -12.171
REMARK INTRA:                  -1.721
REMARK CONF_INDEPENDENT:        2.088
REMARK UNBOUND:                -1.721
REMARK  7 active torsions:
REMARK  status: ('A' for Active; 'I' for Inactive)
REMARK    1  A    between atoms: C_2  and  O_3 
REMARK    2  A    between atoms: C_2  and  C_11 
REMARK    3  A    between atoms: O_3  and  C_4 
REMARK       I    between atoms: C_11  and  N_13 
REMARK    4  A    between atoms: N_13  and  N_14 
REMARK    5  A    between atoms: C_15  and  C_16 
REMARK    6  A    between atoms: N_18  and  C_19 
REMARK    7  A    between atoms: C_26  and  C_27 
ROOT
ATOM      1  C   UNL d   1      28.662 -13.692   5.417  0.00  0.00     0.032 A 
ATOM      2  C   UNL d   1      28.806 -14.299   6.648  0.00  0.00     0.134 A 
ATOM      3  N   UNL d   1      28.510 -13.359   7.608  0.00  0.00    -0.244 N 
ATOM      4  N   UNL d   1      28.156 -12.171   7.057  0.00  0.00    -0.166 NA
ATOM      5  C   UNL d   1      28.285 -12.353   5.732  0.00  0.00     0.101 A 
ENDROOT
BRANCH   1   6
ATOM      6  C   UNL d   1      28.847 -14.277   4.099  0.00  0.00     0.154 C 
ATOM      7  N   UNL d   1      27.823 -14.480   3.340  0.00  0.00    -0.184 NA
BRANCH   7   8
ATOM      8  N   UNL d   1      28.034 -15.015   2.078  0.00  0.00    -0.245 N 
ATOM      9  C   UNL d   1      27.411 -14.400   0.998  0.00  0.00     0.266 C 
ATOM     10  O   UNL d   1      26.716 -13.381   1.143  0.00  0.00    -0.269 OA
ATOM     11  H   UNL d   1      28.626 -15.829   1.958  0.00  0.00     0.192 HD
BRANCH   9  12
ATOM     12  C   UNL d   1      27.559 -15.085  -0.402  0.00  0.00     0.218 C 
ATOM     13  C   UNL d   1      28.939 -14.645  -0.923  0.00  0.00     0.050 C 
BRANCH  12  14
ATOM     14  O   UNL d   1      27.376 -16.519  -0.316  0.00  0.00    -0.337 OA
BRANCH  14  15
ATOM     15  C   UNL d   1      26.094 -17.010  -0.412  0.00  0.00     0.070 C 
ATOM     16  C   UNL d   1      25.605 -18.048   0.383  0.00  0.00     0.038 C 
ATOM     17  C   UNL d   1      24.319 -18.564   0.223  0.00  0.00     0.022 C 
ATOM     18  C   UNL d   1      23.438 -17.932  -0.638  0.00  0.00     0.011 C 
ATOM     19 BR   UNL d   1      21.667 -18.573  -0.774  0.00  0.00    -0.051 Br
ATOM     20  C   UNL d   1      23.852 -16.806  -1.346  0.00  0.00     0.022 C 
ATOM     21  C   UNL d   1      25.181 -16.351  -1.242  0.00  0.00     0.038 C 
ENDBRANCH  14  15
ENDBRANCH  12  14
ENDBRANCH   9  12
ENDBRANCH   7   8
ENDBRANCH   1   6
BRANCH   5  22
ATOM     22  C   UNL d   1      27.945 -11.302   4.777  0.00  0.00    -0.005 A 
ATOM     23  C   UNL d   1      27.405 -11.595   3.520  0.00  0.00     0.014 A 
ATOM     24  C   UNL d   1      27.127 -10.560   2.620  0.00  0.00     0.001 A 
ATOM     25  C   UNL d   1      27.326  -9.230   2.996  0.00  0.00     0.000 A 
ATOM     26  C   UNL d   1      27.840  -8.932   4.256  0.00  0.00     0.001 A 
ATOM     27  C   UNL d   1      28.157  -9.965   5.139  0.00  0.00     0.014 A 
ENDBRANCH   5  22
BRANCH   3  28
ATOM     28  C   UNL d   1      28.649 -13.503   9.013  0.00  0.00     0.058 A 
ATOM     29  C   UNL d   1      29.226 -14.661   9.551  0.00  0.00     0.031 A 
ATOM     30  C   UNL d   1      29.283 -14.827  10.941  0.00  0.00     0.002 A 
ATOM     31  C   UNL d   1      28.783 -13.837  11.789  0.00  0.00     0.000 A 
ATOM     32  C   UNL d   1      28.211 -12.684  11.251  0.00  0.00     0.002 A 
ATOM     33  C   UNL d   1      28.155 -12.506   9.864  0.00  0.00     0.031 A 
ENDBRANCH   3  28
TORSDOF 7
ENDMDL
MODEL 4
REMARK VINA RESULT:   -10.017      1.650      2.572
REMARK INTER + INTRA:         -13.855
REMARK INTER:                 -12.105
REMARK INTRA:                  -1.750
REMARK CONF_INDEPENDENT:        2.088
REMARK UNBOUND:                -1.750
REMARK  7 active torsions:
REMARK  status: ('A' for Active; 'I' for Inactive)
REMARK    1  A    between atoms: C_2  and  O_3 
REMARK    2  A    between atoms: C_2  and  C_11 
REMARK    3  A    between atoms: O_3  and  C_4 
REMARK       I    between atoms: C_11  and  N_13 
REMARK    4  A    between atoms: N_13  and  N_14 
REMARK    5  A    between atoms: C_15  and  C_16 
REMARK    6  A    between atoms: N_18  and  C_19 
REMARK    7  A    between atoms: C_26  and  C_27 
ROOT
ATOM      1  C   UNL d   1      25.159 -17.405  -0.272  0.00  0.00     0.032 A 
ATOM      2  C   UNL d   1      24.201 -18.241   0.265  0.00  0.00     0.134 A 
ATOM      3  N   UNL d   1      23.053 -18.081  -0.477  0.00  0.00    -0.244 N 
ATOM      4  N   UNL d   1      23.227 -17.196  -1.490  0.00  0.00    -0.166 NA
ATOM      5  C   UNL d   1      24.488 -16.752  -1.346  0.00  0.00     0.101 A 
ENDROOT
BRANCH   1   6
ATOM      6  C   UNL d   1      26.538 -17.230   0.154  0.00  0.00     0.154 C 
ATOM      7  N   UNL d   1      27.496 -17.714  -0.563  0.00  0.00    -0.184 NA
BRANCH   7   8
ATOM      8  N   UNL d   1      28.801 -17.508  -0.145  0.00  0.00    -0.245 N 
ATOM      9  C   UNL d   1      29.316 -16.219  -0.233  0.00  0.00     0.266 C 
ATOM     10  O   UNL d   1      28.624 -15.269  -0.635  0.00  0.00    -0.269 OA
ATOM     11  H   UNL d   1      29.355 -18.278   0.212  0.00  0.00     0.192 HD
BRANCH   9  12
ATOM     12  C   UNL d   1      30.827 -16.022   0.128  0.00  0.00     0.218 C 
ATOM     13  C   UNL d   1      31.591 -16.263  -1.186  0.00  0.00     0.050 C 
BRANCH  12  14
ATOM     14  O   UNL d   1      31.065 -14.730   0.736  0.00  0.00    -0.337 OA
BRANCH  14  15
ATOM     15  C   UNL d   1      30.422 -14.449   1.921  0.00  0.00     0.070 C 
ATOM     16  C   UNL d   1      31.047 -14.510   3.169  0.00  0.00     0.038 C 
ATOM     17  C   UNL d   1      30.355 -14.276   4.358  0.00  0.00     0.022 C 
ATOM     18  C   UNL d   1      29.051 -13.816   4.303  0.00  0.00     0.011 C 
ATOM     19 BR   UNL d   1      28.153 -13.404   5.913  0.00  0.00    -0.051 Br
ATOM     20  C   UNL d   1      28.440 -13.612   3.067  0.00  0.00     0.022 C 
ATOM     21  C   UNL d   1      29.122 -13.939   1.878  0.00  0.00     0.038 C 
ENDBRANCH  14  15
ENDBRANCH  12  14
ENDBRANCH   9  12
ENDBRANCH   7   8
ENDBRANCH   1   6
BRANCH   5  22
ATOM     22  C   UNL d   1      25.079 -15.805  -2.289  0.00  0.00    -0.005 A 
ATOM     23  C   UNL d   1      26.390 -15.951  -2.754  0.00  0.00     0.014 A 
ATOM     24  C   UNL d   1      26.931 -15.000  -3.628  0.00  0.00     0.001 A 
ATOM     25  C   UNL d   1      26.144 -13.942  -4.089  0.00  0.00     0.000 A 
ATOM     26  C   UNL d   1      24.830 -13.807  -3.647  0.00  0.00     0.001 A 
ATOM     27  C   UNL d   1      24.303 -14.730  -2.743  0.00  0.00     0.014 A 
ENDBRANCH   5  22
BRANCH   3  28
ATOM     28  C   UNL d   1      21.779 -18.645  -0.207  0.00  0.00     0.058 A 
ATOM     29  C   UNL d   1      21.405 -18.950   1.108  0.00  0.00     0.031 A 
ATOM     30  C   UNL d   1      20.179 -19.581   1.353  0.00  0.00     0.002 A 
ATOM     31  C   UNL d   1      19.323 -19.892   0.295  0.00  0.00     0.000 A 
ATOM     32  C   UNL d   1      19.697 -19.586  -1.014  0.00  0.00     0.002 A 
ATOM     33  C   UNL d   1      20.917 -18.949  -1.269  0.00  0.00     0.031 A 
ENDBRANCH   3  28
TORSDOF 7
ENDMDL
MODEL 5
REMARK VINA RESULT:    -9.907      3.693      9.672
REMARK INTER + INTRA:         -13.798
REMARK INTER:                 -11.995
REMARK INTRA:                  -1.803
REMARK CONF_INDEPENDENT:        2.088
REMARK UNBOUND:                -1.803
REMARK  7 active torsions:
REMARK  status: ('A' for Active; 'I' for Inactive)
REMARK    1  A    between atoms: C_2  and  O_3 
REMARK    2  A    between atoms: C_2  and  C_11 
REMARK    3  A    between atoms: O_3  and  C_4 
REMARK       I    between atoms: C_11  and  N_13 
REMARK    4  A    between atoms: N_13  and  N_14 
REMARK    5  A    between atoms: C_15  and  C_16 
REMARK    6  A    between atoms: N_18  and  C_19 
REMARK    7  A    between atoms: C_26  and  C_27 
ROOT
ATOM      1  C   UNL d   1      28.685 -13.539   5.528  0.00  0.00     0.032 A 
ATOM      2  C   UNL d   1      28.780 -14.183   6.746  0.00  0.00     0.134 A 
ATOM      3  N   UNL d   1      28.533 -13.248   7.725  0.00  0.00    -0.244 N 
ATOM      4  N   UNL d   1      28.257 -12.029   7.199  0.00  0.00    -0.166 NA
ATOM      5  C   UNL d   1      28.387 -12.188   5.871  0.00  0.00     0.101 A 
ENDROOT
BRANCH   1   6
ATOM      6  C   UNL d   1      28.846 -14.105   4.198  0.00  0.00     0.154 C 
ATOM      7  N   UNL d   1      27.803 -14.405   3.500  0.00  0.00    -0.184 NA
BRANCH   7   8
ATOM      8  N   UNL d   1      27.989 -14.918   2.225  0.00  0.00    -0.245 N 
ATOM      9  C   UNL d   1      27.454 -14.210   1.155  0.00  0.00     0.266 C 
ATOM     10  O   UNL d   1      26.860 -13.132   1.321  0.00  0.00    -0.269 OA
ATOM     11  H   UNL d   1      28.500 -15.783   2.088  0.00  0.00     0.192 HD
BRANCH   9  12
ATOM     12  C   UNL d   1      27.566 -14.860  -0.265  0.00  0.00     0.218 C 
ATOM     13  C   UNL d   1      28.934 -14.412  -0.809  0.00  0.00     0.050 C 
BRANCH  12  14
ATOM     14  O   UNL d   1      27.380 -16.295  -0.209  0.00  0.00    -0.337 OA
BRANCH  14  15
ATOM     15  C   UNL d   1      26.102 -16.785  -0.362  0.00  0.00     0.070 C 
ATOM     16  C   UNL d   1      25.108 -16.125  -1.088  0.00  0.00     0.038 C 
ATOM     17  C   UNL d   1      23.805 -16.617  -1.178  0.00  0.00     0.022 C 
ATOM     18  C   UNL d   1      23.519 -17.873  -0.671  0.00  0.00     0.011 C 
ATOM     19 BR   UNL d   1      21.779 -18.576  -0.886  0.00  0.00    -0.051 Br
ATOM     20  C   UNL d   1      24.525 -18.619  -0.061  0.00  0.00     0.022 C 
ATOM     21  C   UNL d   1      25.813 -18.071   0.103  0.00  0.00     0.038 C 
ENDBRANCH  14  15
ENDBRANCH  12  14
ENDBRANCH   9  12
ENDBRANCH   7   8
ENDBRANCH   1   6
BRANCH   5  22
ATOM     22  C   UNL d   1      28.119 -11.097   4.938  0.00  0.00    -0.005 A 
ATOM     23  C   UNL d   1      28.576  -9.796   5.176  0.00  0.00     0.014 A 
ATOM     24  C   UNL d   1      28.266  -8.770   4.275  0.00  0.00     0.001 A 
ATOM     25  C   UNL d   1      27.558  -9.054   3.105  0.00  0.00     0.000 A 
ATOM     26  C   UNL d   1      27.123 -10.353   2.852  0.00  0.00     0.001 A 
ATOM     27  C   UNL d   1      27.395 -11.368   3.770  0.00  0.00     0.014 A 
ENDBRANCH   5  22
BRANCH   3  28
ATOM     28  C   UNL d   1      28.651 -13.433   9.128  0.00  0.00     0.058 A 
ATOM     29  C   UNL d   1      29.197 -14.615   9.642  0.00  0.00     0.031 A 
ATOM     30  C   UNL d   1      29.232 -14.820  11.027  0.00  0.00     0.002 A 
ATOM     31  C   UNL d   1      28.740 -13.843  11.895  0.00  0.00     0.000 A 
ATOM     32  C   UNL d   1      28.198 -12.665  11.381  0.00  0.00     0.002 A 
ATOM     33  C   UNL d   1      28.164 -12.449   9.998  0.00  0.00     0.031 A 
ENDBRANCH   3  28
TORSDOF 7
ENDMDL
MODEL 6
REMARK VINA RESULT:    -9.797      5.094      6.923
REMARK INTER + INTRA:         -13.675
REMARK INTER:                 -11.885
REMARK INTRA:                  -1.790
REMARK CONF_INDEPENDENT:        2.088
REMARK UNBOUND:                -1.790
REMARK  7 active torsions:
REMARK  status: ('A' for Active; 'I' for Inactive)
REMARK    1  A    between atoms: C_2  and  O_3 
REMARK    2  A    between atoms: C_2  and  C_11 
REMARK    3  A    between atoms: O_3  and  C_4 
REMARK       I    between atoms: C_11  and  N_13 
REMARK    4  A    between atoms: N_13  and  N_14 
REMARK    5  A    between atoms: C_15  and  C_16 
REMARK    6  A    between atoms: N_18  and  C_19 
REMARK    7  A    between atoms: C_26  and  C_27 
ROOT
ATOM      1  C   UNL d   1      25.224 -17.992  -0.344  0.00  0.00     0.032 A 
ATOM      2  C   UNL d   1      24.191 -18.858  -0.045  0.00  0.00     0.134 A 
ATOM      3  N   UNL d   1      23.018 -18.245  -0.422  0.00  0.00    -0.244 N 
ATOM      4  N   UNL d   1      23.241 -17.028  -0.977  0.00  0.00    -0.166 NA
ATOM      5  C   UNL d   1      24.571 -16.851  -0.896  0.00  0.00     0.101 A 
ENDROOT
BRANCH   1   6
ATOM      6  C   UNL d   1      26.650 -18.193  -0.148  0.00  0.00     0.154 C 
ATOM      7  N   UNL d   1      27.494 -17.506  -0.843  0.00  0.00    -0.184 NA
BRANCH   7   8
ATOM      8  N   UNL d   1      28.848 -17.702  -0.614  0.00  0.00    -0.245 N 
ATOM      9  C   UNL d   1      29.746 -17.163  -1.529  0.00  0.00     0.266 C 
ATOM     10  O   UNL d   1      29.360 -16.495  -2.502  0.00  0.00    -0.269 OA
ATOM     11  H   UNL d   1      29.163 -18.222   0.197  0.00  0.00     0.192 HD
BRANCH   9  12
ATOM     12  C   UNL d   1      31.263 -17.493  -1.326  0.00  0.00     0.218 C 
ATOM     13  C   UNL d   1      31.506 -17.365   0.189  0.00  0.00     0.050 C 
BRANCH  12  14
ATOM     14  O   UNL d   1      31.606 -18.784  -1.885  0.00  0.00    -0.337 OA
BRANCH  14  15
ATOM     15  C   UNL d   1      31.410 -18.973  -3.234  0.00  0.00     0.070 C 
ATOM     16  C   UNL d   1      31.528 -17.952  -4.180  0.00  0.00     0.038 C 
ATOM     17  C   UNL d   1      31.266 -18.161  -5.534  0.00  0.00     0.022 C 
ATOM     18  C   UNL d   1      31.037 -19.448  -5.989  0.00  0.00     0.011 C 
ATOM     19 BR   UNL d   1      30.785 -19.738  -7.838  0.00  0.00    -0.051 Br
ATOM     20  C   UNL d   1      31.050 -20.513  -5.089  0.00  0.00     0.022 C 
ATOM     21  C   UNL d   1      31.225 -20.274  -3.712  0.00  0.00     0.038 C 
ENDBRANCH  14  15
ENDBRANCH  12  14
ENDBRANCH   9  12
ENDBRANCH   7   8
ENDBRANCH   1   6
BRANCH   5  22
ATOM     22  C   UNL d   1      25.220 -15.660  -1.440  0.00  0.00    -0.005 A 
ATOM     23  C   UNL d   1      25.121 -15.321  -2.793  0.00  0.00     0.014 A 
ATOM     24  C   UNL d   1      25.789 -14.192  -3.282  0.00  0.00     0.001 A 
ATOM     25  C   UNL d   1      26.501 -13.366  -2.410  0.00  0.00     0.000 A 
ATOM     26  C   UNL d   1      26.582 -13.687  -1.056  0.00  0.00     0.001 A 
ATOM     27  C   UNL d   1      25.952 -14.835  -0.576  0.00  0.00     0.014 A 
ENDBRANCH   5  22
BRANCH   3  28
ATOM     28  C   UNL d   1      21.699 -18.712  -0.185  0.00  0.00     0.058 A 
ATOM     29  C   UNL d   1      21.257 -18.949   1.123  0.00  0.00     0.031 A 
ATOM     30  C   UNL d   1      19.983 -19.488   1.339  0.00  0.00     0.002 A 
ATOM     31  C   UNL d   1      19.147 -19.774   0.258  0.00  0.00     0.000 A 
ATOM     32  C   UNL d   1      19.588 -19.535  -1.044  0.00  0.00     0.002 A 
ATOM     33  C   UNL d   1      20.858 -18.991  -1.270  0.00  0.00     0.031 A 
ENDBRANCH   3  28
TORSDOF 7
ENDMDL
MODEL 7
REMARK VINA RESULT:    -9.044      4.845      7.185
REMARK INTER + INTRA:         -13.192
REMARK INTER:                 -11.132
REMARK INTRA:                  -2.060
REMARK CONF_INDEPENDENT:        2.088
REMARK UNBOUND:                -2.060
REMARK  7 active torsions:
REMARK  status: ('A' for Active; 'I' for Inactive)
REMARK    1  A    between atoms: C_2  and  O_3 
REMARK    2  A    between atoms: C_2  and  C_11 
REMARK    3  A    between atoms: O_3  and  C_4 
REMARK       I    between atoms: C_11  and  N_13 
REMARK    4  A    between atoms: N_13  and  N_14 
REMARK    5  A    between atoms: C_15  and  C_16 
REMARK    6  A    between atoms: N_18  and  C_19 
REMARK    7  A    between atoms: C_26  and  C_27 
ROOT
ATOM      1  C   UNL d   1      23.274 -16.679  -1.106  0.00  0.00     0.032 A 
ATOM      2  C   UNL d   1      21.989 -17.138  -0.893  0.00  0.00     0.134 A 
ATOM      3  N   UNL d   1      22.069 -18.191  -0.010  0.00  0.00    -0.244 N 
ATOM      4  N   UNL d   1      23.347 -18.424   0.380  0.00  0.00    -0.166 NA
ATOM      5  C   UNL d   1      24.086 -17.539  -0.310  0.00  0.00     0.101 A 
ENDROOT
BRANCH   1   6
ATOM      6  C   UNL d   1      23.705 -15.572  -1.944  0.00  0.00     0.154 C 
ATOM      7  N   UNL d   1      24.711 -15.726  -2.738  0.00  0.00    -0.184 NA
BRANCH   7   8
ATOM      8  N   UNL d   1      25.082 -14.661  -3.545  0.00  0.00    -0.245 N 
ATOM      9  C   UNL d   1      25.675 -13.560  -2.936  0.00  0.00     0.266 C 
ATOM     10  O   UNL d   1      25.906 -13.539  -1.716  0.00  0.00    -0.269 OA
ATOM     11  H   UNL d   1      24.920 -14.692  -4.545  0.00  0.00     0.192 HD
BRANCH   9  12
ATOM     12  C   UNL d   1      25.978 -12.317  -3.838  0.00  0.00     0.218 C 
ATOM     13  C   UNL d   1      27.224 -11.660  -3.217  0.00  0.00     0.050 C 
BRANCH  12  14
ATOM     14  O   UNL d   1      26.124 -12.691  -5.229  0.00  0.00    -0.337 OA
BRANCH  14  15
ATOM     15  C   UNL d   1      27.226 -13.437  -5.581  0.00  0.00     0.070 C 
ATOM     16  C   UNL d   1      27.419 -14.762  -5.183  0.00  0.00     0.038 C 
ATOM     17  C   UNL d   1      28.574 -15.475  -5.507  0.00  0.00     0.022 C 
ATOM     18  C   UNL d   1      29.491 -14.917  -6.381  0.00  0.00     0.011 C 
ATOM     19 BR   UNL d   1      31.001 -15.927  -6.896  0.00  0.00    -0.051 Br
ATOM     20  C   UNL d   1      29.261 -13.647  -6.907  0.00  0.00     0.022 C 
ATOM     21  C   UNL d   1      28.135 -12.904  -6.500  0.00  0.00     0.038 C 
ENDBRANCH  14  15
ENDBRANCH  12  14
ENDBRANCH   9  12
ENDBRANCH   7   8
ENDBRANCH   1   6
BRANCH   5  22
ATOM     22  C   UNL d   1      25.532 -17.440  -0.127  0.00  0.00    -0.005 A 
ATOM     23  C   UNL d   1      26.336 -18.576   0.019  0.00  0.00     0.014 A 
ATOM     24  C   UNL d   1      27.712 -18.435   0.230  0.00  0.00     0.001 A 
ATOM     25  C   UNL d   1      28.297 -17.167   0.230  0.00  0.00     0.000 A 
ATOM     26  C   UNL d   1      27.504 -16.035   0.060  0.00  0.00     0.001 A 
ATOM     27  C   UNL d   1      26.125 -16.171  -0.108  0.00  0.00     0.014 A 
ENDBRANCH   5  22
BRANCH   3  28
ATOM     28  C   UNL d   1      21.011 -19.047   0.392  0.00  0.00     0.058 A 
ATOM     29  C   UNL d   1      20.192 -19.658  -0.566  0.00  0.00     0.031 A 
ATOM     30  C   UNL d   1      19.101 -20.433  -0.155  0.00  0.00     0.002 A 
ATOM     31  C   UNL d   1      18.838 -20.612   1.204  0.00  0.00     0.000 A 
ATOM     32  C   UNL d   1      19.655 -20.005   2.157  0.00  0.00     0.002 A 
ATOM     33  C   UNL d   1      20.752 -19.232   1.756  0.00  0.00     0.031 A 
ENDBRANCH   3  28
TORSDOF 7
ENDMDL
MODEL 8
REMARK VINA RESULT:    -8.941      3.096      4.709
REMARK INTER + INTRA:         -13.678
REMARK INTER:                 -11.029
REMARK INTRA:                  -2.649
REMARK CONF_INDEPENDENT:        2.088
REMARK UNBOUND:                -2.649
REMARK  7 active torsions:
REMARK  status: ('A' for Active; 'I' for Inactive)
REMARK    1  A    between atoms: C_2  and  O_3 
REMARK    2  A    between atoms: C_2  and  C_11 
REMARK    3  A    between atoms: O_3  and  C_4 
REMARK       I    between atoms: C_11  and  N_13 
REMARK    4  A    between atoms: N_13  and  N_14 
REMARK    5  A    between atoms: C_15  and  C_16 
REMARK    6  A    between atoms: N_18  and  C_19 
REMARK    7  A    between atoms: C_26  and  C_27 
ROOT
ATOM      1  C   UNL d   1      25.172 -17.395  -0.208  0.00  0.00     0.032 A 
ATOM      2  C   UNL d   1      24.207 -18.233   0.315  0.00  0.00     0.134 A 
ATOM      3  N   UNL d   1      23.071 -18.078  -0.446  0.00  0.00    -0.244 N 
ATOM      4  N   UNL d   1      23.259 -17.195  -1.458  0.00  0.00    -0.166 NA
ATOM      5  C   UNL d   1      24.516 -16.747  -1.295  0.00  0.00     0.101 A 
ENDROOT
BRANCH   1   6
ATOM      6  C   UNL d   1      26.543 -17.215   0.240  0.00  0.00     0.154 C 
ATOM      7  N   UNL d   1      26.974 -16.031   0.519  0.00  0.00    -0.184 NA
BRANCH   7   8
ATOM      8  N   UNL d   1      28.278 -15.894   0.969  0.00  0.00    -0.245 N 
ATOM      9  C   UNL d   1      28.727 -14.615   1.281  0.00  0.00     0.266 C 
ATOM     10  O   UNL d   1      27.981 -13.626   1.199  0.00  0.00    -0.269 OA
ATOM     11  H   UNL d   1      28.877 -16.706   1.065  0.00  0.00     0.192 HD
BRANCH   9  12
ATOM     12  C   UNL d   1      30.236 -14.459   1.672  0.00  0.00     0.218 C 
ATOM     13  C   UNL d   1      30.254 -14.437   3.212  0.00  0.00     0.050 C 
BRANCH  12  14
ATOM     14  O   UNL d   1      31.050 -15.496   1.074  0.00  0.00    -0.337 OA
BRANCH  14  15
ATOM     15  C   UNL d   1      30.806 -15.828  -0.239  0.00  0.00     0.070 C 
ATOM     16  C   UNL d   1      30.746 -14.889  -1.272  0.00  0.00     0.038 C 
ATOM     17  C   UNL d   1      30.439 -15.248  -2.585  0.00  0.00     0.022 C 
ATOM     18  C   UNL d   1      30.346 -16.589  -2.916  0.00  0.00     0.011 C 
ATOM     19 BR   UNL d   1      30.031 -17.072  -4.714  0.00  0.00    -0.051 Br
ATOM     20  C   UNL d   1      30.538 -17.559  -1.934  0.00  0.00     0.022 C 
ATOM     21  C   UNL d   1      30.757 -17.179  -0.595  0.00  0.00     0.038 C 
ENDBRANCH  14  15
ENDBRANCH  12  14
ENDBRANCH   9  12
ENDBRANCH   7   8
ENDBRANCH   1   6
BRANCH   5  22
ATOM     22  C   UNL d   1      25.120 -15.801  -2.231  0.00  0.00    -0.005 A 
ATOM     23  C   UNL d   1      24.401 -14.720  -2.752  0.00  0.00     0.014 A 
ATOM     24  C   UNL d   1      25.006 -13.858  -3.675  0.00  0.00     0.001 A 
ATOM     25  C   UNL d   1      26.345 -14.035  -4.027  0.00  0.00     0.000 A 
ATOM     26  C   UNL d   1      27.073 -15.095  -3.490  0.00  0.00     0.001 A 
ATOM     27  C   UNL d   1      26.459 -15.980  -2.603  0.00  0.00     0.014 A 
ENDBRANCH   5  22
BRANCH   3  28
ATOM     28  C   UNL d   1      21.794 -18.644  -0.195  0.00  0.00     0.058 A 
ATOM     29  C   UNL d   1      21.401 -18.950   1.114  0.00  0.00     0.031 A 
ATOM     30  C   UNL d   1      20.172 -19.584   1.340  0.00  0.00     0.002 A 
ATOM     31  C   UNL d   1      19.334 -19.896   0.269  0.00  0.00     0.000 A 
ATOM     32  C   UNL d   1      19.726 -19.589  -1.034  0.00  0.00     0.002 A 
ATOM     33  C   UNL d   1      20.949 -18.950  -1.270  0.00  0.00     0.031 A 
ENDBRANCH   3  28
TORSDOF 7
ENDMDL
MODEL 9
REMARK VINA RESULT:    -8.912      4.397      5.509
REMARK INTER + INTRA:         -13.344
REMARK INTER:                 -11.000
REMARK INTRA:                  -2.344
REMARK CONF_INDEPENDENT:        2.088
REMARK UNBOUND:                -2.344
REMARK  7 active torsions:
REMARK  status: ('A' for Active; 'I' for Inactive)
REMARK    1  A    between atoms: C_2  and  O_3 
REMARK    2  A    between atoms: C_2  and  C_11 
REMARK    3  A    between atoms: O_3  and  C_4 
REMARK       I    between atoms: C_11  and  N_13 
REMARK    4  A    between atoms: N_13  and  N_14 
REMARK    5  A    between atoms: C_15  and  C_16 
REMARK    6  A    between atoms: N_18  and  C_19 
REMARK    7  A    between atoms: C_26  and  C_27 
ROOT
ATOM      1  C   UNL d   1      25.159 -17.389  -0.256  0.00  0.00     0.032 A 
ATOM      2  C   UNL d   1      24.202 -18.231   0.275  0.00  0.00     0.134 A 
ATOM      3  N   UNL d   1      23.055 -18.073  -0.470  0.00  0.00    -0.244 N 
ATOM      4  N   UNL d   1      23.229 -17.184  -1.478  0.00  0.00    -0.166 NA
ATOM      5  C   UNL d   1      24.488 -16.735  -1.330  0.00  0.00     0.101 A 
ENDROOT
BRANCH   1   6
ATOM      6  C   UNL d   1      26.536 -17.210   0.174  0.00  0.00     0.154 C 
ATOM      7  N   UNL d   1      27.499 -17.641  -0.570  0.00  0.00    -0.184 NA
BRANCH   7   8
ATOM      8  N   UNL d   1      28.802 -17.431  -0.145  0.00  0.00    -0.245 N 
ATOM      9  C   UNL d   1      29.313 -16.140  -0.225  0.00  0.00     0.266 C 
ATOM     10  O   UNL d   1      28.619 -15.191  -0.627  0.00  0.00    -0.269 OA
ATOM     11  H   UNL d   1      29.358 -18.201   0.210  0.00  0.00     0.192 HD
BRANCH   9  12
ATOM     12  C   UNL d   1      30.821 -15.940   0.142  0.00  0.00     0.218 C 
ATOM     13  C   UNL d   1      31.381 -17.360   0.344  0.00  0.00     0.050 C 
BRANCH  12  14
ATOM     14  O   UNL d   1      31.513 -15.155  -0.859  0.00  0.00    -0.337 OA
BRANCH  14  15
ATOM     15  C   UNL d   1      30.993 -15.139  -2.134  0.00  0.00     0.070 C 
ATOM     16  C   UNL d   1      30.652 -13.966  -2.811  0.00  0.00     0.038 C 
ATOM     17  C   UNL d   1      30.073 -13.982  -4.080  0.00  0.00     0.022 C 
ATOM     18  C   UNL d   1      29.975 -15.182  -4.764  0.00  0.00     0.011 C 
ATOM     19 BR   UNL d   1      29.284 -15.184  -6.521  0.00  0.00    -0.051 Br
ATOM     20  C   UNL d   1      30.434 -16.356  -4.170  0.00  0.00     0.022 C 
ATOM     21  C   UNL d   1      30.933 -16.336  -2.853  0.00  0.00     0.038 C 
ENDBRANCH  14  15
ENDBRANCH  12  14
ENDBRANCH   9  12
ENDBRANCH   7   8
ENDBRANCH   1   6
BRANCH   5  22
ATOM     22  C   UNL d   1      25.077 -15.783  -2.268  0.00  0.00    -0.005 A 
ATOM     23  C   UNL d   1      24.381 -14.650  -2.703  0.00  0.00     0.014 A 
ATOM     24  C   UNL d   1      24.969 -13.782  -3.631  0.00  0.00     0.001 A 
ATOM     25  C   UNL d   1      26.273 -14.008  -4.076  0.00  0.00     0.000 A 
ATOM     26  C   UNL d   1      26.979 -15.122  -3.626  0.00  0.00     0.001 A 
ATOM     27  C   UNL d   1      26.379 -16.011  -2.733  0.00  0.00     0.014 A 
ENDBRANCH   5  22
BRANCH   3  28
ATOM     28  C   UNL d   1      21.782 -18.642  -0.204  0.00  0.00     0.058 A 
ATOM     29  C   UNL d   1      21.405 -18.950   1.109  0.00  0.00     0.031 A 
ATOM     30  C   UNL d   1      20.181 -19.587   1.349  0.00  0.00     0.002 A 
ATOM     31  C   UNL d   1      19.331 -19.900   0.287  0.00  0.00     0.000 A 
ATOM     32  C   UNL d   1      19.708 -19.592  -1.020  0.00  0.00     0.002 A 
ATOM     33  C   UNL d   1      20.926 -18.949  -1.270  0.00  0.00     0.031 A 
ENDBRANCH   3  28
TORSDOF 7
ENDMDL
