MODEL 1
REMARK VINA RESULT:    -7.142      0.000      0.000
REMARK INTER + INTRA:         -11.912
REMARK INTER:                 -10.125
REMARK INTRA:                  -1.787
REMARK CONF_INDEPENDENT:        2.983
REMARK UNBOUND:                -1.787
REMARK  10 active torsions:
REMARK  status: ('A' for Active; 'I' for Inactive)
REMARK       I    between atoms: C_2  and  N_3 
REMARK       I    between atoms: C_2  and  N_12 
REMARK    1  A    between atoms: N_3  and  C_4 
REMARK    2  A    between atoms: C_4  and  C_5 
REMARK    3  A    between atoms: C_5  and  C_6 
REMARK    4  A    between atoms: C_6  and  N_7 
REMARK    5  A    between atoms: N_12  and  N_13 
REMARK       I    between atoms: N_13  and  C_14 
REMARK    6  A    between atoms: C_14  and  C_16 
REMARK    7  A    between atoms: C_19  and  C_20 
REMARK    8  A    between atoms: C_20  and  O_21 
REMARK    9  A    between atoms: O_21  and  C_22 
REMARK   10  A    between atoms: C_22  and  C_23 
ROOT
ATOM      1  N   UNL d   1      26.836 -18.001  -0.244  0.00  0.00    -0.262 N 
ATOM      2  C   UNL d   1      25.910 -16.983  -0.443  0.00  0.00     0.270 C 
ATOM      3  O   UNL d   1      26.213 -15.794  -0.546  0.00  0.00    -0.266 OA
ATOM      4  H   UNL d   1      26.551 -18.966  -0.271  0.00  0.00     0.190 HD
ENDROOT
BRANCH   1   5
ATOM      5  N   UNL d   1      28.205 -17.677  -0.161  0.00  0.00    -0.249 N 
ATOM      6  C   UNL d   1      28.938 -16.954  -1.073  0.00  0.00     0.334 C 
ATOM      7  O   UNL d   1      30.138 -16.747  -0.908  0.00  0.00    -0.246 OA
ATOM      8  N   UNL d   1      28.267 -16.477  -2.172  0.00  0.00    -0.342 N 
ATOM      9  H   UNL d   1      27.286 -16.663  -2.250  0.00  0.00     0.164 HD
ATOM     10  H   UNL d   1      28.703 -18.040   0.655  0.00  0.00     0.192 HD
BRANCH   8  11
ATOM     11  C   UNL d   1      28.948 -15.690  -3.191  0.00  0.00     0.126 C 
BRANCH  11  12
ATOM     12  C   UNL d   1      28.278 -15.809  -4.559  0.00  0.00     0.040 C 
BRANCH  12  13
ATOM     13  C   UNL d   1      28.000 -14.445  -5.188  0.00  0.00     0.130 C 
BRANCH  13  14
ATOM     14  N   UNL d   1      26.723 -13.890  -4.706  0.00  0.00    -0.352 N 
ATOM     15  C   UNL d   1      25.647 -14.625  -4.216  0.00  0.00     0.108 A 
ATOM     16  C   UNL d   1      24.673 -13.728  -3.877  0.00  0.00     0.106 A 
ATOM     17  N   UNL d   1      25.183 -12.483  -4.161  0.00  0.00    -0.361 N 
ATOM     18  C   UNL d   1      26.422 -12.581  -4.652  0.00  0.00     0.182 A 
ATOM     19  H   UNL d   1      24.695 -11.601  -4.013  0.00  0.00     0.166 HD
ENDBRANCH  13  14
ENDBRANCH  12  13
ENDBRANCH  11  12
ENDBRANCH   8  11
ENDBRANCH   1   5
BRANCH   2  20
ATOM     20  C   UNL d   1      24.476 -17.399  -0.514  0.00  0.00     0.033 A 
ATOM     21  C   UNL d   1      24.124 -18.755  -0.462  0.00  0.00     0.017 A 
ATOM     22  C   UNL d   1      22.791 -19.152  -0.651  0.00  0.00     0.010 A 
ATOM     23  C   UNL d   1      21.780 -18.196  -0.827  0.00  0.00    -0.035 A 
ATOM     24  C   UNL d   1      22.146 -16.843  -0.893  0.00  0.00     0.010 A 
ATOM     25  C   UNL d   1      23.479 -16.446  -0.741  0.00  0.00     0.017 A 
BRANCH  23  26
ATOM     26  C   UNL d   1      20.336 -18.642  -0.897  0.00  0.00     0.206 C 
BRANCH  26  27
ATOM     27  O   UNL d   1      20.258 -20.061  -0.790  0.00  0.00    -0.378 OA
BRANCH  27  28
ATOM     28  C   UNL d   1      19.257 -20.486   0.141  0.00  0.00     0.285 C 
BRANCH  28  29
ATOM     29  C   UNL d   1      19.471 -19.831   1.499  0.00  0.00     0.408 C 
ATOM     30  F   UNL d   1      20.768 -19.494   1.686  0.00  0.00    -0.169 F 
ATOM     31  F   UNL d   1      18.727 -18.711   1.634  0.00  0.00    -0.169 F 
ATOM     32  F   UNL d   1      19.124 -20.677   2.495  0.00  0.00    -0.169 F 
ENDBRANCH  28  29
ENDBRANCH  27  28
ENDBRANCH  26  27
ENDBRANCH  23  26
ENDBRANCH   2  20
TORSDOF 10
ENDMDL
MODEL 2
REMARK VINA RESULT:    -6.926      3.120      4.730
REMARK INTER + INTRA:         -11.423
REMARK INTER:                  -9.909
REMARK INTRA:                  -1.514
REMARK CONF_INDEPENDENT:        2.983
REMARK UNBOUND:                -1.514
REMARK  10 active torsions:
REMARK  status: ('A' for Active; 'I' for Inactive)
REMARK       I    between atoms: C_2  and  N_3 
REMARK       I    between atoms: C_2  and  N_12 
REMARK    1  A    between atoms: N_3  and  C_4 
REMARK    2  A    between atoms: C_4  and  C_5 
REMARK    3  A    between atoms: C_5  and  C_6 
REMARK    4  A    between atoms: C_6  and  N_7 
REMARK    5  A    between atoms: N_12  and  N_13 
REMARK       I    between atoms: N_13  and  C_14 
REMARK    6  A    between atoms: C_14  and  C_16 
REMARK    7  A    between atoms: C_19  and  C_20 
REMARK    8  A    between atoms: C_20  and  O_21 
REMARK    9  A    between atoms: O_21  and  C_22 
REMARK   10  A    between atoms: C_22  and  C_23 
ROOT
ATOM      1  N   UNL d   1      26.659 -17.803   0.224  0.00  0.00    -0.262 N 
ATOM      2  C   UNL d   1      25.855 -17.149  -0.703  0.00  0.00     0.270 C 
ATOM      3  O   UNL d   1      26.271 -16.294  -1.485  0.00  0.00    -0.266 OA
ATOM      4  H   UNL d   1      26.295 -18.567   0.769  0.00  0.00     0.190 HD
ENDROOT
BRANCH   1   5
ATOM      5  N   UNL d   1      28.031 -17.490   0.283  0.00  0.00    -0.249 N 
ATOM      6  C   UNL d   1      28.588 -16.238   0.387  0.00  0.00     0.334 C 
ATOM      7  O   UNL d   1      29.807 -16.080   0.410  0.00  0.00    -0.246 OA
ATOM      8  N   UNL d   1      27.721 -15.176   0.464  0.00  0.00    -0.342 N 
ATOM      9  H   UNL d   1      26.737 -15.363   0.455  0.00  0.00     0.164 HD
ATOM     10  H   UNL d   1      28.674 -18.283   0.218  0.00  0.00     0.192 HD
BRANCH   8  11
ATOM     11  C   UNL d   1      28.207 -13.809   0.590  0.00  0.00     0.126 C 
BRANCH  11  12
ATOM     12  C   UNL d   1      27.432 -13.011   1.637  0.00  0.00     0.040 C 
BRANCH  12  13
ATOM     13  C   UNL d   1      27.040 -13.865   2.841  0.00  0.00     0.130 C 
BRANCH  13  14
ATOM     14  N   UNL d   1      28.202 -14.115   3.713  0.00  0.00    -0.352 N 
ATOM     15  C   UNL d   1      28.187 -14.832   4.907  0.00  0.00     0.108 A 
ATOM     16  C   UNL d   1      29.465 -14.827   5.390  0.00  0.00     0.106 A 
ATOM     17  N   UNL d   1      30.216 -14.121   4.481  0.00  0.00    -0.361 N 
ATOM     18  C   UNL d   1      29.456 -13.699   3.466  0.00  0.00     0.182 A 
ATOM     19  H   UNL d   1      31.217 -13.944   4.557  0.00  0.00     0.166 HD
ENDBRANCH  13  14
ENDBRANCH  12  13
ENDBRANCH  11  12
ENDBRANCH   8  11
ENDBRANCH   1   5
BRANCH   2  20
ATOM     20  C   UNL d   1      24.408 -17.525  -0.706  0.00  0.00     0.033 A 
ATOM     21  C   UNL d   1      24.023 -18.873  -0.715  0.00  0.00     0.017 A 
ATOM     22  C   UNL d   1      22.670 -19.225  -0.841  0.00  0.00     0.010 A 
ATOM     23  C   UNL d   1      21.676 -18.237  -0.890  0.00  0.00    -0.035 A 
ATOM     24  C   UNL d   1      22.075 -16.891  -0.895  0.00  0.00     0.010 A 
ATOM     25  C   UNL d   1      23.426 -16.536  -0.806  0.00  0.00     0.017 A 
BRANCH  23  26
ATOM     26  C   UNL d   1      20.219 -18.644  -0.892  0.00  0.00     0.206 C 
BRANCH  26  27
ATOM     27  O   UNL d   1      20.109 -20.064  -0.860  0.00  0.00    -0.378 OA
BRANCH  27  28
ATOM     28  C   UNL d   1      19.950 -20.571   0.470  0.00  0.00     0.285 C 
BRANCH  28  29
ATOM     29  C   UNL d   1      18.516 -21.026   0.704  0.00  0.00     0.408 C 
ATOM     30  F   UNL d   1      17.953 -20.374   1.747  0.00  0.00    -0.169 F 
ATOM     31  F   UNL d   1      17.742 -20.815  -0.384  0.00  0.00    -0.169 F 
ATOM     32  F   UNL d   1      18.476 -22.349   0.983  0.00  0.00    -0.169 F 
ENDBRANCH  28  29
ENDBRANCH  27  28
ENDBRANCH  26  27
ENDBRANCH  23  26
ENDBRANCH   2  20
TORSDOF 10
ENDMDL
MODEL 3
REMARK VINA RESULT:    -6.774      1.080      1.702
REMARK INTER + INTRA:         -11.720
REMARK INTER:                  -9.757
REMARK INTRA:                  -1.963
REMARK CONF_INDEPENDENT:        2.983
REMARK UNBOUND:                -1.963
REMARK  10 active torsions:
REMARK  status: ('A' for Active; 'I' for Inactive)
REMARK       I    between atoms: C_2  and  N_3 
REMARK       I    between atoms: C_2  and  N_12 
REMARK    1  A    between atoms: N_3  and  C_4 
REMARK    2  A    between atoms: C_4  and  C_5 
REMARK    3  A    between atoms: C_5  and  C_6 
REMARK    4  A    between atoms: C_6  and  N_7 
REMARK    5  A    between atoms: N_12  and  N_13 
REMARK       I    between atoms: N_13  and  C_14 
REMARK    6  A    between atoms: C_14  and  C_16 
REMARK    7  A    between atoms: C_19  and  C_20 
REMARK    8  A    between atoms: C_20  and  O_21 
REMARK    9  A    between atoms: O_21  and  C_22 
REMARK   10  A    between atoms: C_22  and  C_23 
ROOT
ATOM      1  N   UNL d   1      26.955 -18.122  -0.362  0.00  0.00    -0.262 N 
ATOM      2  C   UNL d   1      26.001 -17.132  -0.152  0.00  0.00     0.270 C 
ATOM      3  O   UNL d   1      26.273 -15.989   0.219  0.00  0.00    -0.266 OA
ATOM      4  H   UNL d   1      26.695 -19.006  -0.766  0.00  0.00     0.190 HD
ENDROOT
BRANCH   1   5
ATOM      5  N   UNL d   1      28.315 -17.820  -0.152  0.00  0.00    -0.249 N 
ATOM      6  C   UNL d   1      29.024 -16.780  -0.706  0.00  0.00     0.334 C 
ATOM      7  O   UNL d   1      30.219 -16.622  -0.467  0.00  0.00    -0.246 OA
ATOM      8  N   UNL d   1      28.335 -15.929  -1.535  0.00  0.00    -0.342 N 
ATOM      9  H   UNL d   1      27.359 -16.095  -1.684  0.00  0.00     0.164 HD
ATOM     10  H   UNL d   1      28.827 -18.459   0.460  0.00  0.00     0.192 HD
BRANCH   8  11
ATOM     11  C   UNL d   1      28.989 -14.789  -2.162  0.00  0.00     0.126 C 
BRANCH  11  12
ATOM     12  C   UNL d   1      28.390 -13.457  -1.711  0.00  0.00     0.040 C 
BRANCH  12  13
ATOM     13  C   UNL d   1      26.915 -13.582  -1.337  0.00  0.00     0.130 C 
BRANCH  13  14
ATOM     14  N   UNL d   1      26.051 -13.384  -2.516  0.00  0.00    -0.352 N 
ATOM     15  C   UNL d   1      25.067 -14.261  -2.962  0.00  0.00     0.108 A 
ATOM     16  C   UNL d   1      24.507 -13.697  -4.075  0.00  0.00     0.106 A 
ATOM     17  N   UNL d   1      25.156 -12.501  -4.267  0.00  0.00    -0.361 N 
ATOM     18  C   UNL d   1      26.081 -12.309  -3.322  0.00  0.00     0.182 A 
ATOM     19  H   UNL d   1      24.961 -11.841  -5.017  0.00  0.00     0.166 HD
ENDBRANCH  13  14
ENDBRANCH  12  13
ENDBRANCH  11  12
ENDBRANCH   8  11
ENDBRANCH   1   5
BRANCH   2  20
ATOM     20  C   UNL d   1      24.578 -17.524  -0.388  0.00  0.00     0.033 A 
ATOM     21  C   UNL d   1      23.585 -16.545  -0.534  0.00  0.00     0.017 A 
ATOM     22  C   UNL d   1      22.233 -16.913  -0.633  0.00  0.00     0.010 A 
ATOM     23  C   UNL d   1      21.861 -18.264  -0.657  0.00  0.00    -0.035 A 
ATOM     24  C   UNL d   1      22.862 -19.234  -0.495  0.00  0.00     0.010 A 
ATOM     25  C   UNL d   1      24.207 -18.871  -0.359  0.00  0.00     0.017 A 
BRANCH  23  26
ATOM     26  C   UNL d   1      20.414 -18.634  -0.897  0.00  0.00     0.206 C 
BRANCH  26  27
ATOM     27  O   UNL d   1      20.247 -20.045  -0.789  0.00  0.00    -0.378 OA
BRANCH  27  28
ATOM     28  C   UNL d   1      19.019 -20.404  -0.146  0.00  0.00     0.285 C 
BRANCH  28  29
ATOM     29  C   UNL d   1      19.134 -20.241   1.364  0.00  0.00     0.408 C 
ATOM     30  F   UNL d   1      18.683 -19.031   1.766  0.00  0.00    -0.169 F 
ATOM     31  F   UNL d   1      18.430 -21.188   2.022  0.00  0.00    -0.169 F 
ATOM     32  F   UNL d   1      20.425 -20.344   1.757  0.00  0.00    -0.169 F 
ENDBRANCH  28  29
ENDBRANCH  27  28
ENDBRANCH  26  27
ENDBRANCH  23  26
ENDBRANCH   2  20
TORSDOF 10
ENDMDL
MODEL 4
REMARK VINA RESULT:    -6.740      0.956      1.495
REMARK INTER + INTRA:         -11.597
REMARK INTER:                  -9.723
REMARK INTRA:                  -1.873
REMARK CONF_INDEPENDENT:        2.983
REMARK UNBOUND:                -1.873
REMARK  10 active torsions:
REMARK  status: ('A' for Active; 'I' for Inactive)
REMARK       I    between atoms: C_2  and  N_3 
REMARK       I    between atoms: C_2  and  N_12 
REMARK    1  A    between atoms: N_3  and  C_4 
REMARK    2  A    between atoms: C_4  and  C_5 
REMARK    3  A    between atoms: C_5  and  C_6 
REMARK    4  A    between atoms: C_6  and  N_7 
REMARK    5  A    between atoms: N_12  and  N_13 
REMARK       I    between atoms: N_13  and  C_14 
REMARK    6  A    between atoms: C_14  and  C_16 
REMARK    7  A    between atoms: C_19  and  C_20 
REMARK    8  A    between atoms: C_20  and  O_21 
REMARK    9  A    between atoms: O_21  and  C_22 
REMARK   10  A    between atoms: C_22  and  C_23 
ROOT
ATOM      1  N   UNL d   1      27.156 -17.442   0.031  0.00  0.00    -0.262 N 
ATOM      2  C   UNL d   1      26.234 -16.651  -0.646  0.00  0.00     0.270 C 
ATOM      3  O   UNL d   1      26.509 -15.561  -1.150  0.00  0.00    -0.266 OA
ATOM      4  H   UNL d   1      26.910 -18.370   0.332  0.00  0.00     0.190 HD
ENDROOT
BRANCH   1   5
ATOM      5  N   UNL d   1      28.486 -16.994   0.152  0.00  0.00    -0.249 N 
ATOM      6  C   UNL d   1      29.309 -16.566  -0.862  0.00  0.00     0.334 C 
ATOM      7  O   UNL d   1      30.465 -16.214  -0.643  0.00  0.00    -0.246 OA
ATOM      8  N   UNL d   1      28.778 -16.551  -2.129  0.00  0.00    -0.342 N 
ATOM      9  H   UNL d   1      27.825 -16.834  -2.249  0.00  0.00     0.164 HD
ATOM     10  H   UNL d   1      28.881 -17.014   1.096  0.00  0.00     0.192 HD
BRANCH   8  11
ATOM     11  C   UNL d   1      29.560 -16.103  -3.272  0.00  0.00     0.126 C 
BRANCH  11  12
ATOM     12  C   UNL d   1      28.822 -15.058  -4.107  0.00  0.00     0.040 C 
BRANCH  12  13
ATOM     13  C   UNL d   1      27.486 -15.577  -4.635  0.00  0.00     0.130 C 
BRANCH  13  14
ATOM     14  N   UNL d   1      26.426 -14.564  -4.479  0.00  0.00    -0.352 N 
ATOM     15  C   UNL d   1      25.222 -14.740  -3.802  0.00  0.00     0.108 A 
ATOM     16  C   UNL d   1      24.537 -13.561  -3.895  0.00  0.00     0.106 A 
ATOM     17  N   UNL d   1      25.338 -12.708  -4.615  0.00  0.00    -0.361 N 
ATOM     18  C   UNL d   1      26.481 -13.310  -4.959  0.00  0.00     0.182 A 
ATOM     19  H   UNL d   1      25.107 -11.744  -4.851  0.00  0.00     0.166 HD
ENDBRANCH  13  14
ENDBRANCH  12  13
ENDBRANCH  11  12
ENDBRANCH   8  11
ENDBRANCH   1   5
BRANCH   2  20
ATOM     20  C   UNL d   1      24.841 -17.185  -0.732  0.00  0.00     0.033 A 
ATOM     21  C   UNL d   1      23.754 -16.315  -0.903  0.00  0.00     0.017 A 
ATOM     22  C   UNL d   1      22.439 -16.804  -0.862  0.00  0.00     0.010 A 
ATOM     23  C   UNL d   1      22.191 -18.176  -0.717  0.00  0.00    -0.035 A 
ATOM     24  C   UNL d   1      23.286 -19.035  -0.532  0.00  0.00     0.010 A 
ATOM     25  C   UNL d   1      24.597 -18.547  -0.537  0.00  0.00     0.017 A 
BRANCH  23  26
ATOM     26  C   UNL d   1      20.772 -18.691  -0.808  0.00  0.00     0.206 C 
BRANCH  26  27
ATOM     27  O   UNL d   1      20.744 -20.093  -0.555  0.00  0.00    -0.378 OA
BRANCH  27  28
ATOM     28  C   UNL d   1      20.223 -20.406   0.742  0.00  0.00     0.285 C 
BRANCH  28  29
ATOM     29  C   UNL d   1      18.734 -20.713   0.663  0.00  0.00     0.408 C 
ATOM     30  F   UNL d   1      18.211 -20.328  -0.524  0.00  0.00    -0.169 F 
ATOM     31  F   UNL d   1      18.489 -22.033   0.817  0.00  0.00    -0.169 F 
ATOM     32  F   UNL d   1      18.060 -20.056   1.635  0.00  0.00    -0.169 F 
ENDBRANCH  28  29
ENDBRANCH  27  28
ENDBRANCH  26  27
ENDBRANCH  23  26
ENDBRANCH   2  20
TORSDOF 10
ENDMDL
MODEL 5
REMARK VINA RESULT:    -6.681      2.199      3.584
REMARK INTER + INTRA:         -11.137
REMARK INTER:                  -9.664
REMARK INTRA:                  -1.473
REMARK CONF_INDEPENDENT:        2.983
REMARK UNBOUND:                -1.473
REMARK  10 active torsions:
REMARK  status: ('A' for Active; 'I' for Inactive)
REMARK       I    between atoms: C_2  and  N_3 
REMARK       I    between atoms: C_2  and  N_12 
REMARK    1  A    between atoms: N_3  and  C_4 
REMARK    2  A    between atoms: C_4  and  C_5 
REMARK    3  A    between atoms: C_5  and  C_6 
REMARK    4  A    between atoms: C_6  and  N_7 
REMARK    5  A    between atoms: N_12  and  N_13 
REMARK       I    between atoms: N_13  and  C_14 
REMARK    6  A    between atoms: C_14  and  C_16 
REMARK    7  A    between atoms: C_19  and  C_20 
REMARK    8  A    between atoms: C_20  and  O_21 
REMARK    9  A    between atoms: O_21  and  C_22 
REMARK   10  A    between atoms: C_22  and  C_23 
ROOT
ATOM      1  N   UNL d   1      26.910 -18.138  -0.379  0.00  0.00    -0.262 N 
ATOM      2  C   UNL d   1      25.985 -17.107  -0.503  0.00  0.00     0.270 C 
ATOM      3  O   UNL d   1      26.287 -15.913  -0.486  0.00  0.00    -0.266 OA
ATOM      4  H   UNL d   1      26.629 -19.096  -0.504  0.00  0.00     0.190 HD
ENDROOT
BRANCH   1   5
ATOM      5  N   UNL d   1      28.275 -17.821  -0.234  0.00  0.00    -0.249 N 
ATOM      6  C   UNL d   1      29.028 -17.017  -1.057  0.00  0.00     0.334 C 
ATOM      7  O   UNL d   1      30.223 -16.824  -0.845  0.00  0.00    -0.246 OA
ATOM      8  N   UNL d   1      28.382 -16.440  -2.123  0.00  0.00    -0.342 N 
ATOM      9  H   UNL d   1      27.403 -16.619  -2.241  0.00  0.00     0.164 HD
ATOM     10  H   UNL d   1      28.755 -18.258   0.556  0.00  0.00     0.192 HD
BRANCH   8  11
ATOM     11  C   UNL d   1      29.083 -15.561  -3.048  0.00  0.00     0.126 C 
BRANCH  11  12
ATOM     12  C   UNL d   1      29.304 -16.212  -4.413  0.00  0.00     0.040 C 
BRANCH  12  13
ATOM     13  C   UNL d   1      30.673 -16.881  -4.520  0.00  0.00     0.130 C 
BRANCH  13  14
ATOM     14  N   UNL d   1      30.571 -18.195  -5.180  0.00  0.00    -0.352 N 
ATOM     15  C   UNL d   1      30.530 -19.429  -4.538  0.00  0.00     0.108 A 
ATOM     16  C   UNL d   1      30.430 -20.382  -5.513  0.00  0.00     0.106 A 
ATOM     17  N   UNL d   1      30.406 -19.705  -6.709  0.00  0.00    -0.361 N 
ATOM     18  C   UNL d   1      30.482 -18.387  -6.508  0.00  0.00     0.182 A 
ATOM     19  H   UNL d   1      30.332 -20.139  -7.628  0.00  0.00     0.166 HD
ENDBRANCH  13  14
ENDBRANCH  12  13
ENDBRANCH  11  12
ENDBRANCH   8  11
ENDBRANCH   1   5
BRANCH   2  20
ATOM     20  C   UNL d   1      24.555 -17.516  -0.647  0.00  0.00     0.033 A 
ATOM     21  C   UNL d   1      23.551 -16.550  -0.808  0.00  0.00     0.017 A 
ATOM     22  C   UNL d   1      22.198 -16.926  -0.821  0.00  0.00     0.010 A 
ATOM     23  C   UNL d   1      21.832 -18.277  -0.743  0.00  0.00    -0.035 A 
ATOM     24  C   UNL d   1      22.844 -19.233  -0.568  0.00  0.00     0.010 A 
ATOM     25  C   UNL d   1      24.192 -18.859  -0.517  0.00  0.00     0.017 A 
BRANCH  23  26
ATOM     26  C   UNL d   1      20.377 -18.664  -0.892  0.00  0.00     0.206 C 
BRANCH  26  27
ATOM     27  O   UNL d   1      20.254 -20.083  -0.952  0.00  0.00    -0.378 OA
BRANCH  27  28
ATOM     28  C   UNL d   1      20.110 -20.675   0.343  0.00  0.00     0.285 C 
BRANCH  28  29
ATOM     29  C   UNL d   1      18.641 -20.754   0.739  0.00  0.00     0.408 C 
ATOM     30  F   UNL d   1      18.305 -19.760   1.593  0.00  0.00    -0.169 F 
ATOM     31  F   UNL d   1      17.830 -20.669  -0.339  0.00  0.00    -0.169 F 
ATOM     32  F   UNL d   1      18.378 -21.928   1.358  0.00  0.00    -0.169 F 
ENDBRANCH  28  29
ENDBRANCH  27  28
ENDBRANCH  26  27
ENDBRANCH  23  26
ENDBRANCH   2  20
TORSDOF 10
ENDMDL
MODEL 6
REMARK VINA RESULT:    -6.520      1.931      3.093
REMARK INTER + INTRA:         -11.041
REMARK INTER:                  -9.503
REMARK INTRA:                  -1.538
REMARK CONF_INDEPENDENT:        2.983
REMARK UNBOUND:                -1.538
REMARK  10 active torsions:
REMARK  status: ('A' for Active; 'I' for Inactive)
REMARK       I    between atoms: C_2  and  N_3 
REMARK       I    between atoms: C_2  and  N_12 
REMARK    1  A    between atoms: N_3  and  C_4 
REMARK    2  A    between atoms: C_4  and  C_5 
REMARK    3  A    between atoms: C_5  and  C_6 
REMARK    4  A    between atoms: C_6  and  N_7 
REMARK    5  A    between atoms: N_12  and  N_13 
REMARK       I    between atoms: N_13  and  C_14 
REMARK    6  A    between atoms: C_14  and  C_16 
REMARK    7  A    between atoms: C_19  and  C_20 
REMARK    8  A    between atoms: C_20  and  O_21 
REMARK    9  A    between atoms: O_21  and  C_22 
REMARK   10  A    between atoms: C_22  and  C_23 
ROOT
ATOM      1  N   UNL d   1      26.116 -15.084  -0.346  0.00  0.00    -0.262 N 
ATOM      2  C   UNL d   1      25.627 -15.867  -1.387  0.00  0.00     0.270 C 
ATOM      3  O   UNL d   1      26.046 -15.805  -2.543  0.00  0.00    -0.266 OA
ATOM      4  H   UNL d   1      25.815 -15.245   0.601  0.00  0.00     0.190 HD
ENDROOT
BRANCH   1   5
ATOM      5  N   UNL d   1      27.153 -14.168  -0.606  0.00  0.00    -0.249 N 
ATOM      6  C   UNL d   1      27.185 -13.218  -1.600  0.00  0.00     0.334 C 
ATOM      7  O   UNL d   1      28.157 -12.480  -1.748  0.00  0.00    -0.246 OA
ATOM      8  N   UNL d   1      26.083 -13.134  -2.415  0.00  0.00    -0.342 N 
ATOM      9  H   UNL d   1      25.314 -13.750  -2.241  0.00  0.00     0.164 HD
ATOM     10  H   UNL d   1      27.975 -14.238  -0.002  0.00  0.00     0.192 HD
BRANCH   8  11
ATOM     11  C   UNL d   1      26.010 -12.154  -3.490  0.00  0.00     0.126 C 
BRANCH  11  12
ATOM     12  C   UNL d   1      26.329 -12.764  -4.854  0.00  0.00     0.040 C 
BRANCH  12  13
ATOM     13  C   UNL d   1      26.716 -14.238  -4.752  0.00  0.00     0.130 C 
BRANCH  13  14
ATOM     14  N   UNL d   1      27.857 -14.547  -5.633  0.00  0.00    -0.352 N 
ATOM     15  C   UNL d   1      28.780 -15.573  -5.443  0.00  0.00     0.108 A 
ATOM     16  C   UNL d   1      29.664 -15.510  -6.484  0.00  0.00     0.106 A 
ATOM     17  N   UNL d   1      29.253 -14.463  -7.274  0.00  0.00    -0.361 N 
ATOM     18  C   UNL d   1      28.159 -13.888  -6.765  0.00  0.00     0.182 A 
ATOM     19  H   UNL d   1      29.708 -14.163  -8.135  0.00  0.00     0.166 HD
ENDBRANCH  13  14
ENDBRANCH  12  13
ENDBRANCH  11  12
ENDBRANCH   8  11
ENDBRANCH   1   5
BRANCH   2  20
ATOM     20  C   UNL d   1      24.523 -16.813  -1.040  0.00  0.00     0.033 A 
ATOM     21  C   UNL d   1      23.185 -16.396  -1.095  0.00  0.00     0.017 A 
ATOM     22  C   UNL d   1      22.157 -17.245  -0.654  0.00  0.00     0.010 A 
ATOM     23  C   UNL d   1      22.444 -18.546  -0.217  0.00  0.00    -0.035 A 
ATOM     24  C   UNL d   1      23.787 -18.946  -0.153  0.00  0.00     0.010 A 
ATOM     25  C   UNL d   1      24.818 -18.091  -0.557  0.00  0.00     0.017 A 
BRANCH  23  26
ATOM     26  C   UNL d   1      21.308 -19.484   0.128  0.00  0.00     0.206 C 
BRANCH  26  27
ATOM     27  O   UNL d   1      20.488 -19.698  -1.018  0.00  0.00    -0.378 OA
BRANCH  27  28
ATOM     28  C   UNL d   1      19.092 -19.700  -0.699  0.00  0.00     0.285 C 
BRANCH  28  29
ATOM     29  C   UNL d   1      18.811 -20.614   0.485  0.00  0.00     0.408 C 
ATOM     30  F   UNL d   1      17.601 -21.208   0.376  0.00  0.00    -0.169 F 
ATOM     31  F   UNL d   1      19.743 -21.587   0.596  0.00  0.00    -0.169 F 
ATOM     32  F   UNL d   1      18.815 -19.911   1.641  0.00  0.00    -0.169 F 
ENDBRANCH  28  29
ENDBRANCH  27  28
ENDBRANCH  26  27
ENDBRANCH  23  26
ENDBRANCH   2  20
TORSDOF 10
ENDMDL
MODEL 7
REMARK VINA RESULT:    -6.210      2.074      2.729
REMARK INTER + INTRA:         -10.852
REMARK INTER:                  -9.193
REMARK INTRA:                  -1.659
REMARK CONF_INDEPENDENT:        2.983
REMARK UNBOUND:                -1.659
REMARK  10 active torsions:
REMARK  status: ('A' for Active; 'I' for Inactive)
REMARK       I    between atoms: C_2  and  N_3 
REMARK       I    between atoms: C_2  and  N_12 
REMARK    1  A    between atoms: N_3  and  C_4 
REMARK    2  A    between atoms: C_4  and  C_5 
REMARK    3  A    between atoms: C_5  and  C_6 
REMARK    4  A    between atoms: C_6  and  N_7 
REMARK    5  A    between atoms: N_12  and  N_13 
REMARK       I    between atoms: N_13  and  C_14 
REMARK    6  A    between atoms: C_14  and  C_16 
REMARK    7  A    between atoms: C_19  and  C_20 
REMARK    8  A    between atoms: C_20  and  O_21 
REMARK    9  A    between atoms: O_21  and  C_22 
REMARK   10  A    between atoms: C_22  and  C_23 
ROOT
ATOM      1  N   UNL d   1      28.556 -17.252   0.144  0.00  0.00    -0.262 N 
ATOM      2  C   UNL d   1      27.801 -16.780  -0.923  0.00  0.00     0.270 C 
ATOM      3  O   UNL d   1      28.281 -16.183  -1.888  0.00  0.00    -0.266 OA
ATOM      4  H   UNL d   1      28.134 -17.824   0.856  0.00  0.00     0.190 HD
ENDROOT
BRANCH   1   5
ATOM      5  N   UNL d   1      29.951 -17.054   0.139  0.00  0.00    -0.249 N 
ATOM      6  C   UNL d   1      30.828 -17.391  -0.865  0.00  0.00     0.334 C 
ATOM      7  O   UNL d   1      32.035 -17.189  -0.754  0.00  0.00    -0.246 OA
ATOM      8  N   UNL d   1      30.292 -17.961  -1.994  0.00  0.00    -0.342 N 
ATOM      9  H   UNL d   1      29.300 -18.089  -2.038  0.00  0.00     0.164 HD
ATOM     10  H   UNL d   1      30.348 -16.637   0.984  0.00  0.00     0.192 HD
BRANCH   8  11
ATOM     11  C   UNL d   1      31.131 -18.342  -3.121  0.00  0.00     0.126 C 
BRANCH  11  12
ATOM     12  C   UNL d   1      30.579 -17.837  -4.453  0.00  0.00     0.040 C 
BRANCH  12  13
ATOM     13  C   UNL d   1      31.010 -16.402  -4.751  0.00  0.00     0.130 C 
BRANCH  13  14
ATOM     14  N   UNL d   1      30.006 -15.708  -5.577  0.00  0.00    -0.352 N 
ATOM     15  C   UNL d   1      28.771 -15.237  -5.137  0.00  0.00     0.108 A 
ATOM     16  C   UNL d   1      28.159 -14.660  -6.213  0.00  0.00     0.106 A 
ATOM     17  N   UNL d   1      29.033 -14.787  -7.266  0.00  0.00    -0.361 N 
ATOM     18  C   UNL d   1      30.150 -15.412  -6.880  0.00  0.00     0.182 A 
ATOM     19  H   UNL d   1      28.866 -14.449  -8.212  0.00  0.00     0.166 HD
ENDBRANCH  13  14
ENDBRANCH  12  13
ENDBRANCH  11  12
ENDBRANCH   8  11
ENDBRANCH   1   5
BRANCH   2  20
ATOM     20  C   UNL d   1      26.327 -17.019  -0.849  0.00  0.00     0.033 A 
ATOM     21  C   UNL d   1      25.815 -18.072  -0.078  0.00  0.00     0.017 A 
ATOM     22  C   UNL d   1      24.444 -18.371  -0.105  0.00  0.00     0.010 A 
ATOM     23  C   UNL d   1      23.555 -17.581  -0.847  0.00  0.00    -0.035 A 
ATOM     24  C   UNL d   1      24.081 -16.538  -1.625  0.00  0.00     0.010 A 
ATOM     25  C   UNL d   1      25.452 -16.259  -1.630  0.00  0.00     0.017 A 
BRANCH  23  26
ATOM     26  C   UNL d   1      22.068 -17.843  -0.754  0.00  0.00     0.206 C 
BRANCH  26  27
ATOM     27  O   UNL d   1      21.801 -19.225  -0.972  0.00  0.00    -0.378 OA
BRANCH  27  28
ATOM     28  C   UNL d   1      20.401 -19.523  -0.956  0.00  0.00     0.285 C 
BRANCH  28  29
ATOM     29  C   UNL d   1      19.959 -19.957   0.435  0.00  0.00     0.408 C 
ATOM     30  F   UNL d   1      20.667 -19.325   1.399  0.00  0.00    -0.169 F 
ATOM     31  F   UNL d   1      18.649 -19.700   0.645  0.00  0.00    -0.169 F 
ATOM     32  F   UNL d   1      20.147 -21.287   0.600  0.00  0.00    -0.169 F 
ENDBRANCH  28  29
ENDBRANCH  27  28
ENDBRANCH  26  27
ENDBRANCH  23  26
ENDBRANCH   2  20
TORSDOF 10
ENDMDL
MODEL 8
REMARK VINA RESULT:    -6.198      2.226      2.562
REMARK INTER + INTRA:         -10.887
REMARK INTER:                  -9.181
REMARK INTRA:                  -1.706
REMARK CONF_INDEPENDENT:        2.983
REMARK UNBOUND:                -1.706
REMARK  10 active torsions:
REMARK  status: ('A' for Active; 'I' for Inactive)
REMARK       I    between atoms: C_2  and  N_3 
REMARK       I    between atoms: C_2  and  N_12 
REMARK    1  A    between atoms: N_3  and  C_4 
REMARK    2  A    between atoms: C_4  and  C_5 
REMARK    3  A    between atoms: C_5  and  C_6 
REMARK    4  A    between atoms: C_6  and  N_7 
REMARK    5  A    between atoms: N_12  and  N_13 
REMARK       I    between atoms: N_13  and  C_14 
REMARK    6  A    between atoms: C_14  and  C_16 
REMARK    7  A    between atoms: C_19  and  C_20 
REMARK    8  A    between atoms: C_20  and  O_21 
REMARK    9  A    between atoms: O_21  and  C_22 
REMARK   10  A    between atoms: C_22  and  C_23 
ROOT
ATOM      1  N   UNL d   1      27.285 -16.151   0.974  0.00  0.00    -0.262 N 
ATOM      2  C   UNL d   1      26.507 -15.979  -0.166  0.00  0.00     0.270 C 
ATOM      3  O   UNL d   1      26.783 -15.188  -1.069  0.00  0.00    -0.266 OA
ATOM      4  H   UNL d   1      27.076 -16.882   1.632  0.00  0.00     0.190 HD
ENDROOT
BRANCH   1   5
ATOM      5  N   UNL d   1      28.463 -15.392   1.120  0.00  0.00    -0.249 N 
ATOM      6  C   UNL d   1      28.598 -14.035   0.945  0.00  0.00     0.334 C 
ATOM      7  O   UNL d   1      29.684 -13.477   1.080  0.00  0.00    -0.246 OA
ATOM      8  N   UNL d   1      27.464 -13.335   0.612  0.00  0.00    -0.342 N 
ATOM      9  H   UNL d   1      26.602 -13.838   0.529  0.00  0.00     0.164 HD
ATOM     10  H   UNL d   1      29.308 -15.916   1.361  0.00  0.00     0.192 HD
BRANCH   8  11
ATOM     11  C   UNL d   1      27.495 -11.893   0.417  0.00  0.00     0.126 C 
BRANCH  11  12
ATOM     12  C   UNL d   1      27.275 -11.501  -1.044  0.00  0.00     0.040 C 
BRANCH  12  13
ATOM     13  C   UNL d   1      27.885 -12.512  -2.012  0.00  0.00     0.130 C 
BRANCH  13  14
ATOM     14  N   UNL d   1      26.950 -12.827  -3.108  0.00  0.00    -0.352 N 
ATOM     15  C   UNL d   1      26.748 -14.084  -3.672  0.00  0.00     0.108 A 
ATOM     16  C   UNL d   1      25.801 -13.935  -4.646  0.00  0.00     0.106 A 
ATOM     17  N   UNL d   1      25.453 -12.606  -4.643  0.00  0.00    -0.361 N 
ATOM     18  C   UNL d   1      26.140 -11.940  -3.709  0.00  0.00     0.182 A 
ATOM     19  H   UNL d   1      24.762 -12.178  -5.257  0.00  0.00     0.166 HD
ENDBRANCH  13  14
ENDBRANCH  12  13
ENDBRANCH  11  12
ENDBRANCH   8  11
ENDBRANCH   1   5
BRANCH   2  20
ATOM     20  C   UNL d   1      25.269 -16.812  -0.253  0.00  0.00     0.033 A 
ATOM     21  C   UNL d   1      25.312 -18.184   0.034  0.00  0.00     0.017 A 
ATOM     22  C   UNL d   1      24.178 -18.987  -0.164  0.00  0.00     0.010 A 
ATOM     23  C   UNL d   1      22.967 -18.422  -0.587  0.00  0.00    -0.035 A 
ATOM     24  C   UNL d   1      22.940 -17.050  -0.885  0.00  0.00     0.010 A 
ATOM     25  C   UNL d   1      24.078 -16.252  -0.723  0.00  0.00     0.017 A 
BRANCH  23  26
ATOM     26  C   UNL d   1      21.728 -19.286  -0.667  0.00  0.00     0.206 C 
BRANCH  26  27
ATOM     27  O   UNL d   1      20.572 -18.468  -0.828  0.00  0.00    -0.378 OA
BRANCH  27  28
ATOM     28  C   UNL d   1      19.362 -19.231  -0.865  0.00  0.00     0.285 C 
BRANCH  28  29
ATOM     29  C   UNL d   1      19.198 -20.043   0.412  0.00  0.00     0.408 C 
ATOM     30  F   UNL d   1      17.934 -20.505   0.546  0.00  0.00    -0.169 F 
ATOM     31  F   UNL d   1      20.034 -21.104   0.439  0.00  0.00    -0.169 F 
ATOM     32  F   UNL d   1      19.469 -19.282   1.497  0.00  0.00    -0.169 F 
ENDBRANCH  28  29
ENDBRANCH  27  28
ENDBRANCH  26  27
ENDBRANCH  23  26
ENDBRANCH   2  20
TORSDOF 10
ENDMDL
MODEL 9
REMARK VINA RESULT:    -5.930      4.180      5.565
REMARK INTER + INTRA:         -10.903
REMARK INTER:                  -8.913
REMARK INTRA:                  -1.990
REMARK CONF_INDEPENDENT:        2.983
REMARK UNBOUND:                -1.990
REMARK  10 active torsions:
REMARK  status: ('A' for Active; 'I' for Inactive)
REMARK       I    between atoms: C_2  and  N_3 
REMARK       I    between atoms: C_2  and  N_12 
REMARK    1  A    between atoms: N_3  and  C_4 
REMARK    2  A    between atoms: C_4  and  C_5 
REMARK    3  A    between atoms: C_5  and  C_6 
REMARK    4  A    between atoms: C_6  and  N_7 
REMARK    5  A    between atoms: N_12  and  N_13 
REMARK       I    between atoms: N_13  and  C_14 
REMARK    6  A    between atoms: C_14  and  C_16 
REMARK    7  A    between atoms: C_19  and  C_20 
REMARK    8  A    between atoms: C_20  and  O_21 
REMARK    9  A    between atoms: O_21  and  C_22 
REMARK   10  A    between atoms: C_22  and  C_23 
ROOT
ATOM      1  N   UNL d   1      28.692 -15.443   0.774  0.00  0.00    -0.262 N 
ATOM      2  C   UNL d   1      27.547 -15.042   0.095  0.00  0.00     0.270 C 
ATOM      3  O   UNL d   1      27.366 -13.898  -0.323  0.00  0.00    -0.266 OA
ATOM      4  H   UNL d   1      28.840 -16.412   1.003  0.00  0.00     0.190 HD
ENDROOT
BRANCH   1   5
ATOM      5  N   UNL d   1      29.720 -14.505   0.999  0.00  0.00    -0.249 N 
ATOM      6  C   UNL d   1      30.204 -14.089   2.216  0.00  0.00     0.334 C 
ATOM      7  O   UNL d   1      31.094 -13.245   2.296  0.00  0.00    -0.246 OA
ATOM      8  N   UNL d   1      29.648 -14.659   3.335  0.00  0.00    -0.342 N 
ATOM      9  H   UNL d   1      28.935 -15.352   3.212  0.00  0.00     0.164 HD
ATOM     10  H   UNL d   1      30.127 -14.077   0.164  0.00  0.00     0.192 HD
BRANCH   8  11
ATOM     11  C   UNL d   1      30.098 -14.297   4.672  0.00  0.00     0.126 C 
BRANCH  11  12
ATOM     12  C   UNL d   1      29.007 -14.494   5.724  0.00  0.00     0.040 C 
BRANCH  12  13
ATOM     13  C   UNL d   1      28.018 -13.331   5.757  0.00  0.00     0.130 C 
BRANCH  13  14
ATOM     14  N   UNL d   1      27.671 -12.892   4.393  0.00  0.00    -0.352 N 
ATOM     15  C   UNL d   1      27.959 -11.648   3.838  0.00  0.00     0.108 A 
ATOM     16  C   UNL d   1      27.470 -11.658   2.562  0.00  0.00     0.106 A 
ATOM     17  N   UNL d   1      26.909 -12.900   2.376  0.00  0.00    -0.361 N 
ATOM     18  C   UNL d   1      27.038 -13.646   3.477  0.00  0.00     0.182 A 
ATOM     19  H   UNL d   1      26.461 -13.219   1.519  0.00  0.00     0.166 HD
ENDBRANCH  13  14
ENDBRANCH  12  13
ENDBRANCH  11  12
ENDBRANCH   8  11
ENDBRANCH   1   5
BRANCH   2  20
ATOM     20  C   UNL d   1      26.496 -16.087  -0.103  0.00  0.00     0.033 A 
ATOM     21  C   UNL d   1      25.242 -15.744  -0.628  0.00  0.00     0.017 A 
ATOM     22  C   UNL d   1      24.216 -16.700  -0.700  0.00  0.00     0.010 A 
ATOM     23  C   UNL d   1      24.448 -18.027  -0.313  0.00  0.00    -0.035 A 
ATOM     24  C   UNL d   1      25.703 -18.355   0.225  0.00  0.00     0.010 A 
ATOM     25  C   UNL d   1      26.717 -17.396   0.332  0.00  0.00     0.017 A 
BRANCH  23  26
ATOM     26  C   UNL d   1      23.368 -19.065  -0.524  0.00  0.00     0.206 C 
BRANCH  26  27
ATOM     27  O   UNL d   1      22.085 -18.484  -0.314  0.00  0.00    -0.378 OA
BRANCH  27  28
ATOM     28  C   UNL d   1      21.102 -19.451   0.074  0.00  0.00     0.285 C 
BRANCH  28  29
ATOM     29  C   UNL d   1      19.916 -19.425  -0.880  0.00  0.00     0.408 C 
ATOM     30  F   UNL d   1      18.991 -20.352  -0.544  0.00  0.00    -0.169 F 
ATOM     31  F   UNL d   1      19.310 -18.217  -0.889  0.00  0.00    -0.169 F 
ATOM     32  F   UNL d   1      20.316 -19.691  -2.144  0.00  0.00    -0.169 F 
ENDBRANCH  28  29
ENDBRANCH  27  28
ENDBRANCH  26  27
ENDBRANCH  23  26
ENDBRANCH   2  20
TORSDOF 10
ENDMDL
