MODEL 1
REMARK VINA RESULT:    -9.710      0.000      0.000
REMARK INTER + INTRA:         -12.644
REMARK INTER:                 -11.500
REMARK INTRA:                  -1.143
REMARK CONF_INDEPENDENT:        1.790
REMARK UNBOUND:                -1.143
REMARK  6 active torsions:
REMARK  status: ('A' for Active; 'I' for Inactive)
REMARK    1  A    between atoms: C_2  and  C_3 
REMARK       I    between atoms: C_2  and  N_21 
REMARK    2  A    between atoms: C_3  and  N_4 
REMARK    3  A    between atoms: C_8  and  C_9 
REMARK    4  A    between atoms: C_9  and  C_10 
REMARK    5  A    between atoms: N_21  and  C_22 
REMARK    6  A    between atoms: C_25  and  N_26 
ROOT
ATOM      1  N   UNL d   1      25.595 -16.719  -0.669  0.00  0.00    -0.260 N 
ATOM      2  C   UNL d   1      26.050 -17.900  -0.201  0.00  0.00     0.326 C 
ATOM      3  O   UNL d   1      27.169 -18.159   0.224  0.00  0.00    -0.247 OA
ATOM      4  N   UNL d   1      25.045 -18.813  -0.338  0.00  0.00    -0.329 N 
ATOM      5  C   UNL d   1      23.799 -18.233  -0.783  0.00  0.00     0.183 C 
ATOM      6  C   UNL d   1      24.300 -16.827  -1.097  0.00  0.00     0.251 C 
ATOM      7  O   UNL d   1      23.645 -15.954  -1.651  0.00  0.00    -0.271 OA
ATOM      8  H   UNL d   1      25.197 -19.791  -0.140  0.00  0.00     0.165 HD
ENDROOT
BRANCH   1   9
ATOM      9  C   UNL d   1      26.420 -15.559  -0.817  0.00  0.00     0.240 C 
BRANCH   9  10
ATOM     10  C   UNL d   1      27.377 -15.396   0.364  0.00  0.00     0.240 C 
ATOM     11  O   UNL d   1      27.036 -14.885   1.433  0.00  0.00    -0.271 OA
ATOM     12  N   UNL d   1      28.644 -15.931   0.243  0.00  0.00    -0.326 N 
ATOM     13  H   UNL d   1      29.156 -15.975   1.118  0.00  0.00     0.169 HD
BRANCH  12  14
ATOM     14  C   UNL d   1      29.251 -16.453  -0.915  0.00  0.00     0.034 A 
ATOM     15  C   UNL d   1      29.024 -15.859  -2.153  0.00  0.00     0.032 A 
ATOM     16  C   UNL d   1      29.615 -16.407  -3.307  0.00  0.00     0.031 A 
ATOM     17  C   UNL d   1      30.466 -17.522  -3.256  0.00  0.00     0.030 A 
ATOM     18  C   UNL d   1      30.640 -18.126  -2.015  0.00  0.00     0.031 A 
ATOM     19  C   UNL d   1      30.022 -17.612  -0.871  0.00  0.00     0.032 A 
BRANCH  17  20
ATOM     20  N   UNL d   1      31.086 -17.986  -4.391  0.00  0.00    -0.377 N 
ATOM     21  C   UNL d   1      31.577 -17.108  -5.457  0.00  0.00     0.149 C 
ATOM     22  C   UNL d   1      30.882 -17.420  -6.789  0.00  0.00     0.187 C 
ATOM     23  O   UNL d   1      30.981 -18.816  -7.125  0.00  0.00    -0.388 OA
ATOM     24  C   UNL d   1      30.368 -19.613  -6.097  0.00  0.00     0.187 C 
ATOM     25  C   UNL d   1      31.066 -19.415  -4.736  0.00  0.00     0.149 C 
ENDBRANCH  17  20
ENDBRANCH  12  14
ENDBRANCH   9  10
ENDBRANCH   1   9
BRANCH   5  26
ATOM     26  C   UNL d   1      22.687 -18.196   0.273  0.00  0.00     0.076 C 
BRANCH  26  27
ATOM     27  C   UNL d   1      21.424 -18.854  -0.205  0.00  0.00    -0.028 A 
ATOM     28  C   UNL d   1      20.979 -18.947  -1.510  0.00  0.00     0.096 A 
ATOM     29  N   UNL d   1      19.820 -19.682  -1.517  0.00  0.00    -0.365 N 
ATOM     30  C   UNL d   1      19.473 -20.042  -0.234  0.00  0.00     0.042 A 
ATOM     31  H   UNL d   1      19.281 -19.908  -2.343  0.00  0.00     0.165 HD
ATOM     32  C   UNL d   1      18.376 -20.765   0.257  0.00  0.00     0.030 A 
ATOM     33  C   UNL d   1      20.438 -19.498   0.611  0.00  0.00    -0.002 A 
ATOM     34  C   UNL d   1      18.288 -20.968   1.641  0.00  0.00     0.002 A 
ATOM     35  C   UNL d   1      19.242 -20.452   2.505  0.00  0.00     0.001 A 
ATOM     36  C   UNL d   1      20.277 -19.672   2.001  0.00  0.00     0.014 A 
ENDBRANCH  26  27
ENDBRANCH   5  26
TORSDOF 6
ENDMDL
MODEL 2
REMARK VINA RESULT:    -9.427      3.268      6.538
REMARK INTER + INTRA:         -12.516
REMARK INTER:                 -11.217
REMARK INTRA:                  -1.299
REMARK CONF_INDEPENDENT:        1.790
REMARK UNBOUND:                -1.299
REMARK  6 active torsions:
REMARK  status: ('A' for Active; 'I' for Inactive)
REMARK    1  A    between atoms: C_2  and  C_3 
REMARK       I    between atoms: C_2  and  N_21 
REMARK    2  A    between atoms: C_3  and  N_4 
REMARK    3  A    between atoms: C_8  and  C_9 
REMARK    4  A    between atoms: C_9  and  C_10 
REMARK    5  A    between atoms: N_21  and  C_22 
REMARK    6  A    between atoms: C_25  and  N_26 
ROOT
ATOM      1  N   UNL d   1      25.367 -16.356  -0.541  0.00  0.00    -0.260 N 
ATOM      2  C   UNL d   1      26.060 -17.407  -0.055  0.00  0.00     0.326 C 
ATOM      3  O   UNL d   1      27.217 -17.422   0.349  0.00  0.00    -0.247 OA
ATOM      4  N   UNL d   1      25.260 -18.508  -0.147  0.00  0.00    -0.329 N 
ATOM      5  C   UNL d   1      23.914 -18.205  -0.577  0.00  0.00     0.183 C 
ATOM      6  C   UNL d   1      24.114 -16.736  -0.936  0.00  0.00     0.251 C 
ATOM      7  O   UNL d   1      23.285 -16.030  -1.495  0.00  0.00    -0.271 OA
ATOM      8  H   UNL d   1      25.611 -19.429   0.070  0.00  0.00     0.165 HD
ENDROOT
BRANCH   1   9
ATOM      9  C   UNL d   1      25.936 -15.058  -0.735  0.00  0.00     0.240 C 
BRANCH   9  10
ATOM     10  C   UNL d   1      27.393 -15.145  -1.191  0.00  0.00     0.240 C 
ATOM     11  O   UNL d   1      27.725 -15.641  -2.271  0.00  0.00    -0.271 OA
ATOM     12  N   UNL d   1      28.353 -14.560  -0.390  0.00  0.00    -0.326 N 
ATOM     13  H   UNL d   1      29.260 -14.469  -0.838  0.00  0.00     0.169 HD
BRANCH  12  14
ATOM     14  C   UNL d   1      28.192 -14.045   0.909  0.00  0.00     0.034 A 
ATOM     15  C   UNL d   1      28.518 -14.823   2.016  0.00  0.00     0.032 A 
ATOM     16  C   UNL d   1      28.327 -14.306   3.311  0.00  0.00     0.031 A 
ATOM     17  C   UNL d   1      27.850 -13.005   3.537  0.00  0.00     0.030 A 
ATOM     18  C   UNL d   1      27.487 -12.264   2.417  0.00  0.00     0.031 A 
ATOM     19  C   UNL d   1      27.635 -12.787   1.129  0.00  0.00     0.032 A 
BRANCH  17  20
ATOM     20  N   UNL d   1      27.747 -12.506   4.812  0.00  0.00    -0.377 N 
ATOM     21  C   UNL d   1      27.774 -11.073   5.121  0.00  0.00     0.149 C 
ATOM     22  C   UNL d   1      28.953 -10.734   6.045  0.00  0.00     0.187 C 
ATOM     23  O   UNL d   1      28.958 -11.560   7.224  0.00  0.00    -0.388 OA
ATOM     24  C   UNL d   1      29.059 -12.946   6.851  0.00  0.00     0.187 C 
ATOM     25  C   UNL d   1      27.863 -13.386   5.984  0.00  0.00     0.149 C 
ENDBRANCH  17  20
ENDBRANCH  12  14
ENDBRANCH   9  10
ENDBRANCH   1   9
BRANCH   5  26
ATOM     26  C   UNL d   1      22.837 -18.365   0.503  0.00  0.00     0.076 C 
BRANCH  26  27
ATOM     27  C   UNL d   1      21.556 -18.924  -0.047  0.00  0.00    -0.028 A 
ATOM     28  C   UNL d   1      21.161 -18.950  -1.370  0.00  0.00     0.096 A 
ATOM     29  N   UNL d   1      19.959 -19.606  -1.449  0.00  0.00    -0.365 N 
ATOM     30  C   UNL d   1      19.536 -19.979  -0.193  0.00  0.00     0.042 A 
ATOM     31  H   UNL d   1      19.443 -19.772  -2.303  0.00  0.00     0.165 HD
ATOM     32  C   UNL d   1      18.374 -20.643   0.229  0.00  0.00     0.030 A 
ATOM     33  C   UNL d   1      20.497 -19.526   0.708  0.00  0.00    -0.002 A 
ATOM     34  C   UNL d   1      18.214 -20.880   1.602  0.00  0.00     0.002 A 
ATOM     35  C   UNL d   1      19.162 -20.454   2.520  0.00  0.00     0.001 A 
ATOM     36  C   UNL d   1      20.265 -19.729   2.084  0.00  0.00     0.014 A 
ENDBRANCH  26  27
ENDBRANCH   5  26
TORSDOF 6
ENDMDL
MODEL 3
REMARK VINA RESULT:    -9.248      3.417      6.269
REMARK INTER + INTRA:         -11.796
REMARK INTER:                 -11.038
REMARK INTRA:                  -0.758
REMARK CONF_INDEPENDENT:        1.790
REMARK UNBOUND:                -0.758
REMARK  6 active torsions:
REMARK  status: ('A' for Active; 'I' for Inactive)
REMARK    1  A    between atoms: C_2  and  C_3 
REMARK       I    between atoms: C_2  and  N_21 
REMARK    2  A    between atoms: C_3  and  N_4 
REMARK    3  A    between atoms: C_8  and  C_9 
REMARK    4  A    between atoms: C_9  and  C_10 
REMARK    5  A    between atoms: N_21  and  C_22 
REMARK    6  A    between atoms: C_25  and  N_26 
ROOT
ATOM      1  N   UNL d   1      25.083 -16.673  -0.799  0.00  0.00    -0.260 N 
ATOM      2  C   UNL d   1      24.007 -16.199  -1.460  0.00  0.00     0.326 C 
ATOM      3  O   UNL d   1      23.986 -15.372  -2.364  0.00  0.00    -0.247 OA
ATOM      4  N   UNL d   1      22.897 -16.760  -0.901  0.00  0.00    -0.329 N 
ATOM      5  C   UNL d   1      23.200 -17.767   0.090  0.00  0.00     0.183 C 
ATOM      6  C   UNL d   1      24.708 -17.555   0.178  0.00  0.00     0.251 C 
ATOM      7  O   UNL d   1      25.446 -18.084   1.000  0.00  0.00    -0.271 OA
ATOM      8  H   UNL d   1      21.969 -16.472  -1.176  0.00  0.00     0.165 HD
ENDROOT
BRANCH   1   9
ATOM      9  C   UNL d   1      26.415 -16.199  -1.015  0.00  0.00     0.240 C 
BRANCH   9  10
ATOM     10  C   UNL d   1      27.427 -16.952  -0.151  0.00  0.00     0.240 C 
ATOM     11  O   UNL d   1      27.616 -18.167  -0.252  0.00  0.00    -0.271 OA
ATOM     12  N   UNL d   1      28.216 -16.213   0.708  0.00  0.00    -0.326 N 
ATOM     13  H   UNL d   1      28.997 -16.733   1.096  0.00  0.00     0.169 HD
BRANCH  12  14
ATOM     14  C   UNL d   1      28.085 -14.852   1.040  0.00  0.00     0.034 A 
ATOM     15  C   UNL d   1      28.095 -14.452   2.372  0.00  0.00     0.032 A 
ATOM     16  C   UNL d   1      27.936 -13.091   2.693  0.00  0.00     0.031 A 
ATOM     17  C   UNL d   1      27.803 -12.100   1.708  0.00  0.00     0.030 A 
ATOM     18  C   UNL d   1      27.748 -12.529   0.386  0.00  0.00     0.031 A 
ATOM     19  C   UNL d   1      27.863 -13.884   0.063  0.00  0.00     0.032 A 
BRANCH  17  20
ATOM     20  N   UNL d   1      27.726 -10.772   2.053  0.00  0.00    -0.377 N 
ATOM     21  C   UNL d   1      28.051 -10.266   3.389  0.00  0.00     0.149 C 
ATOM     22  C   UNL d   1      26.835  -9.580   4.027  0.00  0.00     0.187 C 
ATOM     23  O   UNL d   1      26.285  -8.567   3.165  0.00  0.00    -0.388 OA
ATOM     24  C   UNL d   1      25.871  -9.155   1.919  0.00  0.00     0.187 C 
ATOM     25  C   UNL d   1      27.059  -9.799   1.176  0.00  0.00     0.149 C 
ENDBRANCH  17  20
ENDBRANCH  12  14
ENDBRANCH   9  10
ENDBRANCH   1   9
BRANCH   5  26
ATOM     26  C   UNL d   1      22.872 -19.207  -0.328  0.00  0.00     0.076 C 
BRANCH  26  27
ATOM     27  C   UNL d   1      21.395 -19.435  -0.478  0.00  0.00    -0.028 A 
ATOM     28  C   UNL d   1      20.651 -19.325  -1.637  0.00  0.00     0.096 A 
ATOM     29  N   UNL d   1      19.357 -19.682  -1.353  0.00  0.00    -0.365 N 
ATOM     30  C   UNL d   1      19.227 -19.987  -0.017  0.00  0.00     0.042 A 
ATOM     31  H   UNL d   1      18.598 -19.695  -2.022  0.00  0.00     0.165 HD
ATOM     32  C   UNL d   1      18.110 -20.377   0.736  0.00  0.00     0.030 A 
ATOM     33  C   UNL d   1      20.480 -19.799   0.563  0.00  0.00    -0.002 A 
ATOM     34  C   UNL d   1      18.290 -20.616   2.106  0.00  0.00     0.002 A 
ATOM     35  C   UNL d   1      19.529 -20.450   2.707  0.00  0.00     0.001 A 
ATOM     36  C   UNL d   1      20.602 -19.987   1.955  0.00  0.00     0.014 A 
ENDBRANCH  26  27
ENDBRANCH   5  26
TORSDOF 6
ENDMDL
MODEL 4
REMARK VINA RESULT:    -9.064      3.713      5.202
REMARK INTER + INTRA:         -12.123
REMARK INTER:                 -10.853
REMARK INTRA:                  -1.270
REMARK CONF_INDEPENDENT:        1.790
REMARK UNBOUND:                -1.270
REMARK  6 active torsions:
REMARK  status: ('A' for Active; 'I' for Inactive)
REMARK    1  A    between atoms: C_2  and  C_3 
REMARK       I    between atoms: C_2  and  N_21 
REMARK    2  A    between atoms: C_3  and  N_4 
REMARK    3  A    between atoms: C_8  and  C_9 
REMARK    4  A    between atoms: C_9  and  C_10 
REMARK    5  A    between atoms: N_21  and  C_22 
REMARK    6  A    between atoms: C_25  and  N_26 
ROOT
ATOM      1  N   UNL d   1      25.643 -16.928  -0.561  0.00  0.00    -0.260 N 
ATOM      2  C   UNL d   1      25.933 -18.164  -0.106  0.00  0.00     0.326 C 
ATOM      3  O   UNL d   1      26.994 -18.564   0.359  0.00  0.00    -0.247 OA
ATOM      4  N   UNL d   1      24.835 -18.948  -0.309  0.00  0.00    -0.329 N 
ATOM      5  C   UNL d   1      23.687 -18.214  -0.791  0.00  0.00     0.183 C 
ATOM      6  C   UNL d   1      24.365 -16.872  -1.046  0.00  0.00     0.251 C 
ATOM      7  O   UNL d   1      23.843 -15.915  -1.604  0.00  0.00    -0.271 OA
ATOM      8  H   UNL d   1      24.861 -19.942  -0.132  0.00  0.00     0.165 HD
ENDROOT
BRANCH   1   9
ATOM      9  C   UNL d   1      26.604 -15.871  -0.643  0.00  0.00     0.240 C 
BRANCH   9  10
ATOM     10  C   UNL d   1      27.811 -16.275  -1.491  0.00  0.00     0.240 C 
ATOM     11  O   UNL d   1      28.501 -17.266  -1.240  0.00  0.00    -0.271 OA
ATOM     12  N   UNL d   1      28.070 -15.541  -2.631  0.00  0.00    -0.326 N 
ATOM     13  H   UNL d   1      28.745 -15.974  -3.253  0.00  0.00     0.169 HD
BRANCH  12  14
ATOM     14  C   UNL d   1      27.473 -14.330  -3.029  0.00  0.00     0.034 A 
ATOM     15  C   UNL d   1      27.792 -13.144  -2.376  0.00  0.00     0.032 A 
ATOM     16  C   UNL d   1      27.168 -11.944  -2.765  0.00  0.00     0.031 A 
ATOM     17  C   UNL d   1      26.251 -11.886  -3.826  0.00  0.00     0.030 A 
ATOM     18  C   UNL d   1      25.913 -13.092  -4.433  0.00  0.00     0.031 A 
ATOM     19  C   UNL d   1      26.497 -14.293  -4.023  0.00  0.00     0.032 A 
BRANCH  17  20
ATOM     20  N   UNL d   1      25.717 -10.687  -4.229  0.00  0.00    -0.377 N 
ATOM     21  C   UNL d   1      25.535 -10.317  -5.636  0.00  0.00     0.149 C 
ATOM     22  C   UNL d   1      26.337  -9.054  -5.979  0.00  0.00     0.187 C 
ATOM     23  O   UNL d   1      26.039  -7.974  -5.076  0.00  0.00    -0.388 OA
ATOM     24  C   UNL d   1      26.359  -8.361  -3.727  0.00  0.00     0.187 C 
ATOM     25  C   UNL d   1      25.531  -9.581  -3.278  0.00  0.00     0.149 C 
ENDBRANCH  17  20
ENDBRANCH  12  14
ENDBRANCH   9  10
ENDBRANCH   1   9
BRANCH   5  26
ATOM     26  C   UNL d   1      22.541 -18.068   0.218  0.00  0.00     0.076 C 
BRANCH  26  27
ATOM     27  C   UNL d   1      21.298 -18.787  -0.223  0.00  0.00    -0.028 A 
ATOM     28  C   UNL d   1      20.826 -18.914  -1.515  0.00  0.00     0.096 A 
ATOM     29  N   UNL d   1      19.702 -19.700  -1.488  0.00  0.00    -0.365 N 
ATOM     30  C   UNL d   1      19.402 -20.060  -0.193  0.00  0.00     0.042 A 
ATOM     31  H   UNL d   1      19.154 -19.959  -2.298  0.00  0.00     0.165 HD
ATOM     32  C   UNL d   1      18.350 -20.826   0.331  0.00  0.00     0.030 A 
ATOM     33  C   UNL d   1      20.362 -19.465   0.623  0.00  0.00    -0.002 A 
ATOM     34  C   UNL d   1      18.304 -21.018   1.720  0.00  0.00     0.002 A 
ATOM     35  C   UNL d   1      19.255 -20.450   2.555  0.00  0.00     0.001 A 
ATOM     36  C   UNL d   1      20.241 -19.630   2.019  0.00  0.00     0.014 A 
ENDBRANCH  26  27
ENDBRANCH   5  26
TORSDOF 6
ENDMDL
MODEL 5
REMARK VINA RESULT:    -8.643      4.855     10.007
REMARK INTER + INTRA:         -12.014
REMARK INTER:                 -10.433
REMARK INTRA:                  -1.581
REMARK CONF_INDEPENDENT:        1.790
REMARK UNBOUND:                -1.581
REMARK  6 active torsions:
REMARK  status: ('A' for Active; 'I' for Inactive)
REMARK    1  A    between atoms: C_2  and  C_3 
REMARK       I    between atoms: C_2  and  N_21 
REMARK    2  A    between atoms: C_3  and  N_4 
REMARK    3  A    between atoms: C_8  and  C_9 
REMARK    4  A    between atoms: C_9  and  C_10 
REMARK    5  A    between atoms: N_21  and  C_22 
REMARK    6  A    between atoms: C_25  and  N_26 
ROOT
ATOM      1  N   UNL d   1      25.934 -14.845  -3.548  0.00  0.00    -0.260 N 
ATOM      2  C   UNL d   1      24.865 -14.077  -3.842  0.00  0.00     0.326 C 
ATOM      3  O   UNL d   1      23.720 -14.191  -3.423  0.00  0.00    -0.247 OA
ATOM      4  N   UNL d   1      25.261 -13.154  -4.766  0.00  0.00    -0.329 N 
ATOM      5  C   UNL d   1      26.682 -13.178  -5.028  0.00  0.00     0.183 C 
ATOM      6  C   UNL d   1      27.039 -14.437  -4.245  0.00  0.00     0.251 C 
ATOM      7  O   UNL d   1      28.132 -14.987  -4.257  0.00  0.00    -0.271 OA
ATOM      8  H   UNL d   1      24.596 -12.535  -5.205  0.00  0.00     0.165 HD
ENDROOT
BRANCH   1   9
ATOM      9  C   UNL d   1      25.865 -16.010  -2.720  0.00  0.00     0.240 C 
BRANCH   9  10
ATOM     10  C   UNL d   1      26.411 -15.737  -1.318  0.00  0.00     0.240 C 
ATOM     11  O   UNL d   1      27.436 -15.079  -1.119  0.00  0.00    -0.271 OA
ATOM     12  N   UNL d   1      25.667 -16.175  -0.241  0.00  0.00    -0.326 N 
ATOM     13  H   UNL d   1      25.968 -15.790   0.648  0.00  0.00     0.169 HD
BRANCH  12  14
ATOM     14  C   UNL d   1      24.542 -17.020  -0.259  0.00  0.00     0.034 A 
ATOM     15  C   UNL d   1      24.696 -18.394  -0.097  0.00  0.00     0.032 A 
ATOM     16  C   UNL d   1      23.566 -19.232  -0.144  0.00  0.00     0.031 A 
ATOM     17  C   UNL d   1      22.267 -18.729  -0.314  0.00  0.00     0.030 A 
ATOM     18  C   UNL d   1      22.143 -17.359  -0.521  0.00  0.00     0.031 A 
ATOM     19  C   UNL d   1      23.266 -16.526  -0.517  0.00  0.00     0.032 A 
BRANCH  17  20
ATOM     20  N   UNL d   1      21.179 -19.567  -0.280  0.00  0.00    -0.377 N 
ATOM     21  C   UNL d   1      20.227 -19.697  -1.387  0.00  0.00     0.149 C 
ATOM     22  C   UNL d   1      18.811 -19.304  -0.942  0.00  0.00     0.187 C 
ATOM     23  O   UNL d   1      18.404 -20.028   0.233  0.00  0.00    -0.388 OA
ATOM     24  C   UNL d   1      19.310 -19.757   1.316  0.00  0.00     0.187 C 
ATOM     25  C   UNL d   1      20.747 -20.200   0.975  0.00  0.00     0.149 C 
ENDBRANCH  17  20
ENDBRANCH  12  14
ENDBRANCH   9  10
ENDBRANCH   1   9
BRANCH   5  26
ATOM     26  C   UNL d   1      27.458 -11.965  -4.499  0.00  0.00     0.076 C 
BRANCH  26  27
ATOM     27  C   UNL d   1      26.553 -10.823  -4.132  0.00  0.00    -0.028 A 
ATOM     28  C   UNL d   1      26.055 -10.529  -2.878  0.00  0.00     0.096 A 
ATOM     29  N   UNL d   1      25.326  -9.370  -2.965  0.00  0.00    -0.365 N 
ATOM     30  C   UNL d   1      25.303  -8.917  -4.265  0.00  0.00     0.042 A 
ATOM     31  H   UNL d   1      24.850  -8.923  -2.192  0.00  0.00     0.165 HD
ATOM     32  C   UNL d   1      24.676  -7.802  -4.842  0.00  0.00     0.030 A 
ATOM     33  C   UNL d   1      26.028  -9.833  -5.024  0.00  0.00    -0.002 A 
ATOM     34  C   UNL d   1      24.830  -7.602  -6.222  0.00  0.00     0.002 A 
ATOM     35  C   UNL d   1      25.559  -8.489  -7.000  0.00  0.00     0.001 A 
ATOM     36  C   UNL d   1      26.103  -9.628  -6.417  0.00  0.00     0.014 A 
ENDBRANCH  26  27
ENDBRANCH   5  26
TORSDOF 6
ENDMDL
MODEL 6
REMARK VINA RESULT:    -8.556      2.572      3.483
REMARK INTER + INTRA:         -11.819
REMARK INTER:                 -10.346
REMARK INTRA:                  -1.474
REMARK CONF_INDEPENDENT:        1.790
REMARK UNBOUND:                -1.474
REMARK  6 active torsions:
REMARK  status: ('A' for Active; 'I' for Inactive)
REMARK    1  A    between atoms: C_2  and  C_3 
REMARK       I    between atoms: C_2  and  N_21 
REMARK    2  A    between atoms: C_3  and  N_4 
REMARK    3  A    between atoms: C_8  and  C_9 
REMARK    4  A    between atoms: C_9  and  C_10 
REMARK    5  A    between atoms: N_21  and  C_22 
REMARK    6  A    between atoms: C_25  and  N_26 
ROOT
ATOM      1  N   UNL d   1      25.359 -16.442  -0.659  0.00  0.00    -0.260 N 
ATOM      2  C   UNL d   1      26.065 -17.444  -0.095  0.00  0.00     0.326 C 
ATOM      3  O   UNL d   1      27.219 -17.412   0.315  0.00  0.00    -0.247 OA
ATOM      4  N   UNL d   1      25.282 -18.562  -0.112  0.00  0.00    -0.329 N 
ATOM      5  C   UNL d   1      23.935 -18.312  -0.570  0.00  0.00     0.183 C 
ATOM      6  C   UNL d   1      24.114 -16.869  -1.032  0.00  0.00     0.251 C 
ATOM      7  O   UNL d   1      23.278 -16.218  -1.645  0.00  0.00    -0.271 OA
ATOM      8  H   UNL d   1      25.646 -19.459   0.172  0.00  0.00     0.165 HD
ENDROOT
BRANCH   1   9
ATOM      9  C   UNL d   1      25.909 -15.152  -0.943  0.00  0.00     0.240 C 
BRANCH   9  10
ATOM     10  C   UNL d   1      26.111 -14.946  -2.445  0.00  0.00     0.240 C 
ATOM     11  O   UNL d   1      25.183 -14.677  -3.212  0.00  0.00    -0.271 OA
ATOM     12  N   UNL d   1      27.403 -14.978  -2.929  0.00  0.00    -0.326 N 
ATOM     13  H   UNL d   1      27.493 -14.635  -3.880  0.00  0.00     0.169 HD
BRANCH  12  14
ATOM     14  C   UNL d   1      28.569 -15.368  -2.245  0.00  0.00     0.034 A 
ATOM     15  C   UNL d   1      28.798 -16.710  -1.959  0.00  0.00     0.032 A 
ATOM     16  C   UNL d   1      29.955 -17.084  -1.250  0.00  0.00     0.031 A 
ATOM     17  C   UNL d   1      30.922 -16.150  -0.846  0.00  0.00     0.030 A 
ATOM     18  C   UNL d   1      30.648 -14.810  -1.102  0.00  0.00     0.031 A 
ATOM     19  C   UNL d   1      29.480 -14.428  -1.768  0.00  0.00     0.032 A 
BRANCH  17  20
ATOM     20  N   UNL d   1      32.076 -16.557  -0.222  0.00  0.00    -0.377 N 
ATOM     21  C   UNL d   1      32.893 -17.679  -0.692  0.00  0.00     0.149 C 
ATOM     22  C   UNL d   1      32.990 -18.775   0.379  0.00  0.00     0.187 C 
ATOM     23  O   UNL d   1      33.439 -18.246   1.640  0.00  0.00    -0.388 OA
ATOM     24  C   UNL d   1      32.523 -17.238   2.104  0.00  0.00     0.187 C 
ATOM     25  C   UNL d   1      32.432 -16.059   1.114  0.00  0.00     0.149 C 
ENDBRANCH  17  20
ENDBRANCH  12  14
ENDBRANCH   9  10
ENDBRANCH   1   9
BRANCH   5  26
ATOM     26  C   UNL d   1      22.854 -18.411   0.514  0.00  0.00     0.076 C 
BRANCH  26  27
ATOM     27  C   UNL d   1      21.555 -18.942  -0.023  0.00  0.00    -0.028 A 
ATOM     28  C   UNL d   1      21.142 -18.950  -1.341  0.00  0.00     0.096 A 
ATOM     29  N   UNL d   1      19.928 -19.584  -1.408  0.00  0.00    -0.365 N 
ATOM     30  C   UNL d   1      19.514 -19.960  -0.150  0.00  0.00     0.042 A 
ATOM     31  H   UNL d   1      19.396 -19.733  -2.256  0.00  0.00     0.165 HD
ATOM     32  C   UNL d   1      18.347 -20.606   0.283  0.00  0.00     0.030 A 
ATOM     33  C   UNL d   1      20.496 -19.531   0.741  0.00  0.00    -0.002 A 
ATOM     34  C   UNL d   1      18.202 -20.852   1.656  0.00  0.00     0.002 A 
ATOM     35  C   UNL d   1      19.169 -20.450   2.564  0.00  0.00     0.001 A 
ATOM     36  C   UNL d   1      20.279 -19.741   2.119  0.00  0.00     0.014 A 
ENDBRANCH  26  27
ENDBRANCH   5  26
TORSDOF 6
ENDMDL
MODEL 7
REMARK VINA RESULT:    -8.208      3.717      9.403
REMARK INTER + INTRA:         -11.934
REMARK INTER:                  -9.998
REMARK INTRA:                  -1.936
REMARK CONF_INDEPENDENT:        1.790
REMARK UNBOUND:                -1.936
REMARK  6 active torsions:
REMARK  status: ('A' for Active; 'I' for Inactive)
REMARK    1  A    between atoms: C_2  and  C_3 
REMARK       I    between atoms: C_2  and  N_21 
REMARK    2  A    between atoms: C_3  and  N_4 
REMARK    3  A    between atoms: C_8  and  C_9 
REMARK    4  A    between atoms: C_9  and  C_10 
REMARK    5  A    between atoms: N_21  and  C_22 
REMARK    6  A    between atoms: C_25  and  N_26 
ROOT
ATOM      1  N   UNL d   1      28.460 -12.801  -5.645  0.00  0.00    -0.260 N 
ATOM      2  C   UNL d   1      28.439 -12.687  -6.989  0.00  0.00     0.326 C 
ATOM      3  O   UNL d   1      28.248 -11.676  -7.654  0.00  0.00    -0.247 OA
ATOM      4  N   UNL d   1      28.610 -13.935  -7.514  0.00  0.00    -0.329 N 
ATOM      5  C   UNL d   1      28.900 -14.940  -6.517  0.00  0.00     0.183 C 
ATOM      6  C   UNL d   1      28.660 -14.101  -5.267  0.00  0.00     0.251 C 
ATOM      7  O   UNL d   1      28.640 -14.534  -4.122  0.00  0.00    -0.271 OA
ATOM      8  H   UNL d   1      28.530 -14.101  -8.506  0.00  0.00     0.165 HD
ENDROOT
BRANCH   1   9
ATOM      9  C   UNL d   1      28.170 -11.718  -4.756  0.00  0.00     0.240 C 
BRANCH   9  10
ATOM     10  C   UNL d   1      26.776 -11.142  -5.008  0.00  0.00     0.240 C 
ATOM     11  O   UNL d   1      26.594 -10.048  -5.547  0.00  0.00    -0.271 OA
ATOM     12  N   UNL d   1      25.688 -11.933  -4.697  0.00  0.00    -0.326 N 
ATOM     13  H   UNL d   1      24.810 -11.588  -5.072  0.00  0.00     0.169 HD
BRANCH  12  14
ATOM     14  C   UNL d   1      25.683 -13.149  -3.989  0.00  0.00     0.034 A 
ATOM     15  C   UNL d   1      25.890 -13.161  -2.614  0.00  0.00     0.032 A 
ATOM     16  C   UNL d   1      25.910 -14.386  -1.922  0.00  0.00     0.031 A 
ATOM     17  C   UNL d   1      25.688 -15.614  -2.565  0.00  0.00     0.030 A 
ATOM     18  C   UNL d   1      25.530 -15.581  -3.947  0.00  0.00     0.031 A 
ATOM     19  C   UNL d   1      25.552 -14.371  -4.646  0.00  0.00     0.032 A 
BRANCH  17  20
ATOM     20  N   UNL d   1      25.639 -16.785  -1.849  0.00  0.00    -0.377 N 
ATOM     21  C   UNL d   1      24.406 -17.546  -1.632  0.00  0.00     0.149 C 
ATOM     22  C   UNL d   1      24.089 -17.663  -0.134  0.00  0.00     0.187 C 
ATOM     23  O   UNL d   1      25.207 -18.188   0.605  0.00  0.00    -0.388 OA
ATOM     24  C   UNL d   1      26.347 -17.325   0.449  0.00  0.00     0.187 C 
ATOM     25  C   UNL d   1      26.778 -17.220  -1.028  0.00  0.00     0.149 C 
ENDBRANCH  17  20
ENDBRANCH  12  14
ENDBRANCH   9  10
ENDBRANCH   1   9
BRANCH   5  26
ATOM     26  C   UNL d   1      30.334 -15.485  -6.545  0.00  0.00     0.076 C 
BRANCH  26  27
ATOM     27  C   UNL d   1      30.445 -16.835  -5.896  0.00  0.00    -0.028 A 
ATOM     28  C   UNL d   1      30.289 -17.127  -4.555  0.00  0.00     0.096 A 
ATOM     29  N   UNL d   1      30.403 -18.485  -4.394  0.00  0.00    -0.365 N 
ATOM     30  C   UNL d   1      30.672 -19.089  -5.601  0.00  0.00     0.042 A 
ATOM     31  H   UNL d   1      30.328 -18.973  -3.511  0.00  0.00     0.165 HD
ATOM     32  C   UNL d   1      30.892 -20.434  -5.931  0.00  0.00     0.030 A 
ATOM     33  C   UNL d   1      30.746 -18.073  -6.552  0.00  0.00    -0.002 A 
ATOM     34  C   UNL d   1      31.155 -20.748  -7.273  0.00  0.00     0.002 A 
ATOM     35  C   UNL d   1      31.220 -19.760  -8.243  0.00  0.00     0.001 A 
ATOM     36  C   UNL d   1      31.077 -18.426  -7.877  0.00  0.00     0.014 A 
ENDBRANCH  26  27
ENDBRANCH   5  26
TORSDOF 6
ENDMDL
MODEL 8
REMARK VINA RESULT:    -8.139      3.128      4.936
REMARK INTER + INTRA:         -11.969
REMARK INTER:                  -9.929
REMARK INTRA:                  -2.040
REMARK CONF_INDEPENDENT:        1.790
REMARK UNBOUND:                -2.040
REMARK  6 active torsions:
REMARK  status: ('A' for Active; 'I' for Inactive)
REMARK    1  A    between atoms: C_2  and  C_3 
REMARK       I    between atoms: C_2  and  N_21 
REMARK    2  A    between atoms: C_3  and  N_4 
REMARK    3  A    between atoms: C_8  and  C_9 
REMARK    4  A    between atoms: C_9  and  C_10 
REMARK    5  A    between atoms: N_21  and  C_22 
REMARK    6  A    between atoms: C_25  and  N_26 
ROOT
ATOM      1  N   UNL d   1      26.582 -13.556  -4.715  0.00  0.00    -0.260 N 
ATOM      2  C   UNL d   1      26.357 -14.872  -4.909  0.00  0.00     0.326 C 
ATOM      3  O   UNL d   1      26.755 -15.575  -5.830  0.00  0.00    -0.247 OA
ATOM      4  N   UNL d   1      25.531 -15.302  -3.911  0.00  0.00    -0.329 N 
ATOM      5  C   UNL d   1      25.277 -14.297  -2.904  0.00  0.00     0.183 C 
ATOM      6  C   UNL d   1      25.935 -13.107  -3.596  0.00  0.00     0.251 C 
ATOM      7  O   UNL d   1      25.876 -11.948  -3.209  0.00  0.00    -0.271 OA
ATOM      8  H   UNL d   1      25.150 -16.237  -3.913  0.00  0.00     0.165 HD
ENDROOT
BRANCH   1   9
ATOM      9  C   UNL d   1      27.290 -12.731  -5.645  0.00  0.00     0.240 C 
BRANCH   9  10
ATOM     10  C   UNL d   1      28.523 -12.093  -5.003  0.00  0.00     0.240 C 
ATOM     11  O   UNL d   1      28.570 -10.900  -4.693  0.00  0.00    -0.271 OA
ATOM     12  N   UNL d   1      29.582 -12.919  -4.684  0.00  0.00    -0.326 N 
ATOM     13  H   UNL d   1      30.274 -12.484  -4.082  0.00  0.00     0.169 HD
BRANCH  12  14
ATOM     14  C   UNL d   1      29.761 -14.267  -5.046  0.00  0.00     0.034 A 
ATOM     15  C   UNL d   1      30.045 -14.606  -6.365  0.00  0.00     0.032 A 
ATOM     16  C   UNL d   1      30.195 -15.960  -6.719  0.00  0.00     0.031 A 
ATOM     17  C   UNL d   1      30.107 -16.996  -5.776  0.00  0.00     0.030 A 
ATOM     18  C   UNL d   1      29.777 -16.636  -4.474  0.00  0.00     0.031 A 
ATOM     19  C   UNL d   1      29.584 -15.296  -4.124  0.00  0.00     0.032 A 
BRANCH  17  20
ATOM     20  N   UNL d   1      30.334 -18.301  -6.142  0.00  0.00    -0.377 N 
ATOM     21  C   UNL d   1      30.405 -19.406  -5.182  0.00  0.00     0.149 C 
ATOM     22  C   UNL d   1      31.778 -20.092  -5.237  0.00  0.00     0.187 C 
ATOM     23  O   UNL d   1      32.118 -20.493  -6.576  0.00  0.00    -0.388 OA
ATOM     24  C   UNL d   1      32.152 -19.342  -7.439  0.00  0.00     0.187 C 
ATOM     25  C   UNL d   1      30.780 -18.641  -7.501  0.00  0.00     0.149 C 
ENDBRANCH  17  20
ENDBRANCH  12  14
ENDBRANCH   9  10
ENDBRANCH   1   9
BRANCH   5  26
ATOM     26  C   UNL d   1      25.927 -14.568  -1.541  0.00  0.00     0.076 C 
BRANCH  26  27
ATOM     27  C   UNL d   1      25.797 -16.005  -1.122  0.00  0.00    -0.028 A 
ATOM     28  C   UNL d   1      26.825 -16.891  -0.867  0.00  0.00     0.096 A 
ATOM     29  N   UNL d   1      26.277 -18.077  -0.449  0.00  0.00    -0.365 N 
ATOM     30  C   UNL d   1      24.902 -17.999  -0.461  0.00  0.00     0.042 A 
ATOM     31  H   UNL d   1      26.803 -18.902  -0.192  0.00  0.00     0.165 HD
ATOM     32  C   UNL d   1      23.921 -18.950  -0.143  0.00  0.00     0.030 A 
ATOM     33  C   UNL d   1      24.575 -16.725  -0.920  0.00  0.00    -0.002 A 
ATOM     34  C   UNL d   1      22.575 -18.573  -0.262  0.00  0.00     0.002 A 
ATOM     35  C   UNL d   1      22.221 -17.307  -0.702  0.00  0.00     0.001 A 
ATOM     36  C   UNL d   1      23.211 -16.409  -1.087  0.00  0.00     0.014 A 
ENDBRANCH  26  27
ENDBRANCH   5  26
TORSDOF 6
ENDMDL
MODEL 9
REMARK VINA RESULT:    -7.221      3.618      6.487
REMARK INTER + INTRA:         -11.919
REMARK INTER:                  -9.011
REMARK INTRA:                  -2.908
REMARK CONF_INDEPENDENT:        1.790
REMARK UNBOUND:                -2.908
REMARK  6 active torsions:
REMARK  status: ('A' for Active; 'I' for Inactive)
REMARK    1  A    between atoms: C_2  and  C_3 
REMARK       I    between atoms: C_2  and  N_21 
REMARK    2  A    between atoms: C_3  and  N_4 
REMARK    3  A    between atoms: C_8  and  C_9 
REMARK    4  A    between atoms: C_9  and  C_10 
REMARK    5  A    between atoms: N_21  and  C_22 
REMARK    6  A    between atoms: C_25  and  N_26 
ROOT
ATOM      1  N   UNL d   1      26.470 -13.541  -4.817  0.00  0.00    -0.260 N 
ATOM      2  C   UNL d   1      26.325 -14.873  -4.975  0.00  0.00     0.326 C 
ATOM      3  O   UNL d   1      26.762 -15.575  -5.879  0.00  0.00    -0.247 OA
ATOM      4  N   UNL d   1      25.530 -15.325  -3.962  0.00  0.00    -0.329 N 
ATOM      5  C   UNL d   1      25.220 -14.312  -2.981  0.00  0.00     0.183 C 
ATOM      6  C   UNL d   1      25.801 -13.103  -3.707  0.00  0.00     0.251 C 
ATOM      7  O   UNL d   1      25.674 -11.939  -3.350  0.00  0.00    -0.271 OA
ATOM      8  H   UNL d   1      25.207 -16.281  -3.938  0.00  0.00     0.165 HD
ENDROOT
BRANCH   1   9
ATOM      9  C   UNL d   1      27.124 -12.700  -5.772  0.00  0.00     0.240 C 
BRANCH   9  10
ATOM     10  C   UNL d   1      28.470 -13.283  -6.206  0.00  0.00     0.240 C 
ATOM     11  O   UNL d   1      28.760 -13.481  -7.389  0.00  0.00    -0.271 OA
ATOM     12  N   UNL d   1      29.418 -13.507  -5.229  0.00  0.00    -0.326 N 
ATOM     13  H   UNL d   1      30.346 -13.695  -5.594  0.00  0.00     0.169 HD
BRANCH  12  14
ATOM     14  C   UNL d   1      29.247 -13.445  -3.834  0.00  0.00     0.034 A 
ATOM     15  C   UNL d   1      29.017 -12.223  -3.209  0.00  0.00     0.032 A 
ATOM     16  C   UNL d   1      28.874 -12.171  -1.810  0.00  0.00     0.031 A 
ATOM     17  C   UNL d   1      28.919 -13.323  -1.009  0.00  0.00     0.030 A 
ATOM     18  C   UNL d   1      29.198 -14.526  -1.650  0.00  0.00     0.031 A 
ATOM     19  C   UNL d   1      29.382 -14.578  -3.034  0.00  0.00     0.032 A 
BRANCH  17  20
ATOM     20  N   UNL d   1      28.701 -13.246   0.345  0.00  0.00    -0.377 N 
ATOM     21  C   UNL d   1      29.034 -14.327   1.278  0.00  0.00     0.149 C 
ATOM     22  C   UNL d   1      27.780 -14.825   2.010  0.00  0.00     0.187 C 
ATOM     23  O   UNL d   1      27.068 -13.744   2.639  0.00  0.00    -0.388 OA
ATOM     24  C   UNL d   1      26.663 -12.782   1.649  0.00  0.00     0.187 C 
ATOM     25  C   UNL d   1      27.878 -12.173   0.922  0.00  0.00     0.149 C 
ENDBRANCH  17  20
ENDBRANCH  12  14
ENDBRANCH   9  10
ENDBRANCH   1   9
BRANCH   5  26
ATOM     26  C   UNL d   1      25.890 -14.506  -1.615  0.00  0.00     0.076 C 
BRANCH  26  27
ATOM     27  C   UNL d   1      25.807 -15.928  -1.135  0.00  0.00    -0.028 A 
ATOM     28  C   UNL d   1      26.864 -16.771  -0.851  0.00  0.00     0.096 A 
ATOM     29  N   UNL d   1      26.356 -17.955  -0.380  0.00  0.00    -0.365 N 
ATOM     30  C   UNL d   1      24.980 -17.920  -0.386  0.00  0.00     0.042 A 
ATOM     31  H   UNL d   1      26.910 -18.751  -0.093  0.00  0.00     0.165 HD
ATOM     32  C   UNL d   1      24.031 -18.887  -0.023  0.00  0.00     0.030 A 
ATOM     33  C   UNL d   1      24.610 -16.677  -0.896  0.00  0.00    -0.002 A 
ATOM     34  C   UNL d   1      22.673 -18.557  -0.148  0.00  0.00     0.002 A 
ATOM     35  C   UNL d   1      22.277 -17.322  -0.638  0.00  0.00     0.001 A 
ATOM     36  C   UNL d   1      23.236 -16.411  -1.066  0.00  0.00     0.014 A 
ENDBRANCH  26  27
ENDBRANCH   5  26
TORSDOF 6
ENDMDL
