MODEL 1
REMARK VINA RESULT:   -29.347      0.000      0.000
REMARK INTER + INTRA:         -31.175
REMARK INTER:                 -30.242
REMARK INTRA:                  -0.933
REMARK CONF_INDEPENDENT:        0.895
REMARK UNBOUND:                -0.933
REMARK  3 active torsions:
REMARK  status: ('A' for Active; 'I' for Inactive)
REMARK    1  A    between atoms: C_2  and  C_3 
REMARK    2  A    between atoms: C_8  and  C_9 
REMARK       I    between atoms: C_9  and  N_11 
REMARK    3  A    between atoms: N_11  and  N_12 
ROOT
ATOM      1  C   UNL d   1      27.714 -16.956   0.184  0.00  0.00    -0.010 C 
ATOM      2  C   UNL d   1      27.608 -16.501  -1.295  0.00  0.00     0.009 C 
ATOM      3  C   UNL d   1      26.223 -15.974  -1.712  0.00  0.00     0.040 C 
ATOM      4  C   UNL d   1      25.119 -16.802  -1.132  0.00  0.00    -0.043 A 
ATOM      5  C   UNL d   1      23.739 -16.707  -1.475  0.00  0.00     0.032 A 
ATOM      6  C   UNL d   1      22.942 -17.624  -0.812  0.00  0.00     0.074 A 
ATOM      7  S   UNL d   1      23.875 -18.538   0.300  0.00  0.00    -0.089 SA
ATOM      8  C   UNL d   1      25.318 -17.725  -0.124  0.00  0.00    -0.010 A 
ATOM      9  C   UNL d   1      26.640 -18.027   0.524  0.00  0.00     0.051 C 
ENDROOT
BRANCH   6  10
ATOM     10  C   UNL d   1      21.505 -17.796  -1.016  0.00  0.00     0.272 C 
ATOM     11  O   UNL d   1      20.756 -16.843  -1.270  0.00  0.00    -0.266 OA
ATOM     12  N   UNL d   1      20.982 -19.087  -0.918  0.00  0.00    -0.289 N 
ATOM     13  H   UNL d   1      21.611 -19.878  -0.799  0.00  0.00     0.183 HD
BRANCH  12  14
ATOM     14  N   UNL d   1      19.610 -19.325  -1.219  0.00  0.00    -0.247 NA
ATOM     15  H   UNL d   1      19.582 -19.795  -2.136  0.00  0.00     0.143 HD
ATOM     16  H   UNL d   1      19.151 -18.426  -1.381  0.00  0.00     0.143 HD
ENDBRANCH  12  14
ENDBRANCH   6  10
BRANCH   1  17
ATOM     17  C   UNL d   1      27.740 -15.804   1.220  0.00  0.00     0.000 C 
ATOM     18  C   UNL d   1      28.770 -14.717   0.981  0.00  0.00     0.005 C 
ENDBRANCH   1  17
TORSDOF 3
ENDMDL
MODEL 2
REMARK VINA RESULT:   -29.332      1.532      2.447
REMARK INTER + INTRA:         -31.225
REMARK INTER:                 -30.227
REMARK INTRA:                  -0.997
REMARK CONF_INDEPENDENT:        0.895
REMARK UNBOUND:                -0.997
REMARK  3 active torsions:
REMARK  status: ('A' for Active; 'I' for Inactive)
REMARK    1  A    between atoms: C_2  and  C_3 
REMARK    2  A    between atoms: C_8  and  C_9 
REMARK       I    between atoms: C_9  and  N_11 
REMARK    3  A    between atoms: N_11  and  N_12 
ROOT
ATOM      1  C   UNL d   1      27.128 -15.516  -0.684  0.00  0.00    -0.010 C 
ATOM      2  C   UNL d   1      27.507 -16.602   0.357  0.00  0.00     0.009 C 
ATOM      3  C   UNL d   1      26.760 -17.939   0.199  0.00  0.00     0.040 C 
ATOM      4  C   UNL d   1      25.315 -17.729  -0.128  0.00  0.00    -0.043 A 
ATOM      5  C   UNL d   1      24.310 -18.739  -0.145  0.00  0.00     0.032 A 
ATOM      6  C   UNL d   1      23.048 -18.256  -0.442  0.00  0.00     0.074 A 
ATOM      7  S   UNL d   1      23.113 -16.577  -0.791  0.00  0.00    -0.089 SA
ATOM      8  C   UNL d   1      24.801 -16.510  -0.525  0.00  0.00    -0.010 A 
ATOM      9  C   UNL d   1      25.598 -15.245  -0.684  0.00  0.00     0.051 C 
ENDROOT
BRANCH   6  10
ATOM     10  C   UNL d   1      21.823 -19.053  -0.465  0.00  0.00     0.272 C 
ATOM     11  O   UNL d   1      21.688 -20.075   0.221  0.00  0.00    -0.266 OA
ATOM     12  N   UNL d   1      20.783 -18.629  -1.295  0.00  0.00    -0.289 N 
ATOM     13  H   UNL d   1      20.862 -17.743  -1.788  0.00  0.00     0.183 HD
BRANCH  12  14
ATOM     14  N   UNL d   1      19.530 -19.306  -1.270  0.00  0.00    -0.247 NA
ATOM     15  H   UNL d   1      19.683 -20.203  -0.784  0.00  0.00     0.143 HD
ATOM     16  H   UNL d   1      19.285 -19.574  -2.225  0.00  0.00     0.143 HD
ENDBRANCH  12  14
ENDBRANCH   6  10
BRANCH   1  17
ATOM     17  C   UNL d   1      27.680 -15.761  -2.111  0.00  0.00     0.000 C 
ATOM     18  C   UNL d   1      26.736 -15.438  -3.253  0.00  0.00     0.005 C 
ENDBRANCH   1  17
TORSDOF 3
ENDMDL
MODEL 3
REMARK VINA RESULT:   -28.994      1.205      1.351
REMARK INTER + INTRA:         -30.725
REMARK INTER:                 -29.889
REMARK INTRA:                  -0.836
REMARK CONF_INDEPENDENT:        0.895
REMARK UNBOUND:                -0.836
REMARK  3 active torsions:
REMARK  status: ('A' for Active; 'I' for Inactive)
REMARK    1  A    between atoms: C_2  and  C_3 
REMARK    2  A    between atoms: C_8  and  C_9 
REMARK       I    between atoms: C_9  and  N_11 
REMARK    3  A    between atoms: N_11  and  N_12 
ROOT
ATOM      1  C   UNL d   1      27.956 -15.799  -0.926  0.00  0.00    -0.010 C 
ATOM      2  C   UNL d   1      27.325 -15.620  -2.332  0.00  0.00     0.009 C 
ATOM      3  C   UNL d   1      25.791 -15.498  -2.343  0.00  0.00     0.040 C 
ATOM      4  C   UNL d   1      25.154 -16.456  -1.385  0.00  0.00    -0.043 A 
ATOM      5  C   UNL d   1      23.760 -16.737  -1.293  0.00  0.00     0.032 A 
ATOM      6  C   UNL d   1      23.453 -17.696  -0.343  0.00  0.00     0.074 A 
ATOM      7  S   UNL d   1      24.867 -18.184   0.498  0.00  0.00    -0.089 SA
ATOM      8  C   UNL d   1      25.863 -17.137  -0.416  0.00  0.00    -0.010 A 
ATOM      9  C   UNL d   1      27.345 -17.021  -0.186  0.00  0.00     0.051 C 
ENDROOT
BRANCH   6  10
ATOM     10  C   UNL d   1      22.117 -18.225  -0.080  0.00  0.00     0.272 C 
ATOM     11  O   UNL d   1      21.789 -18.667   1.030  0.00  0.00    -0.266 OA
ATOM     12  N   UNL d   1      21.195 -18.223  -1.128  0.00  0.00    -0.289 N 
ATOM     13  H   UNL d   1      21.438 -17.778  -2.011  0.00  0.00     0.183 HD
BRANCH  12  14
ATOM     14  N   UNL d   1      19.848 -18.622  -0.895  0.00  0.00    -0.247 NA
ATOM     15  H   UNL d   1      19.249 -17.824  -1.155  0.00  0.00     0.143 HD
ATOM     16  H   UNL d   1      19.708 -18.725   0.113  0.00  0.00     0.143 HD
ENDBRANCH  12  14
ENDBRANCH   6  10
BRANCH   1  17
ATOM     17  C   UNL d   1      27.959 -14.523  -0.047  0.00  0.00     0.000 C 
ATOM     18  C   UNL d   1      27.616 -14.722   1.416  0.00  0.00     0.005 C 
ENDBRANCH   1  17
TORSDOF 3
ENDMDL
