MODEL 1
REMARK VINA RESULT:    -9.065      0.000      0.000
REMARK INTER + INTRA:         -16.595
REMARK INTER:                 -12.943
REMARK INTRA:                  -3.652
REMARK CONF_INDEPENDENT:        3.878
REMARK UNBOUND:                -3.652
REMARK  13 active torsions:
REMARK  status: ('A' for Active; 'I' for Inactive)
REMARK    1  A    between atoms: C_2  and  C_3 
REMARK    2  A    between atoms: C_3  and  N_4 
REMARK       I    between atoms: N_4  and  C_5 
REMARK    3  A    between atoms: C_21  and  N_4 
REMARK    4  A    between atoms: C_5  and  C_7 
REMARK    5  A    between atoms: C_7  and  O_8 
REMARK    6  A    between atoms: C_7  and  C_9 
REMARK    7  A    between atoms: C_7  and  C_15 
REMARK    8  A    between atoms: C_21  and  C_31 
REMARK    9  A    between atoms: C_21  and  C_22 
REMARK       I    between atoms: C_22  and  N_24 
REMARK   10  A    between atoms: N_24  and  C_25 
REMARK   11  A    between atoms: C_32  and  O_33 
REMARK   12  A    between atoms: C_35  and  O_36 
REMARK   13  A    between atoms: C_38  and  O_39 
ROOT
ATOM      1  C   UNL d   1      26.255 -13.521  -4.463  0.00  0.00     0.218 C 
ENDROOT
BRANCH   1   2
ATOM      2  C   UNL d   1      26.077 -11.994  -4.274  0.00  0.00     0.040 A 
ATOM      3  C   UNL d   1      25.794 -11.070  -5.286  0.00  0.00     0.080 A 
ATOM      4  C   UNL d   1      25.648  -9.703  -5.117  0.00  0.00     0.073 A 
ATOM      5  C   UNL d   1      25.663  -9.209  -3.840  0.00  0.00     0.071 A 
ATOM      6  C   UNL d   1      25.904 -10.060  -2.766  0.00  0.00     0.073 A 
ATOM      7  C   UNL d   1      26.113 -11.436  -2.986  0.00  0.00     0.080 A 
BRANCH   3   8
ATOM      8  O   UNL d   1      25.342 -11.450  -6.497  0.00  0.00    -0.360 OA
ATOM      9  H   UNL d   1      24.415 -11.615  -6.247  0.00  0.00     0.217 HD
ENDBRANCH   3   8
BRANCH   5  10
ATOM     10  O   UNL d   1      25.373  -7.896  -3.627  0.00  0.00    -0.361 OA
ATOM     11  H   UNL d   1      24.779  -7.847  -2.855  0.00  0.00     0.217 HD
ENDBRANCH   5  10
BRANCH   7  12
ATOM     12  O   UNL d   1      26.303 -12.274  -1.916  0.00  0.00    -0.360 OA
ATOM     13  H   UNL d   1      25.630 -12.977  -1.952  0.00  0.00     0.217 HD
ENDBRANCH   7  12
ENDBRANCH   1   2
BRANCH   1  14
ATOM     14  C   UNL d   1      27.181 -13.778  -5.685  0.00  0.00     0.245 C 
ATOM     15  O   UNL d   1      27.330 -14.893  -6.134  0.00  0.00    -0.271 OA
ATOM     16  N   UNL d   1      27.858 -12.715  -6.258  0.00  0.00    -0.354 N 
ATOM     17  H   UNL d   1      28.055 -11.910  -5.674  0.00  0.00     0.162 HD
BRANCH  16  18
ATOM     18  C   UNL d   1      28.674 -12.982  -7.447  0.00  0.00     0.084 C 
ATOM     19  C   UNL d   1      28.368 -12.008  -8.607  0.00  0.00     0.025 C 
ATOM     20  C   UNL d   1      29.310 -12.202  -9.791  0.00  0.00     0.002 C 
ATOM     21  C   UNL d   1      30.774 -12.132  -9.367  0.00  0.00     0.000 C 
ATOM     22  C   UNL d   1      31.078 -13.164  -8.287  0.00  0.00     0.002 C 
ATOM     23  C   UNL d   1      30.175 -12.976  -7.080  0.00  0.00     0.025 C 
ENDBRANCH  16  18
ENDBRANCH   1  14
BRANCH   1  24
ATOM     24  N   UNL d   1      26.787 -14.360  -3.276  0.00  0.00    -0.331 N 
ATOM     25  C   UNL d   1      25.774 -14.973  -2.461  0.00  0.00     0.265 C 
ATOM     26  O   UNL d   1      24.587 -14.819  -2.791  0.00  0.00    -0.269 OA
BRANCH  24  27
ATOM     27  C   UNL d   1      28.288 -14.386  -3.069  0.00  0.00     0.127 C 
BRANCH  27  28
ATOM     28  C   UNL d   1      29.044 -15.592  -3.394  0.00  0.00     0.015 C 
ATOM     29  C   UNL d   1      30.436 -15.483  -3.931  0.00  0.00     0.006 C 
ENDBRANCH  27  28
ENDBRANCH  24  27
BRANCH  25  30
ATOM     30  C   UNL d   1      26.118 -16.009  -1.204  0.00  0.00     0.194 C 
BRANCH  30  31
ATOM     31  O   UNL d   1      26.934 -17.075  -1.724  0.00  0.00    -0.371 OA
ATOM     32  H   UNL d   1      27.858 -16.859  -1.476  0.00  0.00     0.212 HD
ENDBRANCH  30  31
BRANCH  30  33
ATOM     33  C   UNL d   1      26.709 -15.213   0.081  0.00  0.00    -0.010 C 
ATOM     34  C   UNL d   1      26.286 -13.921   0.438  0.00  0.00     0.011 C 
ATOM     35  C   UNL d   1      26.920 -13.199   1.459  0.00  0.00     0.001 C 
ATOM     36  C   UNL d   1      28.183 -13.573   1.879  0.00  0.00     0.000 C 
ATOM     37  C   UNL d   1      28.654 -14.797   1.475  0.00  0.00     0.001 C 
ATOM     38  C   UNL d   1      27.749 -15.699   0.896  0.00  0.00     0.011 C 
ENDBRANCH  30  33
BRANCH  30  39
ATOM     39  C   UNL d   1      24.885 -16.851  -0.816  0.00  0.00    -0.010 C 
ATOM     40  C   UNL d   1      24.940 -18.227  -0.530  0.00  0.00     0.011 C 
ATOM     41  C   UNL d   1      23.759 -18.934  -0.285  0.00  0.00     0.001 C 
ATOM     42  C   UNL d   1      22.523 -18.284  -0.327  0.00  0.00     0.000 C 
ATOM     43  C   UNL d   1      22.462 -16.928  -0.558  0.00  0.00     0.001 C 
ATOM     44  C   UNL d   1      23.640 -16.234  -0.683  0.00  0.00     0.011 C 
ENDBRANCH  30  39
ENDBRANCH  25  30
ENDBRANCH   1  24
TORSDOF 13
ENDMDL
MODEL 2
REMARK VINA RESULT:    -7.804      3.090      7.009
REMARK INTER + INTRA:         -16.324
REMARK INTER:                 -11.682
REMARK INTRA:                  -4.642
REMARK CONF_INDEPENDENT:        3.878
REMARK UNBOUND:                -4.642
REMARK  13 active torsions:
REMARK  status: ('A' for Active; 'I' for Inactive)
REMARK    1  A    between atoms: C_2  and  C_3 
REMARK    2  A    between atoms: C_3  and  N_4 
REMARK       I    between atoms: N_4  and  C_5 
REMARK    3  A    between atoms: C_21  and  N_4 
REMARK    4  A    between atoms: C_5  and  C_7 
REMARK    5  A    between atoms: C_7  and  O_8 
REMARK    6  A    between atoms: C_7  and  C_9 
REMARK    7  A    between atoms: C_7  and  C_15 
REMARK    8  A    between atoms: C_21  and  C_31 
REMARK    9  A    between atoms: C_21  and  C_22 
REMARK       I    between atoms: C_22  and  N_24 
REMARK   10  A    between atoms: N_24  and  C_25 
REMARK   11  A    between atoms: C_32  and  O_33 
REMARK   12  A    between atoms: C_35  and  O_36 
REMARK   13  A    between atoms: C_38  and  O_39 
ROOT
ATOM      1  C   UNL d   1      26.429 -14.759  -1.532  0.00  0.00     0.218 C 
ENDROOT
BRANCH   1   2
ATOM      2  C   UNL d   1      27.034 -14.820  -2.956  0.00  0.00     0.040 A 
ATOM      3  C   UNL d   1      28.366 -15.111  -3.271  0.00  0.00     0.080 A 
ATOM      4  C   UNL d   1      28.907 -15.152  -4.546  0.00  0.00     0.073 A 
ATOM      5  C   UNL d   1      28.056 -15.015  -5.609  0.00  0.00     0.071 A 
ATOM      6  C   UNL d   1      26.706 -14.756  -5.393  0.00  0.00     0.073 A 
ATOM      7  C   UNL d   1      26.205 -14.656  -4.079  0.00  0.00     0.080 A 
BRANCH   3   8
ATOM      8  O   UNL d   1      29.206 -15.672  -2.380  0.00  0.00    -0.360 OA
ATOM      9  H   UNL d   1      29.334 -14.892  -1.809  0.00  0.00     0.217 HD
ENDBRANCH   3   8
BRANCH   5  10
ATOM     10  O   UNL d   1      28.529 -15.200  -6.872  0.00  0.00    -0.361 OA
ATOM     11  H   UNL d   1      29.306 -14.622  -6.984  0.00  0.00     0.217 HD
ENDBRANCH   5  10
BRANCH   7  12
ATOM     12  O   UNL d   1      24.865 -14.448  -3.877  0.00  0.00    -0.360 OA
ATOM     13  H   UNL d   1      24.662 -14.632  -2.942  0.00  0.00     0.217 HD
ENDBRANCH   7  12
ENDBRANCH   1   2
BRANCH   1  14
ATOM     14  C   UNL d   1      25.324 -15.844  -1.402  0.00  0.00     0.245 C 
ATOM     15  O   UNL d   1      25.058 -16.579  -2.327  0.00  0.00    -0.271 OA
ATOM     16  N   UNL d   1      24.623 -15.961  -0.214  0.00  0.00    -0.354 N 
ATOM     17  H   UNL d   1      24.553 -15.138   0.375  0.00  0.00     0.162 HD
BRANCH  16  18
ATOM     18  C   UNL d   1      23.631 -17.035  -0.105  0.00  0.00     0.084 C 
ATOM     19  C   UNL d   1      22.338 -16.729  -0.895  0.00  0.00     0.025 C 
ATOM     20  C   UNL d   1      21.364 -17.903  -0.890  0.00  0.00     0.002 C 
ATOM     21  C   UNL d   1      22.027 -19.191  -1.370  0.00  0.00     0.000 C 
ATOM     22  C   UNL d   1      23.247 -19.525  -0.520  0.00  0.00     0.002 C 
ATOM     23  C   UNL d   1      24.251 -18.385  -0.531  0.00  0.00     0.025 C 
ENDBRANCH  16  18
ENDBRANCH   1  14
BRANCH   1  24
ATOM     24  N   UNL d   1      27.377 -14.893  -0.316  0.00  0.00    -0.331 N 
ATOM     25  C   UNL d   1      28.351 -13.845  -0.183  0.00  0.00     0.265 C 
ATOM     26  O   UNL d   1      28.326 -12.918  -1.010  0.00  0.00    -0.269 OA
BRANCH  24  27
ATOM     27  C   UNL d   1      27.218 -16.129   0.547  0.00  0.00     0.127 C 
BRANCH  27  28
ATOM     28  C   UNL d   1      27.616 -17.433   0.027  0.00  0.00     0.015 C 
ATOM     29  C   UNL d   1      27.030 -18.682   0.605  0.00  0.00     0.006 C 
ENDBRANCH  27  28
ENDBRANCH  24  27
BRANCH  25  30
ATOM     30  C   UNL d   1      29.393 -13.725   1.110  0.00  0.00     0.194 C 
BRANCH  30  31
ATOM     31  O   UNL d   1      30.296 -12.635   0.846  0.00  0.00    -0.371 OA
ATOM     32  H   UNL d   1      29.920 -12.147   0.083  0.00  0.00     0.212 HD
ENDBRANCH  30  31
BRANCH  30  33
ATOM     33  C   UNL d   1      28.591 -13.670   2.520  0.00  0.00    -0.010 C 
ATOM     34  C   UNL d   1      28.340 -12.470   3.207  0.00  0.00     0.011 C 
ATOM     35  C   UNL d   1      27.780 -12.466   4.493  0.00  0.00     0.001 C 
ATOM     36  C   UNL d   1      27.807 -13.621   5.254  0.00  0.00     0.000 C 
ATOM     37  C   UNL d   1      28.132 -14.795   4.623  0.00  0.00     0.001 C 
ATOM     38  C   UNL d   1      28.156 -14.811   3.220  0.00  0.00     0.011 C 
ENDBRANCH  30  33
BRANCH  30  39
ATOM     39  C   UNL d   1      30.428 -14.868   1.104  0.00  0.00    -0.010 C 
ATOM     40  C   UNL d   1      31.362 -15.078   2.134  0.00  0.00     0.011 C 
ATOM     41  C   UNL d   1      32.331 -16.078   2.002  0.00  0.00     0.001 C 
ATOM     42  C   UNL d   1      32.380 -16.868   0.852  0.00  0.00     0.000 C 
ATOM     43  C   UNL d   1      31.440 -16.704  -0.142  0.00  0.00     0.001 C 
ATOM     44  C   UNL d   1      30.432 -15.794   0.060  0.00  0.00     0.011 C 
ENDBRANCH  30  39
ENDBRANCH  25  30
ENDBRANCH   1  24
TORSDOF 13
ENDMDL
MODEL 3
REMARK VINA RESULT:    -7.769      2.338      8.033
REMARK INTER + INTRA:         -16.634
REMARK INTER:                 -11.647
REMARK INTRA:                  -4.987
REMARK CONF_INDEPENDENT:        3.878
REMARK UNBOUND:                -4.987
REMARK  13 active torsions:
REMARK  status: ('A' for Active; 'I' for Inactive)
REMARK    1  A    between atoms: C_2  and  C_3 
REMARK    2  A    between atoms: C_3  and  N_4 
REMARK       I    between atoms: N_4  and  C_5 
REMARK    3  A    between atoms: C_21  and  N_4 
REMARK    4  A    between atoms: C_5  and  C_7 
REMARK    5  A    between atoms: C_7  and  O_8 
REMARK    6  A    between atoms: C_7  and  C_9 
REMARK    7  A    between atoms: C_7  and  C_15 
REMARK    8  A    between atoms: C_21  and  C_31 
REMARK    9  A    between atoms: C_21  and  C_22 
REMARK       I    between atoms: C_22  and  N_24 
REMARK   10  A    between atoms: N_24  and  C_25 
REMARK   11  A    between atoms: C_32  and  O_33 
REMARK   12  A    between atoms: C_35  and  O_36 
REMARK   13  A    between atoms: C_38  and  O_39 
ROOT
ATOM      1  C   UNL d   1      26.011 -14.779  -0.828  0.00  0.00     0.218 C 
ENDROOT
BRANCH   1   2
ATOM      2  C   UNL d   1      25.339 -16.153  -0.585  0.00  0.00     0.040 A 
ATOM      3  C   UNL d   1      23.968 -16.421  -0.663  0.00  0.00     0.080 A 
ATOM      4  C   UNL d   1      23.369 -17.648  -0.432  0.00  0.00     0.073 A 
ATOM      5  C   UNL d   1      24.180 -18.731  -0.225  0.00  0.00     0.071 A 
ATOM      6  C   UNL d   1      25.561 -18.565  -0.165  0.00  0.00     0.073 A 
ATOM      7  C   UNL d   1      26.130 -17.288  -0.340  0.00  0.00     0.080 A 
BRANCH   3   8
ATOM      8  O   UNL d   1      23.106 -15.575  -1.259  0.00  0.00    -0.360 OA
ATOM      9  H   UNL d   1      23.720 -15.201  -1.916  0.00  0.00     0.217 HD
ENDBRANCH   3   8
BRANCH   5  10
ATOM     10  O   UNL d   1      23.631 -19.974  -0.145  0.00  0.00    -0.361 OA
ATOM     11  H   UNL d   1      22.858 -19.917   0.447  0.00  0.00     0.217 HD
ENDBRANCH   5  10
BRANCH   7  12
ATOM     12  O   UNL d   1      27.494 -17.143  -0.326  0.00  0.00    -0.360 OA
ATOM     13  H   UNL d   1      27.762 -16.841   0.559  0.00  0.00     0.217 HD
ENDBRANCH   7  12
ENDBRANCH   1   2
BRANCH   1  14
ATOM     14  C   UNL d   1      26.884 -14.415   0.406  0.00  0.00     0.245 C 
ATOM     15  O   UNL d   1      27.850 -15.082   0.708  0.00  0.00    -0.271 OA
ATOM     16  N   UNL d   1      26.542 -13.320   1.180  0.00  0.00    -0.354 N 
ATOM     17  H   UNL d   1      25.570 -13.029   1.184  0.00  0.00     0.162 HD
BRANCH  16  18
ATOM     18  C   UNL d   1      27.421 -12.970   2.300  0.00  0.00     0.084 C 
ATOM     19  C   UNL d   1      27.098 -11.580   2.895  0.00  0.00     0.025 C 
ATOM     20  C   UNL d   1      27.923 -11.277   4.142  0.00  0.00     0.002 C 
ATOM     21  C   UNL d   1      27.797 -12.381   5.187  0.00  0.00     0.000 C 
ATOM     22  C   UNL d   1      28.209 -13.729   4.607  0.00  0.00     0.002 C 
ATOM     23  C   UNL d   1      27.381 -14.074   3.381  0.00  0.00     0.025 C 
ENDBRANCH  16  18
ENDBRANCH   1  14
BRANCH   1  24
ATOM     24  N   UNL d   1      26.875 -14.588  -2.098  0.00  0.00    -0.331 N 
ATOM     25  C   UNL d   1      26.261 -15.019  -3.323  0.00  0.00     0.265 C 
ATOM     26  O   UNL d   1      25.100 -15.461  -3.271  0.00  0.00    -0.269 OA
BRANCH  24  27
ATOM     27  C   UNL d   1      28.273 -14.037  -1.903  0.00  0.00     0.127 C 
BRANCH  27  28
ATOM     28  C   UNL d   1      28.495 -12.595  -1.922  0.00  0.00     0.015 C 
ATOM     29  C   UNL d   1      27.385 -11.660  -1.560  0.00  0.00     0.006 C 
ENDBRANCH  27  28
ENDBRANCH  24  27
BRANCH  25  30
ATOM     30  C   UNL d   1      26.959 -14.804  -4.820  0.00  0.00     0.194 C 
BRANCH  30  31
ATOM     31  O   UNL d   1      26.281 -15.670  -5.748  0.00  0.00    -0.371 OA
ATOM     32  H   UNL d   1      25.549 -16.090  -5.248  0.00  0.00     0.212 HD
ENDBRANCH  30  31
BRANCH  30  33
ATOM     33  C   UNL d   1      27.032 -13.233  -5.224  0.00  0.00    -0.010 C 
ATOM     34  C   UNL d   1      26.269 -12.245  -4.579  0.00  0.00     0.011 C 
ATOM     35  C   UNL d   1      26.238 -10.923  -5.047  0.00  0.00     0.001 C 
ATOM     36  C   UNL d   1      26.646 -10.645  -6.339  0.00  0.00     0.000 C 
ATOM     37  C   UNL d   1      27.321 -11.626  -7.021  0.00  0.00     0.001 C 
ATOM     38  C   UNL d   1      27.790 -12.734  -6.300  0.00  0.00     0.011 C 
ENDBRANCH  30  33
BRANCH  30  39
ATOM     39  C   UNL d   1      28.352 -15.460  -4.890  0.00  0.00    -0.010 C 
ATOM     40  C   UNL d   1      29.241 -15.288  -5.966  0.00  0.00     0.011 C 
ATOM     41  C   UNL d   1      30.445 -16.001  -5.994  0.00  0.00     0.001 C 
ATOM     42  C   UNL d   1      30.768 -16.885  -4.963  0.00  0.00     0.000 C 
ATOM     43  C   UNL d   1      29.928 -17.025  -3.881  0.00  0.00     0.001 C 
ATOM     44  C   UNL d   1      28.808 -16.232  -3.820  0.00  0.00     0.011 C 
ENDBRANCH  30  39
ENDBRANCH  25  30
ENDBRANCH   1  24
TORSDOF 13
ENDMDL
MODEL 4
REMARK VINA RESULT:    -7.756      3.524      7.381
REMARK INTER + INTRA:         -16.774
REMARK INTER:                 -11.633
REMARK INTRA:                  -5.141
REMARK CONF_INDEPENDENT:        3.878
REMARK UNBOUND:                -5.141
REMARK  13 active torsions:
REMARK  status: ('A' for Active; 'I' for Inactive)
REMARK    1  A    between atoms: C_2  and  C_3 
REMARK    2  A    between atoms: C_3  and  N_4 
REMARK       I    between atoms: N_4  and  C_5 
REMARK    3  A    between atoms: C_21  and  N_4 
REMARK    4  A    between atoms: C_5  and  C_7 
REMARK    5  A    between atoms: C_7  and  O_8 
REMARK    6  A    between atoms: C_7  and  C_9 
REMARK    7  A    between atoms: C_7  and  C_15 
REMARK    8  A    between atoms: C_21  and  C_31 
REMARK    9  A    between atoms: C_21  and  C_22 
REMARK       I    between atoms: C_22  and  N_24 
REMARK   10  A    between atoms: N_24  and  C_25 
REMARK   11  A    between atoms: C_32  and  O_33 
REMARK   12  A    between atoms: C_35  and  O_36 
REMARK   13  A    between atoms: C_38  and  O_39 
ROOT
ATOM      1  C   UNL d   1      29.762 -13.772   0.884  0.00  0.00     0.218 C 
ENDROOT
BRANCH   1   2
ATOM      2  C   UNL d   1      29.426 -14.104   2.358  0.00  0.00     0.040 A 
ATOM      3  C   UNL d   1      30.354 -14.312   3.385  0.00  0.00     0.080 A 
ATOM      4  C   UNL d   1      30.051 -14.622   4.700  0.00  0.00     0.073 A 
ATOM      5  C   UNL d   1      28.735 -14.612   5.076  0.00  0.00     0.071 A 
ATOM      6  C   UNL d   1      27.742 -14.380   4.129  0.00  0.00     0.073 A 
ATOM      7  C   UNL d   1      28.088 -14.133   2.785  0.00  0.00     0.080 A 
BRANCH   3   8
ATOM      8  O   UNL d   1      31.645 -13.946   3.267  0.00  0.00    -0.360 OA
ATOM      9  H   UNL d   1      31.905 -14.074   4.198  0.00  0.00     0.217 HD
ENDBRANCH   3   8
BRANCH   5  10
ATOM     10  O   UNL d   1      28.413 -14.762   6.390  0.00  0.00    -0.361 OA
ATOM     11  H   UNL d   1      28.848 -15.575   6.709  0.00  0.00     0.217 HD
ENDBRANCH   5  10
BRANCH   7  12
ATOM     12  O   UNL d   1      27.104 -13.860   1.869  0.00  0.00    -0.360 OA
ATOM     13  H   UNL d   1      26.930 -14.667   1.354  0.00  0.00     0.217 HD
ENDBRANCH   7  12
ENDBRANCH   1   2
BRANCH   1  14
ATOM     14  C   UNL d   1      30.848 -14.761   0.375  0.00  0.00     0.245 C 
ATOM     15  O   UNL d   1      31.610 -14.450  -0.513  0.00  0.00    -0.271 OA
ATOM     16  N   UNL d   1      30.933 -16.023   0.938  0.00  0.00    -0.354 N 
ATOM     17  H   UNL d   1      30.094 -16.412   1.355  0.00  0.00     0.162 HD
BRANCH  16  18
ATOM     18  C   UNL d   1      32.008 -16.908   0.477  0.00  0.00     0.084 C 
ATOM     19  C   UNL d   1      32.637 -17.725   1.629  0.00  0.00     0.025 C 
ATOM     20  C   UNL d   1      33.660 -18.740   1.129  0.00  0.00     0.002 C 
ATOM     21  C   UNL d   1      33.077 -19.646   0.048  0.00  0.00     0.000 C 
ATOM     22  C   UNL d   1      32.545 -18.825  -1.122  0.00  0.00     0.002 C 
ATOM     23  C   UNL d   1      31.500 -17.825  -0.659  0.00  0.00     0.025 C 
ENDBRANCH  16  18
ENDBRANCH   1  14
BRANCH   1  24
ATOM     24  N   UNL d   1      28.613 -13.749  -0.153  0.00  0.00    -0.331 N 
ATOM     25  C   UNL d   1      27.977 -15.017  -0.386  0.00  0.00     0.265 C 
ATOM     26  O   UNL d   1      28.364 -15.995   0.277  0.00  0.00    -0.269 OA
BRANCH  24  27
ATOM     27  C   UNL d   1      28.334 -12.430  -0.844  0.00  0.00     0.127 C 
BRANCH  27  28
ATOM     28  C   UNL d   1      28.238 -12.378  -2.299  0.00  0.00     0.015 C 
ATOM     29  C   UNL d   1      26.987 -11.884  -2.952  0.00  0.00     0.006 C 
ENDBRANCH  27  28
ENDBRANCH  24  27
BRANCH  25  30
ATOM     30  C   UNL d   1      26.648 -15.205  -1.371  0.00  0.00     0.194 C 
BRANCH  30  31
ATOM     31  O   UNL d   1      25.733 -14.131  -1.082  0.00  0.00    -0.371 OA
ATOM     32  H   UNL d   1      25.963 -13.810  -0.184  0.00  0.00     0.212 HD
ENDBRANCH  30  31
BRANCH  30  33
ATOM     33  C   UNL d   1      27.078 -15.385  -2.926  0.00  0.00    -0.010 C 
ATOM     34  C   UNL d   1      28.405 -15.615  -3.328  0.00  0.00     0.011 C 
ATOM     35  C   UNL d   1      28.770 -15.615  -4.681  0.00  0.00     0.001 C 
ATOM     36  C   UNL d   1      27.934 -15.032  -5.616  0.00  0.00     0.000 C 
ATOM     37  C   UNL d   1      26.657 -14.719  -5.223  0.00  0.00     0.001 C 
ATOM     38  C   UNL d   1      26.189 -15.241  -4.008  0.00  0.00     0.011 C 
ENDBRANCH  30  33
BRANCH  30  39
ATOM     39  C   UNL d   1      25.761 -16.376  -0.902  0.00  0.00    -0.010 C 
ATOM     40  C   UNL d   1      26.259 -17.514  -0.243  0.00  0.00     0.011 C 
ATOM     41  C   UNL d   1      25.400 -18.575   0.060  0.00  0.00     0.001 C 
ATOM     42  C   UNL d   1      24.050 -18.514  -0.293  0.00  0.00     0.000 C 
ATOM     43  C   UNL d   1      23.541 -17.384  -0.894  0.00  0.00     0.001 C 
ATOM     44  C   UNL d   1      24.378 -16.312  -1.079  0.00  0.00     0.011 C 
ENDBRANCH  30  39
ENDBRANCH  25  30
ENDBRANCH   1  24
TORSDOF 13
ENDMDL
MODEL 5
REMARK VINA RESULT:    -7.709      2.031      5.526
REMARK INTER + INTRA:         -16.262
REMARK INTER:                 -11.587
REMARK INTRA:                  -4.675
REMARK CONF_INDEPENDENT:        3.878
REMARK UNBOUND:                -4.675
REMARK  13 active torsions:
REMARK  status: ('A' for Active; 'I' for Inactive)
REMARK    1  A    between atoms: C_2  and  C_3 
REMARK    2  A    between atoms: C_3  and  N_4 
REMARK       I    between atoms: N_4  and  C_5 
REMARK    3  A    between atoms: C_21  and  N_4 
REMARK    4  A    between atoms: C_5  and  C_7 
REMARK    5  A    between atoms: C_7  and  O_8 
REMARK    6  A    between atoms: C_7  and  C_9 
REMARK    7  A    between atoms: C_7  and  C_15 
REMARK    8  A    between atoms: C_21  and  C_31 
REMARK    9  A    between atoms: C_21  and  C_22 
REMARK       I    between atoms: C_22  and  N_24 
REMARK   10  A    between atoms: N_24  and  C_25 
REMARK   11  A    between atoms: C_32  and  O_33 
REMARK   12  A    between atoms: C_35  and  O_36 
REMARK   13  A    between atoms: C_38  and  O_39 
ROOT
ATOM      1  C   UNL d   1      28.952 -14.925  -4.606  0.00  0.00     0.218 C 
ENDROOT
BRANCH   1   2
ATOM      2  C   UNL d   1      29.622 -16.261  -5.011  0.00  0.00     0.040 A 
ATOM      3  C   UNL d   1      30.203 -16.545  -6.252  0.00  0.00     0.080 A 
ATOM      4  C   UNL d   1      30.789 -17.746  -6.616  0.00  0.00     0.073 A 
ATOM      5  C   UNL d   1      30.928 -18.711  -5.654  0.00  0.00     0.071 A 
ATOM      6  C   UNL d   1      30.410 -18.503  -4.379  0.00  0.00     0.073 A 
ATOM      7  C   UNL d   1      29.761 -17.292  -4.066  0.00  0.00     0.080 A 
BRANCH   3   8
ATOM      8  O   UNL d   1      30.515 -15.577  -7.134  0.00  0.00    -0.360 OA
ATOM      9  H   UNL d   1      29.704 -15.622  -7.673  0.00  0.00     0.217 HD
ENDBRANCH   3   8
BRANCH   5  10
ATOM     10  O   UNL d   1      31.633 -19.841  -5.937  0.00  0.00    -0.361 OA
ATOM     11  H   UNL d   1      32.398 -19.869  -5.333  0.00  0.00     0.217 HD
ENDBRANCH   5  10
BRANCH   7  12
ATOM     12  O   UNL d   1      29.296 -17.079  -2.794  0.00  0.00    -0.360 OA
ATOM     13  H   UNL d   1      29.911 -16.477  -2.338  0.00  0.00     0.217 HD
ENDBRANCH   7  12
ENDBRANCH   1   2
BRANCH   1  14
ATOM     14  C   UNL d   1      28.679 -14.085  -5.886  0.00  0.00     0.245 C 
ATOM     15  O   UNL d   1      28.053 -14.545  -6.814  0.00  0.00    -0.271 OA
ATOM     16  N   UNL d   1      29.175 -12.795  -5.969  0.00  0.00    -0.354 N 
ATOM     17  H   UNL d   1      29.996 -12.568  -5.417  0.00  0.00     0.162 HD
BRANCH  16  18
ATOM     18  C   UNL d   1      28.848 -12.010  -7.163  0.00  0.00     0.084 C 
ATOM     19  C   UNL d   1      29.353 -12.672  -8.465  0.00  0.00     0.025 C 
ATOM     20  C   UNL d   1      28.895 -11.924  -9.713  0.00  0.00     0.002 C 
ATOM     21  C   UNL d   1      27.382 -11.726  -9.731  0.00  0.00     0.000 C 
ATOM     22  C   UNL d   1      26.914 -10.989  -8.482  0.00  0.00     0.002 C 
ATOM     23  C   UNL d   1      27.329 -11.728  -7.222  0.00  0.00     0.025 C 
ENDBRANCH  16  18
ENDBRANCH   1  14
BRANCH   1  24
ATOM     24  N   UNL d   1      27.647 -14.969  -3.776  0.00  0.00    -0.331 N 
ATOM     25  C   UNL d   1      27.818 -14.788  -2.360  0.00  0.00     0.265 C 
ATOM     26  O   UNL d   1      28.966 -14.575  -1.934  0.00  0.00    -0.269 OA
BRANCH  24  27
ATOM     27  C   UNL d   1      26.363 -15.258  -4.526  0.00  0.00     0.127 C 
BRANCH  27  28
ATOM     28  C   UNL d   1      25.279 -14.281  -4.515  0.00  0.00     0.015 C 
ATOM     29  C   UNL d   1      25.588 -12.818  -4.557  0.00  0.00     0.006 C 
ENDBRANCH  27  28
ENDBRANCH  24  27
BRANCH  25  30
ATOM     30  C   UNL d   1      26.545 -14.685  -1.292  0.00  0.00     0.194 C 
BRANCH  30  31
ATOM     31  O   UNL d   1      25.772 -13.523  -1.643  0.00  0.00    -0.371 OA
ATOM     32  H   UNL d   1      26.408 -12.870  -2.005  0.00  0.00     0.212 HD
ENDBRANCH  30  31
BRANCH  30  33
ATOM     33  C   UNL d   1      25.733 -16.087  -1.194  0.00  0.00    -0.010 C 
ATOM     34  C   UNL d   1      24.368 -16.200  -1.508  0.00  0.00     0.011 C 
ATOM     35  C   UNL d   1      23.658 -17.386  -1.270  0.00  0.00     0.001 C 
ATOM     36  C   UNL d   1      24.172 -18.328  -0.398  0.00  0.00     0.000 C 
ATOM     37  C   UNL d   1      25.482 -18.192  -0.010  0.00  0.00     0.001 C 
ATOM     38  C   UNL d   1      26.291 -17.285  -0.710  0.00  0.00     0.011 C 
ENDBRANCH  30  33
BRANCH  30  39
ATOM     39  C   UNL d   1      27.016 -14.219   0.100  0.00  0.00    -0.010 C 
ATOM     40  C   UNL d   1      27.853 -14.981   0.935  0.00  0.00     0.011 C 
ATOM     41  C   UNL d   1      28.151 -14.526   2.224  0.00  0.00     0.001 C 
ATOM     42  C   UNL d   1      27.620 -13.321   2.689  0.00  0.00     0.000 C 
ATOM     43  C   UNL d   1      26.840 -12.543   1.863  0.00  0.00     0.001 C 
ATOM     44  C   UNL d   1      26.653 -12.954   0.566  0.00  0.00     0.011 C 
ENDBRANCH  30  39
ENDBRANCH  25  30
ENDBRANCH   1  24
TORSDOF 13
ENDMDL
MODEL 6
REMARK VINA RESULT:    -7.529      3.522      7.579
REMARK INTER + INTRA:         -16.733
REMARK INTER:                 -11.407
REMARK INTRA:                  -5.326
REMARK CONF_INDEPENDENT:        3.878
REMARK UNBOUND:                -5.326
REMARK  13 active torsions:
REMARK  status: ('A' for Active; 'I' for Inactive)
REMARK    1  A    between atoms: C_2  and  C_3 
REMARK    2  A    between atoms: C_3  and  N_4 
REMARK       I    between atoms: N_4  and  C_5 
REMARK    3  A    between atoms: C_21  and  N_4 
REMARK    4  A    between atoms: C_5  and  C_7 
REMARK    5  A    between atoms: C_7  and  O_8 
REMARK    6  A    between atoms: C_7  and  C_9 
REMARK    7  A    between atoms: C_7  and  C_15 
REMARK    8  A    between atoms: C_21  and  C_31 
REMARK    9  A    between atoms: C_21  and  C_22 
REMARK       I    between atoms: C_22  and  N_24 
REMARK   10  A    between atoms: N_24  and  C_25 
REMARK   11  A    between atoms: C_32  and  O_33 
REMARK   12  A    between atoms: C_35  and  O_36 
REMARK   13  A    between atoms: C_38  and  O_39 
ROOT
ATOM      1  C   UNL d   1      27.379 -13.658   1.808  0.00  0.00     0.218 C 
ENDROOT
BRANCH   1   2
ATOM      2  C   UNL d   1      28.853 -13.857   2.241  0.00  0.00     0.040 A 
ATOM      3  C   UNL d   1      29.285 -14.412   3.451  0.00  0.00     0.080 A 
ATOM      4  C   UNL d   1      30.604 -14.577   3.841  0.00  0.00     0.073 A 
ATOM      5  C   UNL d   1      31.584 -14.287   2.931  0.00  0.00     0.071 A 
ATOM      6  C   UNL d   1      31.247 -13.761   1.687  0.00  0.00     0.073 A 
ATOM      7  C   UNL d   1      29.895 -13.547   1.352  0.00  0.00     0.080 A 
BRANCH   3   8
ATOM      8  O   UNL d   1      28.461 -15.117   4.250  0.00  0.00    -0.360 OA
ATOM      9  H   UNL d   1      28.203 -15.800   3.605  0.00  0.00     0.217 HD
ENDBRANCH   3   8
BRANCH   5  10
ATOM     10  O   UNL d   1      32.880 -14.579   3.227  0.00  0.00    -0.361 OA
ATOM     11  H   UNL d   1      33.220 -13.864   3.797  0.00  0.00     0.217 HD
ENDBRANCH   5  10
BRANCH   7  12
ATOM     12  O   UNL d   1      29.571 -13.072   0.106  0.00  0.00    -0.360 OA
ATOM     13  H   UNL d   1      29.579 -13.818  -0.519  0.00  0.00     0.217 HD
ENDBRANCH   7  12
ENDBRANCH   1   2
BRANCH   1  14
ATOM     14  C   UNL d   1      27.099 -12.137   1.644  0.00  0.00     0.245 C 
ATOM     15  O   UNL d   1      25.973 -11.698   1.712  0.00  0.00    -0.271 OA
ATOM     16  N   UNL d   1      28.155 -11.275   1.401  0.00  0.00    -0.354 N 
ATOM     17  H   UNL d   1      28.984 -11.657   0.957  0.00  0.00     0.162 HD
BRANCH  16  18
ATOM     18  C   UNL d   1      27.863  -9.841   1.312  0.00  0.00     0.084 C 
ATOM     19  C   UNL d   1      27.015  -9.484   0.071  0.00  0.00     0.025 C 
ATOM     20  C   UNL d   1      26.601  -8.016   0.053  0.00  0.00     0.002 C 
ATOM     21  C   UNL d   1      25.904  -7.609   1.348  0.00  0.00     0.000 C 
ATOM     22  C   UNL d   1      26.795  -7.883   2.555  0.00  0.00     0.002 C 
ATOM     23  C   UNL d   1      27.199  -9.346   2.617  0.00  0.00     0.025 C 
ENDBRANCH  16  18
ENDBRANCH   1  14
BRANCH   1  24
ATOM     24  N   UNL d   1      26.875 -14.377   0.534  0.00  0.00    -0.331 N 
ATOM     25  C   UNL d   1      27.091 -15.798   0.511  0.00  0.00     0.265 C 
ATOM     26  O   UNL d   1      27.613 -16.325   1.508  0.00  0.00    -0.269 OA
BRANCH  24  27
ATOM     27  C   UNL d   1      26.281 -13.510  -0.557  0.00  0.00     0.127 C 
BRANCH  27  28
ATOM     28  C   UNL d   1      27.157 -12.860  -1.526  0.00  0.00     0.015 C 
ATOM     29  C   UNL d   1      26.576 -12.169  -2.718  0.00  0.00     0.006 C 
ENDBRANCH  27  28
ENDBRANCH  24  27
BRANCH  25  30
ATOM     30  C   UNL d   1      26.528 -16.787  -0.705  0.00  0.00     0.194 C 
BRANCH  30  31
ATOM     31  O   UNL d   1      27.475 -17.859  -0.871  0.00  0.00    -0.371 OA
ATOM     32  H   UNL d   1      28.001 -17.890  -0.044  0.00  0.00     0.212 HD
ENDBRANCH  30  31
BRANCH  30  33
ATOM     33  C   UNL d   1      24.985 -17.223  -0.453  0.00  0.00    -0.010 C 
ATOM     34  C   UNL d   1      24.581 -18.564  -0.334  0.00  0.00     0.011 C 
ATOM     35  C   UNL d   1      23.225 -18.917  -0.270  0.00  0.00     0.001 C 
ATOM     36  C   UNL d   1      22.263 -18.016  -0.689  0.00  0.00     0.000 C 
ATOM     37  C   UNL d   1      22.651 -16.716  -0.894  0.00  0.00     0.001 C 
ATOM     38  C   UNL d   1      23.909 -16.315  -0.420  0.00  0.00     0.011 C 
ENDBRANCH  30  33
BRANCH  30  39
ATOM     39  C   UNL d   1      26.701 -16.130  -2.089  0.00  0.00    -0.010 C 
ATOM     40  C   UNL d   1      25.625 -15.726  -2.899  0.00  0.00     0.011 C 
ATOM     41  C   UNL d   1      25.870 -15.229  -4.183  0.00  0.00     0.001 C 
ATOM     42  C   UNL d   1      27.176 -15.136  -4.669  0.00  0.00     0.000 C 
ATOM     43  C   UNL d   1      28.240 -15.483  -3.866  0.00  0.00     0.001 C 
ATOM     44  C   UNL d   1      27.983 -15.860  -2.571  0.00  0.00     0.011 C 
ENDBRANCH  30  39
ENDBRANCH  25  30
ENDBRANCH   1  24
TORSDOF 13
ENDMDL
MODEL 7
REMARK VINA RESULT:    -7.438      2.993      6.079
REMARK INTER + INTRA:         -16.732
REMARK INTER:                 -11.316
REMARK INTRA:                  -5.415
REMARK CONF_INDEPENDENT:        3.878
REMARK UNBOUND:                -5.415
REMARK  13 active torsions:
REMARK  status: ('A' for Active; 'I' for Inactive)
REMARK    1  A    between atoms: C_2  and  C_3 
REMARK    2  A    between atoms: C_3  and  N_4 
REMARK       I    between atoms: N_4  and  C_5 
REMARK    3  A    between atoms: C_21  and  N_4 
REMARK    4  A    between atoms: C_5  and  C_7 
REMARK    5  A    between atoms: C_7  and  O_8 
REMARK    6  A    between atoms: C_7  and  C_9 
REMARK    7  A    between atoms: C_7  and  C_15 
REMARK    8  A    between atoms: C_21  and  C_31 
REMARK    9  A    between atoms: C_21  and  C_22 
REMARK       I    between atoms: C_22  and  N_24 
REMARK   10  A    between atoms: N_24  and  C_25 
REMARK   11  A    between atoms: C_32  and  O_33 
REMARK   12  A    between atoms: C_35  and  O_36 
REMARK   13  A    between atoms: C_38  and  O_39 
ROOT
ATOM      1  C   UNL d   1      28.972 -15.579  -5.996  0.00  0.00     0.218 C 
ENDROOT
BRANCH   1   2
ATOM      2  C   UNL d   1      29.782 -14.576  -6.853  0.00  0.00     0.040 A 
ATOM      3  C   UNL d   1      31.078 -14.773  -7.343  0.00  0.00     0.080 A 
ATOM      4  C   UNL d   1      31.805 -13.868  -8.099  0.00  0.00     0.073 A 
ATOM      5  C   UNL d   1      31.176 -12.724  -8.512  0.00  0.00     0.071 A 
ATOM      6  C   UNL d   1      29.873 -12.459  -8.101  0.00  0.00     0.073 A 
ATOM      7  C   UNL d   1      29.189 -13.375  -7.278  0.00  0.00     0.080 A 
BRANCH   3   8
ATOM      8  O   UNL d   1      31.652 -15.991  -7.378  0.00  0.00    -0.360 OA
ATOM      9  H   UNL d   1      31.795 -16.098  -6.420  0.00  0.00     0.217 HD
ENDBRANCH   3   8
BRANCH   5  10
ATOM     10  O   UNL d   1      31.810 -11.887  -9.378  0.00  0.00    -0.361 OA
ATOM     11  H   UNL d   1      31.739 -12.277 -10.269  0.00  0.00     0.217 HD
ENDBRANCH   5  10
BRANCH   7  12
ATOM     12  O   UNL d   1      27.889 -13.126  -6.917  0.00  0.00    -0.360 OA
ATOM     13  H   UNL d   1      27.414 -13.974  -6.872  0.00  0.00     0.217 HD
ENDBRANCH   7  12
ENDBRANCH   1   2
BRANCH   1  14
ATOM     14  C   UNL d   1      29.920 -16.711  -5.507  0.00  0.00     0.245 C 
ATOM     15  O   UNL d   1      30.420 -16.675  -4.405  0.00  0.00    -0.271 OA
ATOM     16  N   UNL d   1      30.208 -17.767  -6.354  0.00  0.00    -0.354 N 
ATOM     17  H   UNL d   1      30.137 -17.605  -7.353  0.00  0.00     0.162 HD
BRANCH  16  18
ATOM     18  C   UNL d   1      31.056 -18.847  -5.839  0.00  0.00     0.084 C 
ATOM     19  C   UNL d   1      30.410 -19.593  -4.650  0.00  0.00     0.025 C 
ATOM     20  C   UNL d   1      31.232 -20.798  -4.205  0.00  0.00     0.002 C 
ATOM     21  C   UNL d   1      31.530 -21.741  -5.368  0.00  0.00     0.000 C 
ATOM     22  C   UNL d   1      32.251 -21.007  -6.493  0.00  0.00     0.002 C 
ATOM     23  C   UNL d   1      31.440 -19.818  -6.979  0.00  0.00     0.025 C 
ENDBRANCH  16  18
ENDBRANCH   1  14
BRANCH   1  24
ATOM     24  N   UNL d   1      28.189 -15.049  -4.771  0.00  0.00    -0.331 N 
ATOM     25  C   UNL d   1      26.758 -15.090  -4.898  0.00  0.00     0.265 C 
ATOM     26  O   UNL d   1      26.278 -15.574  -5.937  0.00  0.00    -0.269 OA
BRANCH  24  27
ATOM     27  C   UNL d   1      29.004 -14.494  -3.621  0.00  0.00     0.127 C 
BRANCH  27  28
ATOM     28  C   UNL d   1      29.857 -13.328  -3.832  0.00  0.00     0.015 C 
ATOM     29  C   UNL d   1      31.336 -13.434  -3.632  0.00  0.00     0.006 C 
ENDBRANCH  27  28
ENDBRANCH  24  27
BRANCH  25  30
ATOM     30  C   UNL d   1      25.720 -14.678  -3.663  0.00  0.00     0.194 C 
BRANCH  30  31
ATOM     31  O   UNL d   1      24.465 -14.293  -4.255  0.00  0.00    -0.371 OA
ATOM     32  H   UNL d   1      24.584 -14.375  -5.225  0.00  0.00     0.212 HD
ENDBRANCH  30  31
BRANCH  30  33
ATOM     33  C   UNL d   1      25.655 -15.836  -2.527  0.00  0.00    -0.010 C 
ATOM     34  C   UNL d   1      24.453 -16.248  -1.927  0.00  0.00     0.011 C 
ATOM     35  C   UNL d   1      24.443 -17.139  -0.845  0.00  0.00     0.001 C 
ATOM     36  C   UNL d   1      25.599 -17.340  -0.114  0.00  0.00     0.000 C 
ATOM     37  C   UNL d   1      26.777 -16.871  -0.639  0.00  0.00     0.001 C 
ATOM     38  C   UNL d   1      26.790 -16.464  -1.981  0.00  0.00     0.011 C 
ENDBRANCH  30  33
BRANCH  30  39
ATOM     39  C   UNL d   1      26.094 -13.315  -3.046  0.00  0.00    -0.010 C 
ATOM     40  C   UNL d   1      25.925 -12.087  -3.710  0.00  0.00     0.011 C 
ATOM     41  C   UNL d   1      26.384 -10.906  -3.116  0.00  0.00     0.001 C 
ATOM     42  C   UNL d   1      27.012 -10.939  -1.869  0.00  0.00     0.000 C 
ATOM     43  C   UNL d   1      27.138 -12.130  -1.188  0.00  0.00     0.001 C 
ATOM     44  C   UNL d   1      26.581 -13.257  -1.739  0.00  0.00     0.011 C 
ENDBRANCH  30  39
ENDBRANCH  25  30
ENDBRANCH   1  24
TORSDOF 13
ENDMDL
MODEL 8
REMARK VINA RESULT:    -6.862      2.529      6.084
REMARK INTER + INTRA:         -16.369
REMARK INTER:                 -10.740
REMARK INTRA:                  -5.629
REMARK CONF_INDEPENDENT:        3.878
REMARK UNBOUND:                -5.629
REMARK  13 active torsions:
REMARK  status: ('A' for Active; 'I' for Inactive)
REMARK    1  A    between atoms: C_2  and  C_3 
REMARK    2  A    between atoms: C_3  and  N_4 
REMARK       I    between atoms: N_4  and  C_5 
REMARK    3  A    between atoms: C_21  and  N_4 
REMARK    4  A    between atoms: C_5  and  C_7 
REMARK    5  A    between atoms: C_7  and  O_8 
REMARK    6  A    between atoms: C_7  and  C_9 
REMARK    7  A    between atoms: C_7  and  C_15 
REMARK    8  A    between atoms: C_21  and  C_31 
REMARK    9  A    between atoms: C_21  and  C_22 
REMARK       I    between atoms: C_22  and  N_24 
REMARK   10  A    between atoms: N_24  and  C_25 
REMARK   11  A    between atoms: C_32  and  O_33 
REMARK   12  A    between atoms: C_35  and  O_36 
REMARK   13  A    between atoms: C_38  and  O_39 
ROOT
ATOM      1  C   UNL d   1      26.728 -16.111  -1.339  0.00  0.00     0.218 C 
ENDROOT
BRANCH   1   2
ATOM      2  C   UNL d   1      25.406 -16.729  -0.820  0.00  0.00     0.040 A 
ATOM      3  C   UNL d   1      24.121 -16.219  -1.038  0.00  0.00     0.080 A 
ATOM      4  C   UNL d   1      22.941 -16.767  -0.562  0.00  0.00     0.073 A 
ATOM      5  C   UNL d   1      23.007 -17.975   0.080  0.00  0.00     0.071 A 
ATOM      6  C   UNL d   1      24.241 -18.575   0.311  0.00  0.00     0.073 A 
ATOM      7  C   UNL d   1      25.425 -17.953  -0.132  0.00  0.00     0.080 A 
BRANCH   3   8
ATOM      8  O   UNL d   1      23.868 -15.295  -1.985  0.00  0.00    -0.360 OA
ATOM      9  H   UNL d   1      24.063 -15.846  -2.764  0.00  0.00     0.217 HD
ENDBRANCH   3   8
BRANCH   5  10
ATOM     10  O   UNL d   1      21.855 -18.612   0.426  0.00  0.00    -0.361 OA
ATOM     11  H   UNL d   1      22.076 -19.545   0.605  0.00  0.00     0.217 HD
ENDBRANCH   5  10
BRANCH   7  12
ATOM     12  O   UNL d   1      26.633 -18.575   0.060  0.00  0.00    -0.360 OA
ATOM     13  H   UNL d   1      27.338 -17.985  -0.260  0.00  0.00     0.217 HD
ENDBRANCH   7  12
ENDBRANCH   1   2
BRANCH   1  14
ATOM     14  C   UNL d   1      26.476 -15.467  -2.732  0.00  0.00     0.245 C 
ATOM     15  O   UNL d   1      25.684 -15.951  -3.510  0.00  0.00    -0.271 OA
ATOM     16  N   UNL d   1      27.181 -14.331  -3.091  0.00  0.00    -0.354 N 
ATOM     17  H   UNL d   1      28.081 -14.175  -2.652  0.00  0.00     0.162 HD
BRANCH  16  18
ATOM     18  C   UNL d   1      26.874 -13.715  -4.387  0.00  0.00     0.084 C 
ATOM     19  C   UNL d   1      26.104 -12.383  -4.242  0.00  0.00     0.025 C 
ATOM     20  C   UNL d   1      25.906 -11.679  -5.581  0.00  0.00     0.002 C 
ATOM     21  C   UNL d   1      27.226 -11.490  -6.322  0.00  0.00     0.000 C 
ATOM     22  C   UNL d   1      27.926 -12.828  -6.537  0.00  0.00     0.002 C 
ATOM     23  C   UNL d   1      28.166 -13.539  -5.217  0.00  0.00     0.025 C 
ENDBRANCH  16  18
ENDBRANCH   1  14
BRANCH   1  24
ATOM     24  N   UNL d   1      27.459 -15.070  -0.456  0.00  0.00    -0.331 N 
ATOM     25  C   UNL d   1      28.635 -15.556   0.211  0.00  0.00     0.265 C 
ATOM     26  O   UNL d   1      28.985 -16.729  -0.002  0.00  0.00    -0.269 OA
BRANCH  24  27
ATOM     27  C   UNL d   1      26.827 -13.698  -0.344  0.00  0.00     0.127 C 
BRANCH  27  28
ATOM     28  C   UNL d   1      26.280 -13.253   0.934  0.00  0.00     0.015 C 
ATOM     29  C   UNL d   1      26.655 -11.915   1.486  0.00  0.00     0.006 C 
ENDBRANCH  27  28
ENDBRANCH  24  27
BRANCH  25  30
ATOM     30  C   UNL d   1      29.639 -14.583   1.117  0.00  0.00     0.194 C 
BRANCH  30  31
ATOM     31  O   UNL d   1      30.840 -15.327   1.390  0.00  0.00    -0.371 OA
ATOM     32  H   UNL d   1      30.574 -16.270   1.435  0.00  0.00     0.212 HD
ENDBRANCH  30  31
BRANCH  30  33
ATOM     33  C   UNL d   1      29.836 -13.126   0.430  0.00  0.00    -0.010 C 
ATOM     34  C   UNL d   1      29.842 -11.930   1.168  0.00  0.00     0.011 C 
ATOM     35  C   UNL d   1      29.861 -10.679   0.535  0.00  0.00     0.001 C 
ATOM     36  C   UNL d   1      29.504 -10.581  -0.797  0.00  0.00     0.000 C 
ATOM     37  C   UNL d   1      29.409 -11.743  -1.520  0.00  0.00     0.001 C 
ATOM     38  C   UNL d   1      29.929 -12.919  -0.960  0.00  0.00     0.011 C 
ENDBRANCH  30  33
BRANCH  30  39
ATOM     39  C   UNL d   1      29.132 -14.450   2.567  0.00  0.00    -0.010 C 
ATOM     40  C   UNL d   1      27.802 -14.691   2.952  0.00  0.00     0.011 C 
ATOM     41  C   UNL d   1      27.405 -14.450   4.272  0.00  0.00     0.001 C 
ATOM     42  C   UNL d   1      28.321 -13.966   5.209  0.00  0.00     0.000 C 
ATOM     43  C   UNL d   1      29.638 -13.773   4.854  0.00  0.00     0.001 C 
ATOM     44  C   UNL d   1      30.029 -14.123   3.586  0.00  0.00     0.011 C 
ENDBRANCH  30  39
ENDBRANCH  25  30
ENDBRANCH   1  24
TORSDOF 13
ENDMDL
MODEL 9
REMARK VINA RESULT:    -6.737      2.801      7.990
REMARK INTER + INTRA:         -16.766
REMARK INTER:                 -10.615
REMARK INTRA:                  -6.151
REMARK CONF_INDEPENDENT:        3.878
REMARK UNBOUND:                -6.151
REMARK  13 active torsions:
REMARK  status: ('A' for Active; 'I' for Inactive)
REMARK    1  A    between atoms: C_2  and  C_3 
REMARK    2  A    between atoms: C_3  and  N_4 
REMARK       I    between atoms: N_4  and  C_5 
REMARK    3  A    between atoms: C_21  and  N_4 
REMARK    4  A    between atoms: C_5  and  C_7 
REMARK    5  A    between atoms: C_7  and  O_8 
REMARK    6  A    between atoms: C_7  and  C_9 
REMARK    7  A    between atoms: C_7  and  C_15 
REMARK    8  A    between atoms: C_21  and  C_31 
REMARK    9  A    between atoms: C_21  and  C_22 
REMARK       I    between atoms: C_22  and  N_24 
REMARK   10  A    between atoms: N_24  and  C_25 
REMARK   11  A    between atoms: C_32  and  O_33 
REMARK   12  A    between atoms: C_35  and  O_36 
REMARK   13  A    between atoms: C_38  and  O_39 
ROOT
ATOM      1  C   UNL d   1      29.157 -15.528  -0.250  0.00  0.00     0.218 C 
ENDROOT
BRANCH   1   2
ATOM      2  C   UNL d   1      29.829 -14.697   0.870  0.00  0.00     0.040 A 
ATOM      3  C   UNL d   1      29.314 -13.531   1.450  0.00  0.00     0.080 A 
ATOM      4  C   UNL d   1      29.924 -12.783   2.442  0.00  0.00     0.073 A 
ATOM      5  C   UNL d   1      31.074 -13.272   3.001  0.00  0.00     0.071 A 
ATOM      6  C   UNL d   1      31.643 -14.444   2.512  0.00  0.00     0.073 A 
ATOM      7  C   UNL d   1      31.026 -15.143   1.455  0.00  0.00     0.080 A 
BRANCH   3   8
ATOM      8  O   UNL d   1      28.024 -13.171   1.307  0.00  0.00    -0.360 OA
ATOM      9  H   UNL d   1      27.620 -13.962   1.707  0.00  0.00     0.217 HD
ENDBRANCH   3   8
BRANCH   5  10
ATOM     10  O   UNL d   1      31.616 -12.640   4.079  0.00  0.00    -0.361 OA
ATOM     11  H   UNL d   1      31.849 -13.324   4.734  0.00  0.00     0.217 HD
ENDBRANCH   5  10
BRANCH   7  12
ATOM     12  O   UNL d   1      31.569 -16.323   1.012  0.00  0.00    -0.360 OA
ATOM     13  H   UNL d   1      31.031 -17.058   1.356  0.00  0.00     0.217 HD
ENDBRANCH   7  12
ENDBRANCH   1   2
BRANCH   1  14
ATOM     14  C   UNL d   1      27.708 -15.889   0.185  0.00  0.00     0.245 C 
ATOM     15  O   UNL d   1      27.337 -15.718   1.325  0.00  0.00    -0.271 OA
ATOM     16  N   UNL d   1      26.835 -16.427  -0.744  0.00  0.00    -0.354 N 
ATOM     17  H   UNL d   1      27.233 -16.927  -1.532  0.00  0.00     0.162 HD
BRANCH  16  18
ATOM     18  C   UNL d   1      25.459 -16.698  -0.316  0.00  0.00     0.084 C 
ATOM     19  C   UNL d   1      24.410 -16.077  -1.266  0.00  0.00     0.025 C 
ATOM     20  C   UNL d   1      22.984 -16.473  -0.894  0.00  0.00     0.002 C 
ATOM     21  C   UNL d   1      22.826 -17.988  -0.792  0.00  0.00     0.000 C 
ATOM     22  C   UNL d   1      23.807 -18.571   0.218  0.00  0.00     0.002 C 
ATOM     23  C   UNL d   1      25.240 -18.219  -0.144  0.00  0.00     0.025 C 
ENDBRANCH  16  18
ENDBRANCH   1  14
BRANCH   1  24
ATOM     24  N   UNL d   1      29.094 -14.937  -1.679  0.00  0.00    -0.331 N 
ATOM     25  C   UNL d   1      29.058 -15.907  -2.738  0.00  0.00     0.265 C 
ATOM     26  O   UNL d   1      29.038 -17.110  -2.428  0.00  0.00    -0.269 OA
BRANCH  24  27
ATOM     27  C   UNL d   1      29.143 -13.427  -1.802  0.00  0.00     0.127 C 
BRANCH  27  28
ATOM     28  C   UNL d   1      27.950 -12.637  -1.518  0.00  0.00     0.015 C 
ATOM     29  C   UNL d   1      26.616 -13.303  -1.408  0.00  0.00     0.006 C 
ENDBRANCH  27  28
ENDBRANCH  24  27
BRANCH  25  30
ATOM     30  C   UNL d   1      28.873 -15.500  -4.343  0.00  0.00     0.194 C 
BRANCH  30  31
ATOM     31  O   UNL d   1      29.040 -16.700  -5.121  0.00  0.00    -0.371 OA
ATOM     32  H   UNL d   1      29.277 -17.408  -4.485  0.00  0.00     0.212 HD
ENDBRANCH  30  31
BRANCH  30  33
ATOM     33  C   UNL d   1      27.505 -14.664  -4.593  0.00  0.00    -0.010 C 
ATOM     34  C   UNL d   1      27.491 -13.281  -4.840  0.00  0.00     0.011 C 
ATOM     35  C   UNL d   1      26.290 -12.560  -4.902  0.00  0.00     0.001 C 
ATOM     36  C   UNL d   1      25.138 -13.103  -4.363  0.00  0.00     0.000 C 
ATOM     37  C   UNL d   1      25.153 -14.435  -4.033  0.00  0.00     0.001 C 
ATOM     38  C   UNL d   1      26.216 -15.223  -4.499  0.00  0.00     0.011 C 
ENDBRANCH  30  33
BRANCH  30  39
ATOM     39  C   UNL d   1      30.100 -14.728  -4.871  0.00  0.00    -0.010 C 
ATOM     40  C   UNL d   1      31.213 -14.398  -4.077  0.00  0.00     0.011 C 
ATOM     41  C   UNL d   1      32.237 -13.609  -4.610  0.00  0.00     0.001 C 
ATOM     42  C   UNL d   1      32.161 -13.144  -5.925  0.00  0.00     0.000 C 
ATOM     43  C   UNL d   1      31.100 -13.502  -6.726  0.00  0.00     0.001 C 
ATOM     44  C   UNL d   1      30.163 -14.368  -6.218  0.00  0.00     0.011 C 
ENDBRANCH  30  39
ENDBRANCH  25  30
ENDBRANCH   1  24
TORSDOF 13
ENDMDL
