MODEL 1
REMARK VINA RESULT:    -9.495      0.000      0.000
REMARK INTER + INTRA:         -12.858
REMARK INTER:                 -11.583
REMARK INTRA:                  -1.276
REMARK CONF_INDEPENDENT:        2.088
REMARK UNBOUND:                -1.276
REMARK  7 active torsions:
REMARK  status: ('A' for Active; 'I' for Inactive)
REMARK    1  A    between atoms: C_5  and  C_6 
REMARK       I    between atoms: C_6  and  N_8 
REMARK    2  A    between atoms: N_8  and  N_9 
REMARK       I    between atoms: N_9  and  C_10 
REMARK    3  A    between atoms: C_10  and  C_12 
REMARK    4  A    between atoms: C_12  and  C_13 
REMARK    5  A    between atoms: C_13  and  C_14 
REMARK    6  A    between atoms: C_18  and  N_19 
REMARK       I    between atoms: N_19  and  C_20 
REMARK    7  A    between atoms: C_20  and  C_22 
ROOT
ATOM      1  C   UNL d   1      29.470 -16.917  -1.294  0.00  0.00     0.050 C 
ATOM      2  C   UNL d   1      27.982 -16.857  -1.239  0.00  0.00    -0.035 A 
ATOM      3  C   UNL d   1      27.423 -17.465  -0.107  0.00  0.00     0.010 A 
ATOM      4  C   UNL d   1      26.050 -17.507   0.085  0.00  0.00     0.018 A 
ATOM      5  C   UNL d   1      25.185 -16.936  -0.857  0.00  0.00     0.035 A 
ATOM      6  C   UNL d   1      25.754 -16.308  -2.001  0.00  0.00     0.047 A 
ATOM      7  C   UNL d   1      27.166 -16.260  -2.220  0.00  0.00     0.042 A 
ENDROOT
BRANCH   5   8
ATOM      8  C   UNL d   1      23.699 -17.055  -0.564  0.00  0.00     0.270 C 
ATOM      9  O   UNL d   1      22.935 -16.129  -0.836  0.00  0.00    -0.266 OA
ATOM     10  N   UNL d   1      23.233 -18.224   0.017  0.00  0.00    -0.263 N 
ATOM     11  H   UNL d   1      23.812 -19.017   0.269  0.00  0.00     0.190 HD
BRANCH  10  12
ATOM     12  N   UNL d   1      21.854 -18.373   0.324  0.00  0.00    -0.267 N 
ATOM     13  C   UNL d   1      21.017 -18.825  -0.685  0.00  0.00     0.236 C 
ATOM     14  O   UNL d   1      21.450 -19.089  -1.807  0.00  0.00    -0.272 OA
ATOM     15  H   UNL d   1      21.553 -18.127   1.266  0.00  0.00     0.190 HD
BRANCH  13  16
ATOM     16  C   UNL d   1      19.544 -18.951  -0.310  0.00  0.00     0.105 C 
BRANCH  16  17
ATOM     17  C   UNL d   1      19.146 -20.408  -0.007  0.00  0.00     0.013 C 
BRANCH  17  18
ATOM     18  C   UNL d   1      18.360 -20.582   1.307  0.00  0.00    -0.022 C 
ATOM     19  C   UNL d   1      17.685 -21.951   1.376  0.00  0.00     0.009 C 
ATOM     20  C   UNL d   1      19.293 -20.421   2.513  0.00  0.00     0.009 C 
ENDBRANCH  17  18
ENDBRANCH  16  17
ENDBRANCH  13  16
ENDBRANCH  10  12
ENDBRANCH   5   8
BRANCH   7  21
ATOM     21  N   UNL d   1      27.666 -15.617  -3.418  0.00  0.00    -0.321 N 
ATOM     22  C   UNL d   1      26.962 -14.976  -4.451  0.00  0.00     0.279 C 
ATOM     23  O   UNL d   1      25.749 -14.834  -4.578  0.00  0.00    -0.265 OA
ATOM     24  H   UNL d   1      28.675 -15.582  -3.506  0.00  0.00     0.169 HD
BRANCH  22  25
ATOM     25  C   UNL d   1      27.704 -14.420  -5.537  0.00  0.00     0.142 A 
ATOM     26  C   UNL d   1      27.922 -13.126  -5.946  0.00  0.00     0.045 A 
ATOM     27  C   UNL d   1      28.986 -13.187  -6.879  0.00  0.00     0.027 A 
ATOM     28  C   UNL d   1      29.375 -14.503  -6.957  0.00  0.00     0.143 A 
ATOM     29  O   UNL d   1      28.600 -15.257  -6.149  0.00  0.00    -0.317 OA
ENDBRANCH  22  25
ENDBRANCH   7  21
TORSDOF 7
ENDMDL
MODEL 2
REMARK VINA RESULT:    -9.269      3.274      9.649
REMARK INTER + INTRA:         -13.740
REMARK INTER:                 -11.357
REMARK INTRA:                  -2.383
REMARK CONF_INDEPENDENT:        2.088
REMARK UNBOUND:                -2.383
REMARK  7 active torsions:
REMARK  status: ('A' for Active; 'I' for Inactive)
REMARK    1  A    between atoms: C_5  and  C_6 
REMARK       I    between atoms: C_6  and  N_8 
REMARK    2  A    between atoms: N_8  and  N_9 
REMARK       I    between atoms: N_9  and  C_10 
REMARK    3  A    between atoms: C_10  and  C_12 
REMARK    4  A    between atoms: C_12  and  C_13 
REMARK    5  A    between atoms: C_13  and  C_14 
REMARK    6  A    between atoms: C_18  and  N_19 
REMARK       I    between atoms: N_19  and  C_20 
REMARK    7  A    between atoms: C_20  and  C_22 
ROOT
ATOM      1  C   UNL d   1      25.822 -18.498   0.632  0.00  0.00     0.050 C 
ATOM      2  C   UNL d   1      25.441 -17.441  -0.346  0.00  0.00    -0.035 A 
ATOM      3  C   UNL d   1      26.528 -16.764  -0.915  0.00  0.00     0.010 A 
ATOM      4  C   UNL d   1      26.340 -15.741  -1.833  0.00  0.00     0.018 A 
ATOM      5  C   UNL d   1      25.047 -15.360  -2.215  0.00  0.00     0.035 A 
ATOM      6  C   UNL d   1      23.943 -16.056  -1.645  0.00  0.00     0.047 A 
ATOM      7  C   UNL d   1      24.116 -17.109  -0.693  0.00  0.00     0.042 A 
ENDROOT
BRANCH   5   8
ATOM      8  C   UNL d   1      24.950 -14.215  -3.209  0.00  0.00     0.270 C 
ATOM      9  O   UNL d   1      24.405 -14.384  -4.300  0.00  0.00    -0.266 OA
ATOM     10  N   UNL d   1      25.491 -12.989  -2.857  0.00  0.00    -0.263 N 
ATOM     11  H   UNL d   1      25.956 -12.791  -1.978  0.00  0.00     0.190 HD
BRANCH  10  12
ATOM     12  N   UNL d   1      25.438 -11.894  -3.761  0.00  0.00    -0.267 N 
ATOM     13  C   UNL d   1      26.193 -10.772  -3.456  0.00  0.00     0.236 C 
ATOM     14  O   UNL d   1      26.887 -10.723  -2.439  0.00  0.00    -0.272 OA
ATOM     15  H   UNL d   1      24.836 -11.989  -4.578  0.00  0.00     0.190 HD
BRANCH  13  16
ATOM     16  C   UNL d   1      26.087  -9.618  -4.447  0.00  0.00     0.105 C 
BRANCH  16  17
ATOM     17  C   UNL d   1      24.780  -8.822  -4.270  0.00  0.00     0.013 C 
BRANCH  17  18
ATOM     18  C   UNL d   1      24.094  -8.439  -5.596  0.00  0.00    -0.022 C 
ATOM     19  C   UNL d   1      23.099  -7.297  -5.400  0.00  0.00     0.009 C 
ATOM     20  C   UNL d   1      25.140  -8.020  -6.636  0.00  0.00     0.009 C 
ENDBRANCH  17  18
ENDBRANCH  16  17
ENDBRANCH  13  16
ENDBRANCH  10  12
ENDBRANCH   5   8
BRANCH   7  21
ATOM     21  N   UNL d   1      22.941 -17.756  -0.147  0.00  0.00    -0.321 N 
ATOM     22  C   UNL d   1      22.079 -18.695  -0.737  0.00  0.00     0.279 C 
ATOM     23  O   UNL d   1      22.120 -19.166  -1.871  0.00  0.00    -0.265 OA
ATOM     24  H   UNL d   1      22.732 -17.537   0.820  0.00  0.00     0.169 HD
BRANCH  22  25
ATOM     25  C   UNL d   1      20.974 -19.181   0.026  0.00  0.00     0.142 A 
ATOM     26  C   UNL d   1      19.972 -20.077  -0.258  0.00  0.00     0.045 A 
ATOM     27  C   UNL d   1      19.368 -20.392   0.984  0.00  0.00     0.027 A 
ATOM     28  C   UNL d   1      20.057 -19.700   1.952  0.00  0.00     0.143 A 
ATOM     29  O   UNL d   1      21.030 -18.960   1.379  0.00  0.00    -0.317 OA
ENDBRANCH  22  25
ENDBRANCH   7  21
TORSDOF 7
ENDMDL
MODEL 3
REMARK VINA RESULT:    -8.888      2.416      9.570
REMARK INTER + INTRA:         -13.532
REMARK INTER:                 -10.976
REMARK INTRA:                  -2.556
REMARK CONF_INDEPENDENT:        2.088
REMARK UNBOUND:                -2.556
REMARK  7 active torsions:
REMARK  status: ('A' for Active; 'I' for Inactive)
REMARK    1  A    between atoms: C_5  and  C_6 
REMARK       I    between atoms: C_6  and  N_8 
REMARK    2  A    between atoms: N_8  and  N_9 
REMARK       I    between atoms: N_9  and  C_10 
REMARK    3  A    between atoms: C_10  and  C_12 
REMARK    4  A    between atoms: C_12  and  C_13 
REMARK    5  A    between atoms: C_13  and  C_14 
REMARK    6  A    between atoms: C_18  and  N_19 
REMARK       I    between atoms: N_19  and  C_20 
REMARK    7  A    between atoms: C_20  and  C_22 
ROOT
ATOM      1  C   UNL d   1      25.816 -18.512   0.633  0.00  0.00     0.050 C 
ATOM      2  C   UNL d   1      25.427 -17.462  -0.350  0.00  0.00    -0.035 A 
ATOM      3  C   UNL d   1      26.511 -16.791  -0.934  0.00  0.00     0.010 A 
ATOM      4  C   UNL d   1      26.316 -15.775  -1.858  0.00  0.00     0.018 A 
ATOM      5  C   UNL d   1      25.020 -15.396  -2.232  0.00  0.00     0.035 A 
ATOM      6  C   UNL d   1      23.921 -16.087  -1.648  0.00  0.00     0.047 A 
ATOM      7  C   UNL d   1      24.101 -17.132  -0.689  0.00  0.00     0.042 A 
ENDROOT
BRANCH   5   8
ATOM      8  C   UNL d   1      24.916 -14.260  -3.235  0.00  0.00     0.270 C 
ATOM      9  O   UNL d   1      24.409 -14.450  -4.341  0.00  0.00    -0.266 OA
ATOM     10  N   UNL d   1      25.407 -13.015  -2.874  0.00  0.00    -0.263 N 
ATOM     11  H   UNL d   1      25.839 -12.799  -1.983  0.00  0.00     0.190 HD
BRANCH  10  12
ATOM     12  N   UNL d   1      25.345 -11.927  -3.785  0.00  0.00    -0.267 N 
ATOM     13  C   UNL d   1      26.069 -10.786  -3.473  0.00  0.00     0.236 C 
ATOM     14  O   UNL d   1      26.743 -10.715  -2.444  0.00  0.00    -0.272 OA
ATOM     15  H   UNL d   1      24.761 -12.039  -4.613  0.00  0.00     0.190 HD
BRANCH  13  16
ATOM     16  C   UNL d   1      25.954  -9.640  -4.473  0.00  0.00     0.105 C 
BRANCH  16  17
ATOM     17  C   UNL d   1      26.904  -9.822  -5.672  0.00  0.00     0.013 C 
BRANCH  17  18
ATOM     18  C   UNL d   1      26.553 -11.022  -6.573  0.00  0.00    -0.022 C 
ATOM     19  C   UNL d   1      26.673 -10.663  -8.053  0.00  0.00     0.009 C 
ATOM     20  C   UNL d   1      27.476 -12.207  -6.268  0.00  0.00     0.009 C 
ENDBRANCH  17  18
ENDBRANCH  16  17
ENDBRANCH  13  16
ENDBRANCH  10  12
ENDBRANCH   5   8
BRANCH   7  21
ATOM     21  N   UNL d   1      22.929 -17.774  -0.128  0.00  0.00    -0.321 N 
ATOM     22  C   UNL d   1      22.071 -18.729  -0.697  0.00  0.00     0.279 C 
ATOM     23  O   UNL d   1      22.113 -19.223  -1.822  0.00  0.00    -0.265 OA
ATOM     24  H   UNL d   1      22.721 -17.535   0.835  0.00  0.00     0.169 HD
BRANCH  22  25
ATOM     25  C   UNL d   1      20.970 -19.204   0.078  0.00  0.00     0.142 A 
ATOM     26  C   UNL d   1      19.966 -20.103  -0.191  0.00  0.00     0.045 A 
ATOM     27  C   UNL d   1      19.368 -20.402   1.058  0.00  0.00     0.027 A 
ATOM     28  C   UNL d   1      20.063 -19.699   2.013  0.00  0.00     0.143 A 
ATOM     29  O   UNL d   1      21.033 -18.967   1.427  0.00  0.00    -0.317 OA
ENDBRANCH  22  25
ENDBRANCH   7  21
TORSDOF 7
ENDMDL
MODEL 4
REMARK VINA RESULT:    -8.371      3.504      9.753
REMARK INTER + INTRA:         -12.347
REMARK INTER:                 -10.459
REMARK INTRA:                  -1.888
REMARK CONF_INDEPENDENT:        2.088
REMARK UNBOUND:                -1.888
REMARK  7 active torsions:
REMARK  status: ('A' for Active; 'I' for Inactive)
REMARK    1  A    between atoms: C_5  and  C_6 
REMARK       I    between atoms: C_6  and  N_8 
REMARK    2  A    between atoms: N_8  and  N_9 
REMARK       I    between atoms: N_9  and  C_10 
REMARK    3  A    between atoms: C_10  and  C_12 
REMARK    4  A    between atoms: C_12  and  C_13 
REMARK    5  A    between atoms: C_13  and  C_14 
REMARK    6  A    between atoms: C_18  and  N_19 
REMARK       I    between atoms: N_19  and  C_20 
REMARK    7  A    between atoms: C_20  and  C_22 
ROOT
ATOM      1  C   UNL d   1      25.598 -18.060   0.611  0.00  0.00     0.050 C 
ATOM      2  C   UNL d   1      25.329 -17.048  -0.449  0.00  0.00    -0.035 A 
ATOM      3  C   UNL d   1      26.457 -16.321  -0.850  0.00  0.00     0.010 A 
ATOM      4  C   UNL d   1      26.369 -15.330  -1.818  0.00  0.00     0.018 A 
ATOM      5  C   UNL d   1      25.139 -15.034  -2.420  0.00  0.00     0.035 A 
ATOM      6  C   UNL d   1      23.995 -15.782  -2.019  0.00  0.00     0.047 A 
ATOM      7  C   UNL d   1      24.065 -16.802  -1.020  0.00  0.00     0.042 A 
ENDROOT
BRANCH   5   8
ATOM      8  C   UNL d   1      25.146 -13.919  -3.451  0.00  0.00     0.270 C 
ATOM      9  O   UNL d   1      24.852 -14.153  -4.623  0.00  0.00    -0.266 OA
ATOM     10  N   UNL d   1      25.495 -12.643  -3.039  0.00  0.00    -0.263 N 
ATOM     11  H   UNL d   1      25.752 -12.389  -2.091  0.00  0.00     0.190 HD
BRANCH  10  12
ATOM     12  N   UNL d   1      25.531 -11.571  -3.971  0.00  0.00    -0.267 N 
ATOM     13  C   UNL d   1      26.064 -10.365  -3.543  0.00  0.00     0.236 C 
ATOM     14  O   UNL d   1      26.491 -10.223  -2.397  0.00  0.00    -0.272 OA
ATOM     15  H   UNL d   1      25.151 -11.745  -4.901  0.00  0.00     0.190 HD
BRANCH  13  16
ATOM     16  C   UNL d   1      26.062  -9.242  -4.575  0.00  0.00     0.105 C 
BRANCH  16  17
ATOM     17  C   UNL d   1      25.145  -8.076  -4.160  0.00  0.00     0.013 C 
BRANCH  17  18
ATOM     18  C   UNL d   1      25.875  -6.939  -3.418  0.00  0.00    -0.022 C 
ATOM     19  C   UNL d   1      25.542  -6.942  -1.927  0.00  0.00     0.009 C 
ATOM     20  C   UNL d   1      27.392  -7.073  -3.593  0.00  0.00     0.009 C 
ENDBRANCH  17  18
ENDBRANCH  16  17
ENDBRANCH  13  16
ENDBRANCH  10  12
ENDBRANCH   5   8
BRANCH   7  21
ATOM     21  N   UNL d   1      22.852 -17.506  -0.656  0.00  0.00    -0.321 N 
ATOM     22  C   UNL d   1      22.597 -18.887  -0.606  0.00  0.00     0.279 C 
ATOM     23  O   UNL d   1      23.351 -19.815  -0.886  0.00  0.00    -0.265 OA
ATOM     24  H   UNL d   1      22.085 -16.921  -0.345  0.00  0.00     0.169 HD
BRANCH  22  25
ATOM     25  C   UNL d   1      21.296 -19.326  -0.214  0.00  0.00     0.142 A 
ATOM     26  C   UNL d   1      20.641 -19.321   0.995  0.00  0.00     0.045 A 
ATOM     27  C   UNL d   1      19.280 -19.583   0.700  0.00  0.00     0.027 A 
ATOM     28  C   UNL d   1      19.181 -19.696  -0.667  0.00  0.00     0.143 A 
ATOM     29  O   UNL d   1      20.400 -19.545  -1.228  0.00  0.00    -0.317 OA
ENDBRANCH  22  25
ENDBRANCH   7  21
TORSDOF 7
ENDMDL
MODEL 5
REMARK VINA RESULT:    -8.340      1.598      9.646
REMARK INTER + INTRA:         -12.915
REMARK INTER:                 -10.428
REMARK INTRA:                  -2.487
REMARK CONF_INDEPENDENT:        2.088
REMARK UNBOUND:                -2.487
REMARK  7 active torsions:
REMARK  status: ('A' for Active; 'I' for Inactive)
REMARK    1  A    between atoms: C_5  and  C_6 
REMARK       I    between atoms: C_6  and  N_8 
REMARK    2  A    between atoms: N_8  and  N_9 
REMARK       I    between atoms: N_9  and  C_10 
REMARK    3  A    between atoms: C_10  and  C_12 
REMARK    4  A    between atoms: C_12  and  C_13 
REMARK    5  A    between atoms: C_13  and  C_14 
REMARK    6  A    between atoms: C_18  and  N_19 
REMARK       I    between atoms: N_19  and  C_20 
REMARK    7  A    between atoms: C_20  and  C_22 
ROOT
ATOM      1  C   UNL d   1      26.163 -18.324   0.976  0.00  0.00     0.050 C 
ATOM      2  C   UNL d   1      25.951 -17.523  -0.262  0.00  0.00    -0.035 A 
ATOM      3  C   UNL d   1      27.127 -17.008  -0.822  0.00  0.00     0.010 A 
ATOM      4  C   UNL d   1      27.097 -16.227  -1.969  0.00  0.00     0.018 A 
ATOM      5  C   UNL d   1      25.879 -15.936  -2.597  0.00  0.00     0.035 A 
ATOM      6  C   UNL d   1      24.686 -16.470  -2.033  0.00  0.00     0.047 A 
ATOM      7  C   UNL d   1      24.695 -17.271  -0.849  0.00  0.00     0.042 A 
ENDROOT
BRANCH   5   8
ATOM      8  C   UNL d   1      25.954 -15.056  -3.833  0.00  0.00     0.270 C 
ATOM      9  O   UNL d   1      24.957 -14.450  -4.226  0.00  0.00    -0.266 OA
ATOM     10  N   UNL d   1      27.164 -14.960  -4.501  0.00  0.00    -0.263 N 
ATOM     11  H   UNL d   1      28.016 -15.438  -4.230  0.00  0.00     0.190 HD
BRANCH  10  12
ATOM     12  N   UNL d   1      27.277 -14.161  -5.671  0.00  0.00    -0.267 N 
ATOM     13  C   UNL d   1      28.450 -14.257  -6.403  0.00  0.00     0.236 C 
ATOM     14  O   UNL d   1      29.364 -15.006  -6.056  0.00  0.00    -0.272 OA
ATOM     15  H   UNL d   1      26.493 -13.551  -5.900  0.00  0.00     0.190 HD
BRANCH  13  16
ATOM     16  C   UNL d   1      28.530 -13.366  -7.638  0.00  0.00     0.105 C 
BRANCH  16  17
ATOM     17  C   UNL d   1      28.640 -11.874  -7.269  0.00  0.00     0.013 C 
BRANCH  17  18
ATOM     18  C   UNL d   1      27.480 -11.009  -7.801  0.00  0.00    -0.022 C 
ATOM     19  C   UNL d   1      27.012 -11.487  -9.174  0.00  0.00     0.009 C 
ATOM     20  C   UNL d   1      26.296 -11.046  -6.827  0.00  0.00     0.009 C 
ENDBRANCH  17  18
ENDBRANCH  16  17
ENDBRANCH  13  16
ENDBRANCH  10  12
ENDBRANCH   5   8
BRANCH   7  21
ATOM     21  N   UNL d   1      23.436 -17.763  -0.328  0.00  0.00    -0.321 N 
ATOM     22  C   UNL d   1      22.504 -18.635  -0.913  0.00  0.00     0.279 C 
ATOM     23  O   UNL d   1      22.541 -19.166  -2.020  0.00  0.00    -0.265 OA
ATOM     24  H   UNL d   1      23.212 -17.473   0.617  0.00  0.00     0.169 HD
BRANCH  22  25
ATOM     25  C   UNL d   1      21.323 -18.962  -0.180  0.00  0.00     0.142 A 
ATOM     26  C   UNL d   1      20.211 -19.706  -0.495  0.00  0.00     0.045 A 
ATOM     27  C   UNL d   1      19.537 -19.937   0.730  0.00  0.00     0.027 A 
ATOM     28  C   UNL d   1      20.294 -19.354   1.719  0.00  0.00     0.143 A 
ATOM     29  O   UNL d   1      21.376 -18.758   1.175  0.00  0.00    -0.317 OA
ENDBRANCH  22  25
ENDBRANCH   7  21
TORSDOF 7
ENDMDL
MODEL 6
REMARK VINA RESULT:    -7.867      3.340      9.868
REMARK INTER + INTRA:         -11.906
REMARK INTER:                  -9.955
REMARK INTRA:                  -1.951
REMARK CONF_INDEPENDENT:        2.088
REMARK UNBOUND:                -1.951
REMARK  7 active torsions:
REMARK  status: ('A' for Active; 'I' for Inactive)
REMARK    1  A    between atoms: C_5  and  C_6 
REMARK       I    between atoms: C_6  and  N_8 
REMARK    2  A    between atoms: N_8  and  N_9 
REMARK       I    between atoms: N_9  and  C_10 
REMARK    3  A    between atoms: C_10  and  C_12 
REMARK    4  A    between atoms: C_12  and  C_13 
REMARK    5  A    between atoms: C_13  and  C_14 
REMARK    6  A    between atoms: C_18  and  N_19 
REMARK       I    between atoms: N_19  and  C_20 
REMARK    7  A    between atoms: C_20  and  C_22 
ROOT
ATOM      1  C   UNL d   1      22.144 -15.949  -0.895  0.00  0.00     0.050 C 
ATOM      2  C   UNL d   1      23.397 -16.699  -0.600  0.00  0.00    -0.035 A 
ATOM      3  C   UNL d   1      24.571 -16.022  -0.959  0.00  0.00     0.010 A 
ATOM      4  C   UNL d   1      25.820 -16.592  -0.763  0.00  0.00     0.018 A 
ATOM      5  C   UNL d   1      25.936 -17.868  -0.196  0.00  0.00     0.035 A 
ATOM      6  C   UNL d   1      24.744 -18.550   0.179  0.00  0.00     0.047 A 
ATOM      7  C   UNL d   1      23.447 -17.981  -0.020  0.00  0.00     0.042 A 
ENDROOT
BRANCH   5   8
ATOM      8  C   UNL d   1      27.347 -18.410  -0.044  0.00  0.00     0.270 C 
ATOM      9  O   UNL d   1      27.553 -19.436   0.604  0.00  0.00    -0.266 OA
ATOM     10  N   UNL d   1      28.386 -17.720  -0.648  0.00  0.00    -0.263 N 
ATOM     11  H   UNL d   1      28.281 -16.869  -1.189  0.00  0.00     0.190 HD
BRANCH  10  12
ATOM     12  N   UNL d   1      29.724 -18.181  -0.520  0.00  0.00    -0.267 N 
ATOM     13  C   UNL d   1      30.690 -17.579  -1.313  0.00  0.00     0.236 C 
ATOM     14  O   UNL d   1      30.402 -16.676  -2.100  0.00  0.00    -0.272 OA
ATOM     15  H   UNL d   1      29.899 -18.939   0.139  0.00  0.00     0.190 HD
BRANCH  13  16
ATOM     16  C   UNL d   1      32.106 -18.122  -1.151  0.00  0.00     0.105 C 
BRANCH  16  17
ATOM     17  C   UNL d   1      33.068 -17.067  -0.574  0.00  0.00     0.013 C 
BRANCH  17  18
ATOM     18  C   UNL d   1      33.116 -17.038   0.966  0.00  0.00    -0.022 C 
ATOM     19  C   UNL d   1      31.995 -16.176   1.544  0.00  0.00     0.009 C 
ATOM     20  C   UNL d   1      32.997 -18.459   1.531  0.00  0.00     0.009 C 
ENDBRANCH  17  18
ENDBRANCH  16  17
ENDBRANCH  13  16
ENDBRANCH  10  12
ENDBRANCH   5   8
BRANCH   7  21
ATOM     21  N   UNL d   1      22.282 -18.747   0.373  0.00  0.00    -0.321 N 
ATOM     22  C   UNL d   1      21.275 -19.320  -0.422  0.00  0.00     0.279 C 
ATOM     23  O   UNL d   1      21.148 -19.281  -1.643  0.00  0.00    -0.265 OA
ATOM     24  H   UNL d   1      22.201 -18.939   1.365  0.00  0.00     0.169 HD
BRANCH  22  25
ATOM     25  C   UNL d   1      20.219 -20.031   0.224  0.00  0.00     0.142 A 
ATOM     26  C   UNL d   1      19.871 -20.177   1.546  0.00  0.00     0.045 A 
ATOM     27  C   UNL d   1      18.562 -20.721   1.545  0.00  0.00     0.027 A 
ATOM     28  C   UNL d   1      18.179 -20.841   0.231  0.00  0.00     0.143 A 
ATOM     29  O   UNL d   1      19.179 -20.428  -0.577  0.00  0.00    -0.317 OA
ENDBRANCH  22  25
ENDBRANCH   7  21
TORSDOF 7
ENDMDL
MODEL 7
REMARK VINA RESULT:    -7.603      3.146      9.613
REMARK INTER + INTRA:         -12.292
REMARK INTER:                  -9.691
REMARK INTRA:                  -2.601
REMARK CONF_INDEPENDENT:        2.088
REMARK UNBOUND:                -2.601
REMARK  7 active torsions:
REMARK  status: ('A' for Active; 'I' for Inactive)
REMARK    1  A    between atoms: C_5  and  C_6 
REMARK       I    between atoms: C_6  and  N_8 
REMARK    2  A    between atoms: N_8  and  N_9 
REMARK       I    between atoms: N_9  and  C_10 
REMARK    3  A    between atoms: C_10  and  C_12 
REMARK    4  A    between atoms: C_12  and  C_13 
REMARK    5  A    between atoms: C_13  and  C_14 
REMARK    6  A    between atoms: C_18  and  N_19 
REMARK       I    between atoms: N_19  and  C_20 
REMARK    7  A    between atoms: C_20  and  C_22 
ROOT
ATOM      1  C   UNL d   1      22.155 -15.593  -1.270  0.00  0.00     0.050 C 
ATOM      2  C   UNL d   1      23.363 -16.371  -0.875  0.00  0.00    -0.035 A 
ATOM      3  C   UNL d   1      24.575 -15.796  -1.279  0.00  0.00     0.010 A 
ATOM      4  C   UNL d   1      25.790 -16.406  -1.002  0.00  0.00     0.018 A 
ATOM      5  C   UNL d   1      25.830 -17.620  -0.305  0.00  0.00     0.035 A 
ATOM      6  C   UNL d   1      24.599 -18.197   0.116  0.00  0.00     0.047 A 
ATOM      7  C   UNL d   1      23.337 -17.587  -0.166  0.00  0.00     0.042 A 
ENDROOT
BRANCH   5   8
ATOM      8  C   UNL d   1      27.209 -18.215  -0.071  0.00  0.00     0.270 C 
ATOM      9  O   UNL d   1      27.351 -19.178   0.683  0.00  0.00    -0.266 OA
ATOM     10  N   UNL d   1      28.291 -17.646  -0.722  0.00  0.00    -0.263 N 
ATOM     11  H   UNL d   1      28.238 -16.851  -1.349  0.00  0.00     0.190 HD
BRANCH  10  12
ATOM     12  N   UNL d   1      29.601 -18.159  -0.522  0.00  0.00    -0.267 N 
ATOM     13  C   UNL d   1      30.640 -17.554  -1.212  0.00  0.00     0.236 C 
ATOM     14  O   UNL d   1      30.440 -16.606  -1.971  0.00  0.00    -0.272 OA
ATOM     15  H   UNL d   1      29.703 -18.954   0.109  0.00  0.00     0.190 HD
BRANCH  13  16
ATOM     16  C   UNL d   1      32.023 -18.154  -0.977  0.00  0.00     0.105 C 
BRANCH  16  17
ATOM     17  C   UNL d   1      32.359 -19.252  -2.003  0.00  0.00     0.013 C 
BRANCH  17  18
ATOM     18  C   UNL d   1      31.160 -19.691  -2.866  0.00  0.00    -0.022 C 
ATOM     19  C   UNL d   1      31.191 -19.030  -4.243  0.00  0.00     0.009 C 
ATOM     20  C   UNL d   1      31.157 -21.215  -3.042  0.00  0.00     0.009 C 
ENDBRANCH  17  18
ENDBRANCH  16  17
ENDBRANCH  13  16
ENDBRANCH  10  12
ENDBRANCH   5   8
BRANCH   7  21
ATOM     21  N   UNL d   1      22.127 -18.247   0.282  0.00  0.00    -0.321 N 
ATOM     22  C   UNL d   1      21.208 -19.023  -0.443  0.00  0.00     0.279 C 
ATOM     23  O   UNL d   1      21.217 -19.302  -1.640  0.00  0.00    -0.265 OA
ATOM     24  H   UNL d   1      21.935 -18.179   1.275  0.00  0.00     0.169 HD
BRANCH  22  25
ATOM     25  C   UNL d   1      20.080 -19.563   0.245  0.00  0.00     0.142 A 
ATOM     26  C   UNL d   1      19.083 -20.428  -0.142  0.00  0.00     0.045 A 
ATOM     27  C   UNL d   1      18.441 -20.840   1.052  0.00  0.00     0.027 A 
ATOM     28  C   UNL d   1      19.103 -20.234   2.093  0.00  0.00     0.143 A 
ATOM     29  O   UNL d   1      20.096 -19.455   1.612  0.00  0.00    -0.317 OA
ENDBRANCH  22  25
ENDBRANCH   7  21
TORSDOF 7
ENDMDL
MODEL 8
REMARK VINA RESULT:    -7.414      4.044      5.880
REMARK INTER + INTRA:         -11.863
REMARK INTER:                  -9.503
REMARK INTRA:                  -2.361
REMARK CONF_INDEPENDENT:        2.088
REMARK UNBOUND:                -2.361
REMARK  7 active torsions:
REMARK  status: ('A' for Active; 'I' for Inactive)
REMARK    1  A    between atoms: C_5  and  C_6 
REMARK       I    between atoms: C_6  and  N_8 
REMARK    2  A    between atoms: N_8  and  N_9 
REMARK       I    between atoms: N_9  and  C_10 
REMARK    3  A    between atoms: C_10  and  C_12 
REMARK    4  A    between atoms: C_12  and  C_13 
REMARK    5  A    between atoms: C_13  and  C_14 
REMARK    6  A    between atoms: C_18  and  N_19 
REMARK       I    between atoms: N_19  and  C_20 
REMARK    7  A    between atoms: C_20  and  C_22 
ROOT
ATOM      1  C   UNL d   1      29.551 -14.063  -0.608  0.00  0.00     0.050 C 
ATOM      2  C   UNL d   1      28.505 -15.093  -0.353  0.00  0.00    -0.035 A 
ATOM      3  C   UNL d   1      28.017 -15.716  -1.510  0.00  0.00     0.010 A 
ATOM      4  C   UNL d   1      27.029 -16.688  -1.443  0.00  0.00     0.018 A 
ATOM      5  C   UNL d   1      26.495 -17.071  -0.206  0.00  0.00     0.035 A 
ATOM      6  C   UNL d   1      27.000 -16.446   0.970  0.00  0.00     0.047 A 
ATOM      7  C   UNL d   1      28.013 -15.439   0.920  0.00  0.00     0.042 A 
ENDROOT
BRANCH   5   8
ATOM      8  C   UNL d   1      25.403 -18.127  -0.243  0.00  0.00     0.270 C 
ATOM      9  O   UNL d   1      25.689 -19.321  -0.145  0.00  0.00    -0.266 OA
ATOM     10  N   UNL d   1      24.090 -17.712  -0.394  0.00  0.00    -0.263 N 
ATOM     11  H   UNL d   1      23.793 -16.747  -0.486  0.00  0.00     0.190 HD
BRANCH  10  12
ATOM     12  N   UNL d   1      23.037 -18.665  -0.451  0.00  0.00    -0.267 N 
ATOM     13  C   UNL d   1      21.760 -18.196  -0.720  0.00  0.00     0.236 C 
ATOM     14  O   UNL d   1      21.542 -16.998  -0.905  0.00  0.00    -0.272 OA
ATOM     15  H   UNL d   1      23.277 -19.640  -0.277  0.00  0.00     0.190 HD
BRANCH  13  16
ATOM     16  C   UNL d   1      20.663 -19.256  -0.751  0.00  0.00     0.105 C 
BRANCH  16  17
ATOM     17  C   UNL d   1      20.479 -19.937   0.618  0.00  0.00     0.013 C 
BRANCH  17  18
ATOM     18  C   UNL d   1      19.013 -20.014   1.087  0.00  0.00    -0.022 C 
ATOM     19  C   UNL d   1      18.205 -20.993   0.237  0.00  0.00     0.009 C 
ATOM     20  C   UNL d   1      18.944 -20.450   2.556  0.00  0.00     0.009 C 
ENDBRANCH  17  18
ENDBRANCH  16  17
ENDBRANCH  13  16
ENDBRANCH  10  12
ENDBRANCH   5   8
BRANCH   7  21
ATOM     21  N   UNL d   1      28.462 -14.839   2.161  0.00  0.00    -0.321 N 
ATOM     22  C   UNL d   1      27.808 -13.923   3.002  0.00  0.00     0.279 C 
ATOM     23  O   UNL d   1      26.703 -13.405   2.859  0.00  0.00    -0.265 OA
ATOM     24  H   UNL d   1      29.362 -15.159   2.499  0.00  0.00     0.169 HD
BRANCH  22  25
ATOM     25  C   UNL d   1      28.482 -13.479   4.180  0.00  0.00     0.142 A 
ATOM     26  C   UNL d   1      28.032 -13.140   5.434  0.00  0.00     0.045 A 
ATOM     27  C   UNL d   1      29.183 -13.092   6.259  0.00  0.00     0.027 A 
ATOM     28  C   UNL d   1      30.255 -13.437   5.472  0.00  0.00     0.143 A 
ATOM     29  O   UNL d   1      29.839 -13.670   4.209  0.00  0.00    -0.317 OA
ENDBRANCH  22  25
ENDBRANCH   7  21
TORSDOF 7
ENDMDL
MODEL 9
REMARK VINA RESULT:    -7.394      2.034      2.473
REMARK INTER + INTRA:         -11.831
REMARK INTER:                  -9.482
REMARK INTRA:                  -2.349
REMARK CONF_INDEPENDENT:        2.088
REMARK UNBOUND:                -2.349
REMARK  7 active torsions:
REMARK  status: ('A' for Active; 'I' for Inactive)
REMARK    1  A    between atoms: C_5  and  C_6 
REMARK       I    between atoms: C_6  and  N_8 
REMARK    2  A    between atoms: N_8  and  N_9 
REMARK       I    between atoms: N_9  and  C_10 
REMARK    3  A    between atoms: C_10  and  C_12 
REMARK    4  A    between atoms: C_12  and  C_13 
REMARK    5  A    between atoms: C_13  and  C_14 
REMARK    6  A    between atoms: C_18  and  N_19 
REMARK       I    between atoms: N_19  and  C_20 
REMARK    7  A    between atoms: C_20  and  C_22 
ROOT
ATOM      1  C   UNL d   1      29.296 -13.686  -0.280  0.00  0.00     0.050 C 
ATOM      2  C   UNL d   1      28.209 -14.700  -0.391  0.00  0.00    -0.035 A 
ATOM      3  C   UNL d   1      28.264 -15.710   0.579  0.00  0.00     0.010 A 
ATOM      4  C   UNL d   1      27.332 -16.737   0.603  0.00  0.00     0.018 A 
ATOM      5  C   UNL d   1      26.306 -16.786  -0.350  0.00  0.00     0.035 A 
ATOM      6  C   UNL d   1      26.245 -15.753  -1.328  0.00  0.00     0.047 A 
ATOM      7  C   UNL d   1      27.200 -14.689  -1.373  0.00  0.00     0.042 A 
ENDROOT
BRANCH   5   8
ATOM      8  C   UNL d   1      25.351 -17.963  -0.249  0.00  0.00     0.270 C 
ATOM      9  O   UNL d   1      25.784 -19.103  -0.078  0.00  0.00    -0.266 OA
ATOM     10  N   UNL d   1      23.991 -17.719  -0.359  0.00  0.00    -0.263 N 
ATOM     11  H   UNL d   1      23.576 -16.806  -0.505  0.00  0.00     0.190 HD
BRANCH  10  12
ATOM     12  N   UNL d   1      23.061 -18.792  -0.286  0.00  0.00    -0.267 N 
ATOM     13  C   UNL d   1      21.742 -18.520  -0.615  0.00  0.00     0.236 C 
ATOM     14  O   UNL d   1      21.385 -17.393  -0.959  0.00  0.00    -0.272 OA
ATOM     15  H   UNL d   1      23.414 -19.699   0.016  0.00  0.00     0.190 HD
BRANCH  13  16
ATOM     16  C   UNL d   1      20.781 -19.699  -0.503  0.00  0.00     0.105 C 
BRANCH  16  17
ATOM     17  C   UNL d   1      19.524 -19.345   0.314  0.00  0.00     0.013 C 
BRANCH  17  18
ATOM     18  C   UNL d   1      18.937 -20.530   1.105  0.00  0.00    -0.022 C 
ATOM     19  C   UNL d   1      18.450 -20.093   2.486  0.00  0.00     0.009 C 
ATOM     20  C   UNL d   1      17.768 -21.159   0.337  0.00  0.00     0.009 C 
ENDBRANCH  17  18
ENDBRANCH  16  17
ENDBRANCH  13  16
ENDBRANCH  10  12
ENDBRANCH   5   8
BRANCH   7  21
ATOM     21  N   UNL d   1      27.078 -13.685  -2.410  0.00  0.00    -0.321 N 
ATOM     22  C   UNL d   1      26.283 -13.684  -3.568  0.00  0.00     0.279 C 
ATOM     23  O   UNL d   1      25.520 -14.557  -3.974  0.00  0.00    -0.265 OA
ATOM     24  H   UNL d   1      27.608 -12.835  -2.258  0.00  0.00     0.169 HD
BRANCH  22  25
ATOM     25  C   UNL d   1      26.353 -12.557  -4.441  0.00  0.00     0.142 A 
ATOM     26  C   UNL d   1      25.528 -12.109  -5.446  0.00  0.00     0.045 A 
ATOM     27  C   UNL d   1      25.943 -10.784  -5.727  0.00  0.00     0.027 A 
ATOM     28  C   UNL d   1      26.967 -10.491  -4.858  0.00  0.00     0.143 A 
ATOM     29  O   UNL d   1      27.224 -11.562  -4.078  0.00  0.00    -0.317 OA
ENDBRANCH  22  25
ENDBRANCH   7  21
TORSDOF 7
ENDMDL
