MODEL 1
REMARK VINA RESULT:   -10.876      0.000      0.000
REMARK INTER + INTRA:         -16.119
REMARK INTER:                 -14.158
REMARK INTRA:                  -1.961
REMARK CONF_INDEPENDENT:        3.281
REMARK UNBOUND:                -1.961
REMARK  11 active torsions:
REMARK  status: ('A' for Active; 'I' for Inactive)
REMARK    1  A    between atoms: C_2  and  C_3 
REMARK    2  A    between atoms: C_3  and  C_4 
REMARK    3  A    between atoms: C_4  and  C_5 
REMARK    4  A    between atoms: C_5  and  O_6 
REMARK    5  A    between atoms: O_6  and  C_7 
REMARK    6  A    between atoms: C_10  and  C_11 
REMARK    7  A    between atoms: N_12  and  N_13 
REMARK       I    between atoms: N_13  and  C_14 
REMARK    8  A    between atoms: C_14  and  C_16 
REMARK    9  A    between atoms: C_16  and  S_17 
REMARK   10  A    between atoms: S_17  and  C_18 
REMARK   11  A    between atoms: N_27  and  C_28 
ROOT
ATOM      1  C   UNL d   1      31.768 -19.810  -2.160  0.00  0.00     0.177 A 
ATOM      2  N   UNL d   1      31.750 -20.413  -1.002  0.00  0.00    -0.216 NA
ATOM      3  C   UNL d   1      31.246 -21.677  -0.995  0.00  0.00     0.117 A 
ATOM      4  S   UNL d   1      31.095 -22.608   0.436  0.00  0.00    -0.073 SA
ATOM      5  C   UNL d   1      30.478 -23.949  -0.419  0.00  0.00    -0.008 A 
ATOM      6  C   UNL d   1      30.386 -23.716  -1.777  0.00  0.00    -0.026 A 
ATOM      7  C   UNL d   1      30.789 -22.381  -2.084  0.00  0.00     0.076 A 
ATOM      8  C   UNL d   1      30.803 -21.728  -3.361  0.00  0.00     0.268 A 
ATOM      9  O   UNL d   1      30.464 -22.340  -4.383  0.00  0.00    -0.267 OA
ATOM     10  N   UNL d   1      31.271 -20.406  -3.342  0.00  0.00    -0.256 N 
ATOM     11  C   UNL d   1      29.895 -24.761  -2.744  0.00  0.00     0.041 C 
ATOM     12  C   UNL d   1      29.924 -26.155  -2.104  0.00  0.00     0.005 C 
ATOM     13  C   UNL d   1      29.278 -26.108  -0.713  0.00  0.00     0.005 C 
ATOM     14  C   UNL d   1      30.122 -25.246   0.246  0.00  0.00     0.047 C 
ENDROOT
BRANCH   1  15
ATOM     15  S   UNL d   1      32.244 -18.087  -2.081  0.00  0.00    -0.082 SA
BRANCH  15  16
ATOM     16  C   UNL d   1      31.093 -17.159  -1.017  0.00  0.00     0.186 C 
BRANCH  16  17
ATOM     17  C   UNL d   1      29.613 -17.291  -1.364  0.00  0.00     0.247 C 
ATOM     18  N   UNL d   1      28.804 -17.776  -0.308  0.00  0.00    -0.247 N 
ATOM     19  H   UNL d   1      29.167 -18.036   0.604  0.00  0.00     0.192 HD
ATOM     20  O   UNL d   1      29.152 -16.920  -2.442  0.00  0.00    -0.271 OA
BRANCH  18  21
ATOM     21  N   UNL d   1      27.452 -17.850  -0.543  0.00  0.00    -0.184 NA
ATOM     22  C   UNL d   1      26.607 -17.186   0.183  0.00  0.00     0.150 C 
BRANCH  22  23
ATOM     23  C   UNL d   1      25.136 -17.354  -0.040  0.00  0.00    -0.017 A 
ATOM     24  C   UNL d   1      24.500 -18.574   0.211  0.00  0.00     0.015 A 
ATOM     25  C   UNL d   1      23.152 -18.754  -0.151  0.00  0.00     0.037 A 
ATOM     26  C   UNL d   1      22.407 -17.704  -0.696  0.00  0.00     0.068 A 
ATOM     27  C   UNL d   1      23.028 -16.473  -0.895  0.00  0.00     0.037 A 
ATOM     28  C   UNL d   1      24.384 -16.301  -0.578  0.00  0.00     0.015 A 
BRANCH  26  29
ATOM     29  O   UNL d   1      21.072 -17.943  -0.897  0.00  0.00    -0.351 OA
BRANCH  29  30
ATOM     30  C   UNL d   1      20.711 -19.304  -1.159  0.00  0.00     0.175 C 
BRANCH  30  31
ATOM     31  C   UNL d   1      19.220 -19.485  -0.867  0.00  0.00     0.027 C 
BRANCH  31  32
ATOM     32  C   UNL d   1      19.010 -20.250   0.438  0.00  0.00     0.002 C 
BRANCH  32  33
ATOM     33  C   UNL d   1      19.928 -19.731   1.542  0.00  0.00    -0.004 C 
ATOM     34  C   UNL d   1      19.653 -20.450   2.853  0.00  0.00     0.005 C 
ENDBRANCH  32  33
ENDBRANCH  31  32
ENDBRANCH  30  31
ENDBRANCH  29  30
ENDBRANCH  26  29
ENDBRANCH  22  23
ENDBRANCH  18  21
ENDBRANCH  16  17
ENDBRANCH  15  16
ENDBRANCH   1  15
BRANCH  10  35
ATOM     35  C   UNL d   1      31.337 -19.810  -4.619  0.00  0.00     0.044 C 
ATOM     36  C   UNL d   1      32.387 -20.095  -5.494  0.00  0.00     0.030 C 
ATOM     37  C   UNL d   1      32.459 -19.421  -6.712  0.00  0.00     0.002 C 
ATOM     38  C   UNL d   1      31.418 -18.583  -7.108  0.00  0.00     0.000 C 
ATOM     39  C   UNL d   1      30.405 -18.267  -6.214  0.00  0.00     0.002 C 
ATOM     40  C   UNL d   1      30.453 -18.783  -4.924  0.00  0.00     0.030 C 
ENDBRANCH  10  35
TORSDOF 11
ENDMDL
MODEL 2
REMARK VINA RESULT:   -10.740      5.461      9.753
REMARK INTER + INTRA:         -16.292
REMARK INTER:                 -14.021
REMARK INTRA:                  -2.271
REMARK CONF_INDEPENDENT:        3.281
REMARK UNBOUND:                -2.271
REMARK  11 active torsions:
REMARK  status: ('A' for Active; 'I' for Inactive)
REMARK    1  A    between atoms: C_2  and  C_3 
REMARK    2  A    between atoms: C_3  and  C_4 
REMARK    3  A    between atoms: C_4  and  C_5 
REMARK    4  A    between atoms: C_5  and  O_6 
REMARK    5  A    between atoms: O_6  and  C_7 
REMARK    6  A    between atoms: C_10  and  C_11 
REMARK    7  A    between atoms: N_12  and  N_13 
REMARK       I    between atoms: N_13  and  C_14 
REMARK    8  A    between atoms: C_14  and  C_16 
REMARK    9  A    between atoms: C_16  and  S_17 
REMARK   10  A    between atoms: S_17  and  C_18 
REMARK   11  A    between atoms: N_27  and  C_28 
ROOT
ATOM      1  C   UNL d   1      29.737 -12.839   1.222  0.00  0.00     0.177 A 
ATOM      2  N   UNL d   1      29.723 -12.098   0.148  0.00  0.00    -0.216 NA
ATOM      3  C   UNL d   1      28.764 -11.135   0.098  0.00  0.00     0.117 A 
ATOM      4  S   UNL d   1      28.557 -10.098  -1.251  0.00  0.00    -0.073 SA
ATOM      5  C   UNL d   1      27.281  -9.254  -0.494  0.00  0.00    -0.008 A 
ATOM      6  C   UNL d   1      27.004  -9.734   0.770  0.00  0.00    -0.026 A 
ATOM      7  C   UNL d   1      27.839 -10.851   1.076  0.00  0.00     0.076 A 
ATOM      8  C   UNL d   1      27.844 -11.660   2.261  0.00  0.00     0.268 A 
ATOM      9  O   UNL d   1      27.076 -11.405   3.198  0.00  0.00    -0.267 OA
ATOM     10  N   UNL d   1      28.801 -12.685   2.270  0.00  0.00    -0.256 N 
ATOM     11  C   UNL d   1      25.937  -9.133   1.646  0.00  0.00     0.041 C 
ATOM     12  C   UNL d   1      25.533  -7.742   1.139  0.00  0.00     0.005 C 
ATOM     13  C   UNL d   1      25.275  -7.789  -0.373  0.00  0.00     0.005 C 
ATOM     14  C   UNL d   1      26.580  -8.093  -1.134  0.00  0.00     0.047 C 
ENDROOT
BRANCH   1  15
ATOM     15  S   UNL d   1      30.877 -14.216   1.148  0.00  0.00    -0.082 SA
BRANCH  15  16
ATOM     16  C   UNL d   1      30.470 -15.301  -0.257  0.00  0.00     0.186 C 
BRANCH  16  17
ATOM     17  C   UNL d   1      28.987 -15.607  -0.453  0.00  0.00     0.247 C 
ATOM     18  N   UNL d   1      28.306 -15.988   0.729  0.00  0.00    -0.247 N 
ATOM     19  H   UNL d   1      28.757 -16.073   1.634  0.00  0.00     0.192 HD
ATOM     20  O   UNL d   1      28.417 -15.448  -1.531  0.00  0.00    -0.271 OA
BRANCH  18  21
ATOM     21  N   UNL d   1      26.954 -16.210   0.623  0.00  0.00    -0.184 NA
ATOM     22  C   UNL d   1      26.490 -17.217  -0.050  0.00  0.00     0.150 C 
BRANCH  22  23
ATOM     23  C   UNL d   1      25.012 -17.384  -0.220  0.00  0.00    -0.017 A 
ATOM     24  C   UNL d   1      24.401 -18.632  -0.056  0.00  0.00     0.015 A 
ATOM     25  C   UNL d   1      23.039 -18.796  -0.371  0.00  0.00     0.037 A 
ATOM     26  C   UNL d   1      22.259 -17.710  -0.781  0.00  0.00     0.068 A 
ATOM     27  C   UNL d   1      22.858 -16.457  -0.892  0.00  0.00     0.037 A 
ATOM     28  C   UNL d   1      24.225 -16.297  -0.622  0.00  0.00     0.015 A 
BRANCH  26  29
ATOM     29  O   UNL d   1      20.919 -17.949  -0.943  0.00  0.00    -0.351 OA
BRANCH  29  30
ATOM     30  C   UNL d   1      20.550 -19.307  -1.207  0.00  0.00     0.175 C 
BRANCH  30  31
ATOM     31  C   UNL d   1      19.286 -19.640  -0.412  0.00  0.00     0.027 C 
BRANCH  31  32
ATOM     32  C   UNL d   1      19.539 -19.521   1.089  0.00  0.00     0.002 C 
BRANCH  32  33
ATOM     33  C   UNL d   1      18.650 -20.476   1.882  0.00  0.00    -0.004 C 
ATOM     34  C   UNL d   1      18.073 -21.551   0.975  0.00  0.00     0.005 C 
ENDBRANCH  32  33
ENDBRANCH  31  32
ENDBRANCH  30  31
ENDBRANCH  29  30
ENDBRANCH  26  29
ENDBRANCH  22  23
ENDBRANCH  18  21
ENDBRANCH  16  17
ENDBRANCH  15  16
ENDBRANCH   1  15
BRANCH  10  35
ATOM     35  C   UNL d   1      28.829 -13.422   3.473  0.00  0.00     0.044 C 
ATOM     36  C   UNL d   1      27.748 -14.216   3.857  0.00  0.00     0.030 C 
ATOM     37  C   UNL d   1      27.782 -14.861   5.092  0.00  0.00     0.002 C 
ATOM     38  C   UNL d   1      28.941 -14.826   5.865  0.00  0.00     0.000 C 
ATOM     39  C   UNL d   1      29.991 -13.996   5.502  0.00  0.00     0.002 C 
ATOM     40  C   UNL d   1      29.864 -13.195   4.373  0.00  0.00     0.030 C 
ENDBRANCH  10  35
TORSDOF 11
ENDMDL
MODEL 3
REMARK VINA RESULT:   -10.396      3.948      7.170
REMARK INTER + INTRA:         -15.373
REMARK INTER:                 -13.678
REMARK INTRA:                  -1.696
REMARK CONF_INDEPENDENT:        3.281
REMARK UNBOUND:                -1.696
REMARK  11 active torsions:
REMARK  status: ('A' for Active; 'I' for Inactive)
REMARK    1  A    between atoms: C_2  and  C_3 
REMARK    2  A    between atoms: C_3  and  C_4 
REMARK    3  A    between atoms: C_4  and  C_5 
REMARK    4  A    between atoms: C_5  and  O_6 
REMARK    5  A    between atoms: O_6  and  C_7 
REMARK    6  A    between atoms: C_10  and  C_11 
REMARK    7  A    between atoms: N_12  and  N_13 
REMARK       I    between atoms: N_13  and  C_14 
REMARK    8  A    between atoms: C_14  and  C_16 
REMARK    9  A    between atoms: C_16  and  S_17 
REMARK   10  A    between atoms: S_17  and  C_18 
REMARK   11  A    between atoms: N_27  and  C_28 
ROOT
ATOM      1  C   UNL d   1      30.112 -14.894  -3.187  0.00  0.00     0.177 A 
ATOM      2  N   UNL d   1      29.711 -13.841  -2.526  0.00  0.00    -0.216 NA
ATOM      3  C   UNL d   1      28.915 -12.974  -3.208  0.00  0.00     0.117 A 
ATOM      4  S   UNL d   1      28.333 -11.513  -2.525  0.00  0.00    -0.073 SA
ATOM      5  C   UNL d   1      27.458 -11.122  -3.936  0.00  0.00    -0.008 A 
ATOM      6  C   UNL d   1      27.587 -12.078  -4.924  0.00  0.00    -0.026 A 
ATOM      7  C   UNL d   1      28.471 -13.116  -4.502  0.00  0.00     0.076 A 
ATOM      8  C   UNL d   1      28.905 -14.269  -5.238  0.00  0.00     0.268 A 
ATOM      9  O   UNL d   1      28.483 -14.477  -6.383  0.00  0.00    -0.267 OA
ATOM     10  N   UNL d   1      29.772 -15.122  -4.540  0.00  0.00    -0.256 N 
ATOM     11  C   UNL d   1      26.885 -11.968  -6.251  0.00  0.00     0.041 C 
ATOM     12  C   UNL d   1      25.750 -10.938  -6.185  0.00  0.00     0.005 C 
ATOM     13  C   UNL d   1      26.252  -9.644  -5.531  0.00  0.00     0.005 C 
ATOM     14  C   UNL d   1      26.611  -9.889  -4.053  0.00  0.00     0.047 C 
ENDROOT
BRANCH   1  15
ATOM     15  S   UNL d   1      31.317 -15.890  -2.317  0.00  0.00    -0.082 SA
BRANCH  15  16
ATOM     16  C   UNL d   1      30.529 -16.772  -0.932  0.00  0.00     0.186 C 
BRANCH  16  17
ATOM     17  C   UNL d   1      29.011 -16.908  -1.006  0.00  0.00     0.247 C 
ATOM     18  N   UNL d   1      28.350 -16.790   0.241  0.00  0.00    -0.247 N 
ATOM     19  H   UNL d   1      28.834 -16.647   1.122  0.00  0.00     0.192 HD
ATOM     20  O   UNL d   1      28.409 -17.019  -2.073  0.00  0.00    -0.271 OA
BRANCH  18  21
ATOM     21  N   UNL d   1      26.977 -16.837   0.224  0.00  0.00    -0.184 NA
ATOM     22  C   UNL d   1      26.346 -17.809  -0.358  0.00  0.00     0.150 C 
BRANCH  22  23
ATOM     23  C   UNL d   1      24.850 -17.789  -0.437  0.00  0.00    -0.017 A 
ATOM     24  C   UNL d   1      24.111 -18.975  -0.462  0.00  0.00     0.015 A 
ATOM     25  C   UNL d   1      22.722 -18.936  -0.691  0.00  0.00     0.037 A 
ATOM     26  C   UNL d   1      22.050 -17.717  -0.824  0.00  0.00     0.068 A 
ATOM     27  C   UNL d   1      22.781 -16.534  -0.744  0.00  0.00     0.037 A 
ATOM     28  C   UNL d   1      24.172 -16.570  -0.560  0.00  0.00     0.015 A 
BRANCH  26  29
ATOM     29  O   UNL d   1      20.684 -17.782  -0.919  0.00  0.00    -0.351 OA
BRANCH  29  30
ATOM     30  C   UNL d   1      20.093 -19.052  -0.623  0.00  0.00     0.175 C 
BRANCH  30  31
ATOM     31  C   UNL d   1      20.228 -19.325   0.875  0.00  0.00     0.027 C 
BRANCH  31  32
ATOM     32  C   UNL d   1      19.865 -20.773   1.200  0.00  0.00     0.002 C 
BRANCH  32  33
ATOM     33  C   UNL d   1      18.395 -20.904   1.590  0.00  0.00    -0.004 C 
ATOM     34  C   UNL d   1      17.654 -21.793   0.605  0.00  0.00     0.005 C 
ENDBRANCH  32  33
ENDBRANCH  31  32
ENDBRANCH  30  31
ENDBRANCH  29  30
ENDBRANCH  26  29
ENDBRANCH  22  23
ENDBRANCH  18  21
ENDBRANCH  16  17
ENDBRANCH  15  16
ENDBRANCH   1  15
BRANCH  10  35
ATOM     35  C   UNL d   1      30.130 -16.280  -5.262  0.00  0.00     0.044 C 
ATOM     36  C   UNL d   1      30.023 -17.548  -4.691  0.00  0.00     0.030 C 
ATOM     37  C   UNL d   1      30.466 -18.658  -5.408  0.00  0.00     0.002 C 
ATOM     38  C   UNL d   1      30.876 -18.514  -6.733  0.00  0.00     0.000 C 
ATOM     39  C   UNL d   1      31.027 -17.246  -7.277  0.00  0.00     0.002 C 
ATOM     40  C   UNL d   1      30.780 -16.132  -6.482  0.00  0.00     0.030 C 
ENDBRANCH  10  35
TORSDOF 11
ENDMDL
MODEL 4
REMARK VINA RESULT:   -10.045      3.302      5.077
REMARK INTER + INTRA:         -15.745
REMARK INTER:                 -13.327
REMARK INTRA:                  -2.418
REMARK CONF_INDEPENDENT:        3.281
REMARK UNBOUND:                -2.418
REMARK  11 active torsions:
REMARK  status: ('A' for Active; 'I' for Inactive)
REMARK    1  A    between atoms: C_2  and  C_3 
REMARK    2  A    between atoms: C_3  and  C_4 
REMARK    3  A    between atoms: C_4  and  C_5 
REMARK    4  A    between atoms: C_5  and  O_6 
REMARK    5  A    between atoms: O_6  and  C_7 
REMARK    6  A    between atoms: C_10  and  C_11 
REMARK    7  A    between atoms: N_12  and  N_13 
REMARK       I    between atoms: N_13  and  C_14 
REMARK    8  A    between atoms: C_14  and  C_16 
REMARK    9  A    between atoms: C_16  and  S_17 
REMARK   10  A    between atoms: S_17  and  C_18 
REMARK   11  A    between atoms: N_27  and  C_28 
ROOT
ATOM      1  C   UNL d   1      29.817 -15.758  -4.896  0.00  0.00     0.177 A 
ATOM      2  N   UNL d   1      30.093 -16.279  -6.061  0.00  0.00    -0.216 NA
ATOM      3  C   UNL d   1      30.549 -17.560  -6.051  0.00  0.00     0.117 A 
ATOM      4  S   UNL d   1      31.009 -18.395  -7.476  0.00  0.00    -0.073 SA
ATOM      5  C   UNL d   1      31.368 -19.819  -6.608  0.00  0.00    -0.008 A 
ATOM      6  C   UNL d   1      31.144 -19.686  -5.253  0.00  0.00    -0.026 A 
ATOM      7  C   UNL d   1      30.716 -18.360  -4.944  0.00  0.00     0.076 A 
ATOM      8  C   UNL d   1      30.418 -17.798  -3.658  0.00  0.00     0.268 A 
ATOM      9  O   UNL d   1      30.489 -18.495  -2.637  0.00  0.00    -0.267 OA
ATOM     10  N   UNL d   1      30.004 -16.458  -3.682  0.00  0.00    -0.256 N 
ATOM     11  C   UNL d   1      31.363 -20.817  -4.283  0.00  0.00     0.041 C 
ATOM     12  C   UNL d   1      31.448 -22.160  -5.020  0.00  0.00     0.005 C 
ATOM     13  C   UNL d   1      32.405 -22.045  -6.214  0.00  0.00     0.005 C 
ATOM     14  C   UNL d   1      31.837 -21.080  -7.272  0.00  0.00     0.047 C 
ENDROOT
BRANCH   1  15
ATOM     15  S   UNL d   1      29.421 -14.014  -4.948  0.00  0.00    -0.082 SA
BRANCH  15  16
ATOM     16  C   UNL d   1      27.718 -13.769  -5.548  0.00  0.00     0.186 C 
BRANCH  16  17
ATOM     17  C   UNL d   1      26.658 -14.678  -4.931  0.00  0.00     0.247 C 
ATOM     18  N   UNL d   1      26.093 -14.188  -3.728  0.00  0.00    -0.247 N 
ATOM     19  H   UNL d   1      26.374 -13.316  -3.291  0.00  0.00     0.192 HD
ATOM     20  O   UNL d   1      26.266 -15.705  -5.483  0.00  0.00    -0.271 OA
BRANCH  18  21
ATOM     21  N   UNL d   1      25.086 -14.933  -3.166  0.00  0.00    -0.184 NA
ATOM     22  C   UNL d   1      25.284 -15.623  -2.085  0.00  0.00     0.150 C 
BRANCH  22  23
ATOM     23  C   UNL d   1      24.194 -16.495  -1.543  0.00  0.00    -0.017 A 
ATOM     24  C   UNL d   1      24.385 -17.869  -1.369  0.00  0.00     0.015 A 
ATOM     25  C   UNL d   1      23.301 -18.691  -1.006  0.00  0.00     0.037 A 
ATOM     26  C   UNL d   1      22.041 -18.145  -0.743  0.00  0.00     0.068 A 
ATOM     27  C   UNL d   1      21.867 -16.768  -0.865  0.00  0.00     0.037 A 
ATOM     28  C   UNL d   1      22.933 -15.950  -1.270  0.00  0.00     0.015 A 
BRANCH  26  29
ATOM     29  O   UNL d   1      21.087 -19.011  -0.276  0.00  0.00    -0.351 OA
BRANCH  29  30
ATOM     30  C   UNL d   1      20.155 -19.502  -1.246  0.00  0.00     0.175 C 
BRANCH  30  31
ATOM     31  C   UNL d   1      18.919 -20.037  -0.520  0.00  0.00     0.027 C 
BRANCH  31  32
ATOM     32  C   UNL d   1      19.321 -20.893   0.680  0.00  0.00     0.002 C 
BRANCH  32  33
ATOM     33  C   UNL d   1      19.002 -20.191   1.997  0.00  0.00    -0.004 C 
ATOM     34  C   UNL d   1      20.280 -19.835   2.740  0.00  0.00     0.005 C 
ENDBRANCH  32  33
ENDBRANCH  31  32
ENDBRANCH  30  31
ENDBRANCH  29  30
ENDBRANCH  26  29
ENDBRANCH  22  23
ENDBRANCH  18  21
ENDBRANCH  16  17
ENDBRANCH  15  16
ENDBRANCH   1  15
BRANCH  10  35
ATOM     35  C   UNL d   1      29.654 -15.951  -2.413  0.00  0.00     0.044 C 
ATOM     36  C   UNL d   1      30.470 -15.031  -1.754  0.00  0.00     0.030 C 
ATOM     37  C   UNL d   1      30.131 -14.619  -0.466  0.00  0.00     0.002 C 
ATOM     38  C   UNL d   1      28.918 -15.013   0.095  0.00  0.00     0.000 C 
ATOM     39  C   UNL d   1      28.137 -15.966  -0.544  0.00  0.00     0.002 C 
ATOM     40  C   UNL d   1      28.587 -16.527  -1.733  0.00  0.00     0.030 C 
ENDBRANCH  10  35
TORSDOF 11
ENDMDL
MODEL 5
REMARK VINA RESULT:    -9.947      5.211      7.404
REMARK INTER + INTRA:         -16.287
REMARK INTER:                 -13.228
REMARK INTRA:                  -3.058
REMARK CONF_INDEPENDENT:        3.281
REMARK UNBOUND:                -3.058
REMARK  11 active torsions:
REMARK  status: ('A' for Active; 'I' for Inactive)
REMARK    1  A    between atoms: C_2  and  C_3 
REMARK    2  A    between atoms: C_3  and  C_4 
REMARK    3  A    between atoms: C_4  and  C_5 
REMARK    4  A    between atoms: C_5  and  O_6 
REMARK    5  A    between atoms: O_6  and  C_7 
REMARK    6  A    between atoms: C_10  and  C_11 
REMARK    7  A    between atoms: N_12  and  N_13 
REMARK       I    between atoms: N_13  and  C_14 
REMARK    8  A    between atoms: C_14  and  C_16 
REMARK    9  A    between atoms: C_16  and  S_17 
REMARK   10  A    between atoms: S_17  and  C_18 
REMARK   11  A    between atoms: N_27  and  C_28 
ROOT
ATOM      1  C   UNL d   1      29.513 -13.534  -1.733  0.00  0.00     0.177 A 
ATOM      2  N   UNL d   1      30.332 -14.029  -0.845  0.00  0.00    -0.216 NA
ATOM      3  C   UNL d   1      29.899 -14.008   0.444  0.00  0.00     0.117 A 
ATOM      4  S   UNL d   1      30.853 -14.567   1.754  0.00  0.00    -0.073 SA
ATOM      5  C   UNL d   1      29.616 -14.244   2.883  0.00  0.00    -0.008 A 
ATOM      6  C   UNL d   1      28.481 -13.723   2.294  0.00  0.00    -0.026 A 
ATOM      7  C   UNL d   1      28.681 -13.550   0.891  0.00  0.00     0.076 A 
ATOM      8  C   UNL d   1      27.773 -13.003  -0.077  0.00  0.00     0.268 A 
ATOM      9  O   UNL d   1      26.640 -12.637   0.263  0.00  0.00    -0.267 OA
ATOM     10  N   UNL d   1      28.259 -12.979  -1.392  0.00  0.00    -0.256 N 
ATOM     11  C   UNL d   1      27.245 -13.383   3.082  0.00  0.00     0.041 C 
ATOM     12  C   UNL d   1      27.274 -14.054   4.462  0.00  0.00     0.005 C 
ATOM     13  C   UNL d   1      28.636 -13.822   5.130  0.00  0.00     0.005 C 
ATOM     14  C   UNL d   1      29.752 -14.540   4.348  0.00  0.00     0.047 C 
ENDROOT
BRANCH   1  15
ATOM     15  S   UNL d   1      30.210 -13.396  -3.376  0.00  0.00    -0.082 SA
BRANCH  15  16
ATOM     16  C   UNL d   1      29.749 -14.841  -4.384  0.00  0.00     0.186 C 
BRANCH  16  17
ATOM     17  C   UNL d   1      28.367 -15.430  -4.110  0.00  0.00     0.247 C 
ATOM     18  N   UNL d   1      28.104 -15.697  -2.744  0.00  0.00    -0.247 N 
ATOM     19  H   UNL d   1      28.775 -15.535  -2.001  0.00  0.00     0.192 HD
ATOM     20  O   UNL d   1      27.523 -15.573  -4.993  0.00  0.00    -0.271 OA
BRANCH  18  21
ATOM     21  N   UNL d   1      26.850 -16.165  -2.433  0.00  0.00    -0.184 NA
ATOM     22  C   UNL d   1      26.525 -16.449  -1.210  0.00  0.00     0.150 C 
BRANCH  22  23
ATOM     23  C   UNL d   1      25.181 -17.039  -0.911  0.00  0.00    -0.017 A 
ATOM     24  C   UNL d   1      24.004 -16.401  -1.315  0.00  0.00     0.015 A 
ATOM     25  C   UNL d   1      22.755 -16.892  -0.891  0.00  0.00     0.037 A 
ATOM     26  C   UNL d   1      22.663 -18.059  -0.126  0.00  0.00     0.068 A 
ATOM     27  C   UNL d   1      23.835 -18.723   0.229  0.00  0.00     0.037 A 
ATOM     28  C   UNL d   1      25.085 -18.213  -0.153  0.00  0.00     0.015 A 
BRANCH  26  29
ATOM     29  O   UNL d   1      21.398 -18.522   0.129  0.00  0.00    -0.351 OA
BRANCH  29  30
ATOM     30  C   UNL d   1      20.806 -19.328  -0.895  0.00  0.00     0.175 C 
BRANCH  30  31
ATOM     31  C   UNL d   1      19.309 -19.469  -0.612  0.00  0.00     0.027 C 
BRANCH  31  32
ATOM     32  C   UNL d   1      19.029 -20.712   0.230  0.00  0.00     0.002 C 
BRANCH  32  33
ATOM     33  C   UNL d   1      18.777 -20.351   1.691  0.00  0.00    -0.004 C 
ATOM     34  C   UNL d   1      20.003 -19.691   2.302  0.00  0.00     0.005 C 
ENDBRANCH  32  33
ENDBRANCH  31  32
ENDBRANCH  30  31
ENDBRANCH  29  30
ENDBRANCH  26  29
ENDBRANCH  22  23
ENDBRANCH  18  21
ENDBRANCH  16  17
ENDBRANCH  15  16
ENDBRANCH   1  15
BRANCH  10  35
ATOM     35  C   UNL d   1      27.322 -12.498  -2.332  0.00  0.00     0.044 C 
ATOM     36  C   UNL d   1      26.204 -13.254  -2.687  0.00  0.00     0.030 C 
ATOM     37  C   UNL d   1      25.349 -12.780  -3.680  0.00  0.00     0.002 C 
ATOM     38  C   UNL d   1      25.532 -11.503  -4.206  0.00  0.00     0.000 C 
ATOM     39  C   UNL d   1      26.671 -10.779  -3.886  0.00  0.00     0.002 C 
ATOM     40  C   UNL d   1      27.626 -11.349  -3.051  0.00  0.00     0.030 C 
ENDBRANCH  10  35
TORSDOF 11
ENDMDL
MODEL 6
REMARK VINA RESULT:    -9.875      3.428      6.220
REMARK INTER + INTRA:         -16.637
REMARK INTER:                 -13.156
REMARK INTRA:                  -3.481
REMARK CONF_INDEPENDENT:        3.281
REMARK UNBOUND:                -3.481
REMARK  11 active torsions:
REMARK  status: ('A' for Active; 'I' for Inactive)
REMARK    1  A    between atoms: C_2  and  C_3 
REMARK    2  A    between atoms: C_3  and  C_4 
REMARK    3  A    between atoms: C_4  and  C_5 
REMARK    4  A    between atoms: C_5  and  O_6 
REMARK    5  A    between atoms: O_6  and  C_7 
REMARK    6  A    between atoms: C_10  and  C_11 
REMARK    7  A    between atoms: N_12  and  N_13 
REMARK       I    between atoms: N_13  and  C_14 
REMARK    8  A    between atoms: C_14  and  C_16 
REMARK    9  A    between atoms: C_16  and  S_17 
REMARK   10  A    between atoms: S_17  and  C_18 
REMARK   11  A    between atoms: N_27  and  C_28 
ROOT
ATOM      1  C   UNL d   1      30.865 -15.993  -3.247  0.00  0.00     0.177 A 
ATOM      2  N   UNL d   1      30.525 -15.010  -2.459  0.00  0.00    -0.216 NA
ATOM      3  C   UNL d   1      29.413 -14.312  -2.818  0.00  0.00     0.117 A 
ATOM      4  S   UNL d   1      28.840 -12.959  -1.936  0.00  0.00    -0.073 SA
ATOM      5  C   UNL d   1      27.502 -12.762  -2.976  0.00  0.00    -0.008 A 
ATOM      6  C   UNL d   1      27.468 -13.704  -3.983  0.00  0.00    -0.026 A 
ATOM      7  C   UNL d   1      28.607 -14.562  -3.904  0.00  0.00     0.076 A 
ATOM      8  C   UNL d   1      28.972 -15.640  -4.778  0.00  0.00     0.268 A 
ATOM      9  O   UNL d   1      28.244 -15.948  -5.732  0.00  0.00    -0.267 OA
ATOM     10  N   UNL d   1      30.151 -16.311  -4.425  0.00  0.00    -0.256 N 
ATOM     11  C   UNL d   1      26.367 -13.752  -5.009  0.00  0.00     0.041 C 
ATOM     12  C   UNL d   1      25.154 -12.934  -4.546  0.00  0.00     0.005 C 
ATOM     13  C   UNL d   1      25.609 -11.556  -4.047  0.00  0.00     0.005 C 
ATOM     14  C   UNL d   1      26.464 -11.698  -2.773  0.00  0.00     0.047 C 
ENDROOT
BRANCH   1  15
ATOM     15  S   UNL d   1      32.440 -16.742  -2.846  0.00  0.00    -0.082 SA
BRANCH  15  16
ATOM     16  C   UNL d   1      32.262 -17.871  -1.428  0.00  0.00     0.186 C 
BRANCH  16  17
ATOM     17  C   UNL d   1      30.830 -18.190  -1.007  0.00  0.00     0.247 C 
ATOM     18  N   UNL d   1      30.008 -17.052  -0.816  0.00  0.00    -0.247 N 
ATOM     19  H   UNL d   1      30.335 -16.097  -0.928  0.00  0.00     0.192 HD
ATOM     20  O   UNL d   1      30.405 -19.341  -0.928  0.00  0.00    -0.271 OA
BRANCH  18  21
ATOM     21  N   UNL d   1      28.691 -17.282  -0.502  0.00  0.00    -0.184 NA
ATOM     22  C   UNL d   1      27.734 -16.875  -1.278  0.00  0.00     0.150 C 
BRANCH  22  23
ATOM     23  C   UNL d   1      26.306 -17.063  -0.867  0.00  0.00    -0.017 A 
ATOM     24  C   UNL d   1      25.960 -17.937   0.168  0.00  0.00     0.015 A 
ATOM     25  C   UNL d   1      24.605 -18.213   0.433  0.00  0.00     0.037 A 
ATOM     26  C   UNL d   1      23.588 -17.569  -0.278  0.00  0.00     0.068 A 
ATOM     27  C   UNL d   1      23.936 -16.657  -1.272  0.00  0.00     0.037 A 
ATOM     28  C   UNL d   1      25.284 -16.412  -1.570  0.00  0.00     0.015 A 
BRANCH  26  29
ATOM     29  O   UNL d   1      22.305 -17.812   0.140  0.00  0.00    -0.351 OA
BRANCH  29  30
ATOM     30  C   UNL d   1      21.803 -19.130  -0.106  0.00  0.00     0.175 C 
BRANCH  30  31
ATOM     31  C   UNL d   1      20.666 -19.045  -1.126  0.00  0.00     0.027 C 
BRANCH  31  32
ATOM     32  C   UNL d   1      19.377 -19.631  -0.555  0.00  0.00     0.002 C 
BRANCH  32  33
ATOM     33  C   UNL d   1      19.666 -20.634   0.559  0.00  0.00    -0.004 C 
ATOM     34  C   UNL d   1      18.376 -21.085   1.224  0.00  0.00     0.005 C 
ENDBRANCH  32  33
ENDBRANCH  31  32
ENDBRANCH  30  31
ENDBRANCH  29  30
ENDBRANCH  26  29
ENDBRANCH  22  23
ENDBRANCH  18  21
ENDBRANCH  16  17
ENDBRANCH  15  16
ENDBRANCH   1  15
BRANCH  10  35
ATOM     35  C   UNL d   1      30.451 -17.407  -5.262  0.00  0.00     0.044 C 
ATOM     36  C   UNL d   1      30.405 -18.716  -4.781  0.00  0.00     0.030 C 
ATOM     37  C   UNL d   1      30.789 -19.763  -5.617  0.00  0.00     0.002 C 
ATOM     38  C   UNL d   1      31.076 -19.514  -6.958  0.00  0.00     0.000 C 
ATOM     39  C   UNL d   1      31.169 -18.208  -7.416  0.00  0.00     0.002 C 
ATOM     40  C   UNL d   1      30.986 -17.160  -6.521  0.00  0.00     0.030 C 
ENDBRANCH  10  35
TORSDOF 11
ENDMDL
MODEL 7
REMARK VINA RESULT:    -9.805      3.610      5.059
REMARK INTER + INTRA:         -15.303
REMARK INTER:                 -13.086
REMARK INTRA:                  -2.217
REMARK CONF_INDEPENDENT:        3.281
REMARK UNBOUND:                -2.217
REMARK  11 active torsions:
REMARK  status: ('A' for Active; 'I' for Inactive)
REMARK    1  A    between atoms: C_2  and  C_3 
REMARK    2  A    between atoms: C_3  and  C_4 
REMARK    3  A    between atoms: C_4  and  C_5 
REMARK    4  A    between atoms: C_5  and  O_6 
REMARK    5  A    between atoms: O_6  and  C_7 
REMARK    6  A    between atoms: C_10  and  C_11 
REMARK    7  A    between atoms: N_12  and  N_13 
REMARK       I    between atoms: N_13  and  C_14 
REMARK    8  A    between atoms: C_14  and  C_16 
REMARK    9  A    between atoms: C_16  and  S_17 
REMARK   10  A    between atoms: S_17  and  C_18 
REMARK   11  A    between atoms: N_27  and  C_28 
ROOT
ATOM      1  C   UNL d   1      30.693 -15.050  -2.809  0.00  0.00     0.177 A 
ATOM      2  N   UNL d   1      31.638 -15.933  -2.628  0.00  0.00    -0.216 NA
ATOM      3  C   UNL d   1      31.654 -16.979  -3.498  0.00  0.00     0.117 A 
ATOM      4  S   UNL d   1      32.786 -18.261  -3.390  0.00  0.00    -0.073 SA
ATOM      5  C   UNL d   1      32.158 -19.025  -4.780  0.00  0.00    -0.008 A 
ATOM      6  C   UNL d   1      31.104 -18.329  -5.338  0.00  0.00    -0.026 A 
ATOM      7  C   UNL d   1      30.797 -17.175  -4.556  0.00  0.00     0.076 A 
ATOM      8  C   UNL d   1      29.754 -16.212  -4.763  0.00  0.00     0.268 A 
ATOM      9  O   UNL d   1      28.997 -16.307  -5.739  0.00  0.00    -0.267 OA
ATOM     10  N   UNL d   1      29.717 -15.172  -3.823  0.00  0.00    -0.256 N 
ATOM     11  C   UNL d   1      30.402 -18.791  -6.588  0.00  0.00     0.041 C 
ATOM     12  C   UNL d   1      31.245 -19.833  -7.335  0.00  0.00     0.005 C 
ATOM     13  C   UNL d   1      31.745 -20.904  -6.356  0.00  0.00     0.005 C 
ATOM     14  C   UNL d   1      32.730 -20.293  -5.342  0.00  0.00     0.047 C 
ENDROOT
BRANCH   1  15
ATOM     15  S   UNL d   1      30.591 -13.813  -1.520  0.00  0.00    -0.082 SA
BRANCH  15  16
ATOM     16  C   UNL d   1      29.767 -14.498  -0.047  0.00  0.00     0.186 C 
BRANCH  16  17
ATOM     17  C   UNL d   1      28.316 -14.931  -0.238  0.00  0.00     0.247 C 
ATOM     18  N   UNL d   1      27.938 -16.063   0.524  0.00  0.00    -0.247 N 
ATOM     19  H   UNL d   1      28.573 -16.567   1.135  0.00  0.00     0.192 HD
ATOM     20  O   UNL d   1      27.521 -14.293  -0.926  0.00  0.00    -0.271 OA
BRANCH  18  21
ATOM     21  N   UNL d   1      26.624 -16.457   0.443  0.00  0.00    -0.184 NA
ATOM     22  C   UNL d   1      26.174 -17.084  -0.599  0.00  0.00     0.150 C 
BRANCH  22  23
ATOM     23  C   UNL d   1      24.719 -17.423  -0.698  0.00  0.00    -0.017 A 
ATOM     24  C   UNL d   1      23.756 -16.428  -0.895  0.00  0.00     0.015 A 
ATOM     25  C   UNL d   1      22.387 -16.750  -0.830  0.00  0.00     0.037 A 
ATOM     26  C   UNL d   1      21.967 -18.070  -0.642  0.00  0.00     0.068 A 
ATOM     27  C   UNL d   1      22.929 -19.067  -0.499  0.00  0.00     0.037 A 
ATOM     28  C   UNL d   1      24.294 -18.745  -0.519  0.00  0.00     0.015 A 
BRANCH  26  29
ATOM     29  O   UNL d   1      20.617 -18.297  -0.719  0.00  0.00    -0.351 OA
BRANCH  29  30
ATOM     30  C   UNL d   1      20.220 -19.644  -0.997  0.00  0.00     0.175 C 
BRANCH  30  31
ATOM     31  C   UNL d   1      18.781 -19.846  -0.520  0.00  0.00     0.027 C 
BRANCH  31  32
ATOM     32  C   UNL d   1      18.713 -20.915   0.568  0.00  0.00     0.002 C 
BRANCH  32  33
ATOM     33  C   UNL d   1      18.813 -20.299   1.961  0.00  0.00    -0.004 C 
ATOM     34  C   UNL d   1      20.181 -19.671   2.175  0.00  0.00     0.005 C 
ENDBRANCH  32  33
ENDBRANCH  31  32
ENDBRANCH  30  31
ENDBRANCH  29  30
ENDBRANCH  26  29
ENDBRANCH  22  23
ENDBRANCH  18  21
ENDBRANCH  16  17
ENDBRANCH  15  16
ENDBRANCH   1  15
BRANCH  10  35
ATOM     35  C   UNL d   1      28.725 -14.204  -4.089  0.00  0.00     0.044 C 
ATOM     36  C   UNL d   1      27.370 -14.494  -3.917  0.00  0.00     0.030 C 
ATOM     37  C   UNL d   1      26.419 -13.539  -4.270  0.00  0.00     0.002 C 
ATOM     38  C   UNL d   1      26.823 -12.261  -4.653  0.00  0.00     0.000 C 
ATOM     39  C   UNL d   1      28.168 -11.996  -4.870  0.00  0.00     0.002 C 
ATOM     40  C   UNL d   1      29.096 -13.020  -4.714  0.00  0.00     0.030 C 
ENDBRANCH  10  35
TORSDOF 11
ENDMDL
MODEL 8
REMARK VINA RESULT:    -8.752      5.481      8.256
REMARK INTER + INTRA:         -15.809
REMARK INTER:                 -12.034
REMARK INTRA:                  -3.775
REMARK CONF_INDEPENDENT:        3.281
REMARK UNBOUND:                -3.775
REMARK  11 active torsions:
REMARK  status: ('A' for Active; 'I' for Inactive)
REMARK    1  A    between atoms: C_2  and  C_3 
REMARK    2  A    between atoms: C_3  and  C_4 
REMARK    3  A    between atoms: C_4  and  C_5 
REMARK    4  A    between atoms: C_5  and  O_6 
REMARK    5  A    between atoms: O_6  and  C_7 
REMARK    6  A    between atoms: C_10  and  C_11 
REMARK    7  A    between atoms: N_12  and  N_13 
REMARK       I    between atoms: N_13  and  C_14 
REMARK    8  A    between atoms: C_14  and  C_16 
REMARK    9  A    between atoms: C_16  and  S_17 
REMARK   10  A    between atoms: S_17  and  C_18 
REMARK   11  A    between atoms: N_27  and  C_28 
ROOT
ATOM      1  C   UNL d   1      29.571 -12.807   0.687  0.00  0.00     0.177 A 
ATOM      2  N   UNL d   1      30.008 -13.763  -0.087  0.00  0.00    -0.216 NA
ATOM      3  C   UNL d   1      29.269 -14.015  -1.201  0.00  0.00     0.117 A 
ATOM      4  S   UNL d   1      29.655 -15.264  -2.310  0.00  0.00    -0.073 SA
ATOM      5  C   UNL d   1      28.348 -14.858  -3.328  0.00  0.00    -0.008 A 
ATOM      6  C   UNL d   1      27.617 -13.787  -2.853  0.00  0.00    -0.026 A 
ATOM      7  C   UNL d   1      28.136 -13.344  -1.599  0.00  0.00     0.076 A 
ATOM      8  C   UNL d   1      27.647 -12.292  -0.756  0.00  0.00     0.268 A 
ATOM      9  O   UNL d   1      26.669 -11.614  -1.101  0.00  0.00    -0.267 OA
ATOM     10  N   UNL d   1      28.387 -12.084   0.417  0.00  0.00    -0.256 N 
ATOM     11  C   UNL d   1      26.431 -13.227  -3.593  0.00  0.00     0.041 C 
ATOM     12  C   UNL d   1      26.421 -13.706  -5.051  0.00  0.00     0.005 C 
ATOM     13  C   UNL d   1      26.650 -15.222  -5.108  0.00  0.00     0.005 C 
ATOM     14  C   UNL d   1      28.066 -15.574  -4.616  0.00  0.00     0.047 C 
ENDROOT
BRANCH   1  15
ATOM     15  S   UNL d   1      30.457 -12.655   2.235  0.00  0.00    -0.082 SA
BRANCH  15  16
ATOM     16  C   UNL d   1      29.645 -13.645   3.530  0.00  0.00     0.186 C 
BRANCH  16  17
ATOM     17  C   UNL d   1      28.377 -14.382   3.107  0.00  0.00     0.247 C 
ATOM     18  N   UNL d   1      28.497 -15.109   1.897  0.00  0.00    -0.247 N 
ATOM     19  H   UNL d   1      29.344 -15.131   1.338  0.00  0.00     0.192 HD
ATOM     20  O   UNL d   1      27.366 -14.413   3.807  0.00  0.00    -0.271 OA
BRANCH  18  21
ATOM     21  N   UNL d   1      27.407 -15.846   1.504  0.00  0.00    -0.184 NA
ATOM     22  C   UNL d   1      27.100 -15.974   0.250  0.00  0.00     0.150 C 
BRANCH  22  23
ATOM     23  C   UNL d   1      25.857 -16.711  -0.144  0.00  0.00    -0.017 A 
ATOM     24  C   UNL d   1      25.433 -17.843   0.558  0.00  0.00     0.015 A 
ATOM     25  C   UNL d   1      24.352 -18.607   0.077  0.00  0.00     0.037 A 
ATOM     26  C   UNL d   1      23.642 -18.211  -1.060  0.00  0.00     0.068 A 
ATOM     27  C   UNL d   1      24.033 -17.052  -1.727  0.00  0.00     0.037 A 
ATOM     28  C   UNL d   1      25.137 -16.312  -1.277  0.00  0.00     0.015 A 
BRANCH  26  29
ATOM     29  O   UNL d   1      22.532 -18.951  -1.373  0.00  0.00    -0.351 OA
BRANCH  29  30
ATOM     30  C   UNL d   1      21.604 -19.174  -0.306  0.00  0.00     0.175 C 
BRANCH  30  31
ATOM     31  C   UNL d   1      20.214 -19.414  -0.899  0.00  0.00     0.027 C 
BRANCH  31  32
ATOM     32  C   UNL d   1      19.155 -19.468   0.200  0.00  0.00     0.002 C 
BRANCH  32  33
ATOM     33  C   UNL d   1      19.301 -20.725   1.054  0.00  0.00    -0.004 C 
ATOM     34  C   UNL d   1      18.040 -21.571   0.986  0.00  0.00     0.005 C 
ENDBRANCH  32  33
ENDBRANCH  31  32
ENDBRANCH  30  31
ENDBRANCH  29  30
ENDBRANCH  26  29
ENDBRANCH  22  23
ENDBRANCH  18  21
ENDBRANCH  16  17
ENDBRANCH  15  16
ENDBRANCH   1  15
BRANCH  10  35
ATOM     35  C   UNL d   1      27.924 -11.001   1.194  0.00  0.00     0.044 C 
ATOM     36  C   UNL d   1      28.295  -9.689   0.898  0.00  0.00     0.030 C 
ATOM     37  C   UNL d   1      27.884  -8.658   1.740  0.00  0.00     0.002 C 
ATOM     38  C   UNL d   1      26.995  -8.921   2.781  0.00  0.00     0.000 C 
ATOM     39  C   UNL d   1      26.670 -10.231   3.100  0.00  0.00     0.002 C 
ATOM     40  C   UNL d   1      27.252 -11.270   2.381  0.00  0.00     0.030 C 
ENDBRANCH  10  35
TORSDOF 11
ENDMDL
MODEL 9
REMARK VINA RESULT:    -8.685      4.855      6.795
REMARK INTER + INTRA:         -15.658
REMARK INTER:                 -11.967
REMARK INTRA:                  -3.692
REMARK CONF_INDEPENDENT:        3.281
REMARK UNBOUND:                -3.692
REMARK  11 active torsions:
REMARK  status: ('A' for Active; 'I' for Inactive)
REMARK    1  A    between atoms: C_2  and  C_3 
REMARK    2  A    between atoms: C_3  and  C_4 
REMARK    3  A    between atoms: C_4  and  C_5 
REMARK    4  A    between atoms: C_5  and  O_6 
REMARK    5  A    between atoms: O_6  and  C_7 
REMARK    6  A    between atoms: C_10  and  C_11 
REMARK    7  A    between atoms: N_12  and  N_13 
REMARK       I    between atoms: N_13  and  C_14 
REMARK    8  A    between atoms: C_14  and  C_16 
REMARK    9  A    between atoms: C_16  and  S_17 
REMARK   10  A    between atoms: S_17  and  C_18 
REMARK   11  A    between atoms: N_27  and  C_28 
ROOT
ATOM      1  C   UNL d   1      29.213 -13.209  -3.564  0.00  0.00     0.177 A 
ATOM      2  N   UNL d   1      28.672 -12.261  -2.847  0.00  0.00    -0.216 NA
ATOM      3  C   UNL d   1      28.451 -12.554  -1.538  0.00  0.00     0.117 A 
ATOM      4  S   UNL d   1      27.705 -11.456  -0.453  0.00  0.00    -0.073 SA
ATOM      5  C   UNL d   1      27.866 -12.535   0.858  0.00  0.00    -0.008 A 
ATOM      6  C   UNL d   1      28.480 -13.718   0.500  0.00  0.00    -0.026 A 
ATOM      7  C   UNL d   1      28.768 -13.730  -0.898  0.00  0.00     0.076 A 
ATOM      8  C   UNL d   1      29.361 -14.779  -1.676  0.00  0.00     0.268 A 
ATOM      9  O   UNL d   1      29.725 -15.832  -1.135  0.00  0.00    -0.267 OA
ATOM     10  N   UNL d   1      29.529 -14.481  -3.036  0.00  0.00    -0.256 N 
ATOM     11  C   UNL d   1      28.758 -14.817   1.492  0.00  0.00     0.041 C 
ATOM     12  C   UNL d   1      28.659 -14.292   2.930  0.00  0.00     0.005 C 
ATOM     13  C   UNL d   1      27.370 -13.478   3.106  0.00  0.00     0.005 C 
ATOM     14  C   UNL d   1      27.418 -12.198   2.250  0.00  0.00     0.047 C 
ENDROOT
BRANCH   1  15
ATOM     15  S   UNL d   1      29.292 -12.849  -5.315  0.00  0.00    -0.082 SA
BRANCH  15  16
ATOM     16  C   UNL d   1      27.878 -13.601  -6.182  0.00  0.00     0.186 C 
BRANCH  16  17
ATOM     17  C   UNL d   1      26.969 -14.485  -5.331  0.00  0.00     0.247 C 
ATOM     18  N   UNL d   1      26.563 -13.900  -4.106  0.00  0.00    -0.247 N 
ATOM     19  H   UNL d   1      26.858 -12.979  -3.798  0.00  0.00     0.192 HD
ATOM     20  O   UNL d   1      26.555 -15.575  -5.720  0.00  0.00    -0.271 OA
BRANCH  18  21
ATOM     21  N   UNL d   1      25.690 -14.624  -3.331  0.00  0.00    -0.184 NA
ATOM     22  C   UNL d   1      26.118 -15.395  -2.379  0.00  0.00     0.150 C 
BRANCH  22  23
ATOM     23  C   UNL d   1      25.150 -16.239  -1.608  0.00  0.00    -0.017 A 
ATOM     24  C   UNL d   1      25.562 -17.415  -0.974  0.00  0.00     0.015 A 
ATOM     25  C   UNL d   1      24.609 -18.270  -0.388  0.00  0.00     0.037 A 
ATOM     26  C   UNL d   1      23.254 -17.927  -0.364  0.00  0.00     0.068 A 
ATOM     27  C   UNL d   1      22.854 -16.728  -0.949  0.00  0.00     0.037 A 
ATOM     28  C   UNL d   1      23.793 -15.894  -1.573  0.00  0.00     0.015 A 
BRANCH  26  29
ATOM     29  O   UNL d   1      22.427 -18.764   0.339  0.00  0.00    -0.351 OA
BRANCH  29  30
ATOM     30  C   UNL d   1      21.349 -19.349  -0.400  0.00  0.00     0.175 C 
BRANCH  30  31
ATOM     31  C   UNL d   1      20.180 -19.612   0.552  0.00  0.00     0.027 C 
BRANCH  31  32
ATOM     32  C   UNL d   1      19.079 -20.409  -0.145  0.00  0.00     0.002 C 
BRANCH  32  33
ATOM     33  C   UNL d   1      18.263 -21.223   0.855  0.00  0.00    -0.004 C 
ATOM     34  C   UNL d   1      18.072 -20.450   2.150  0.00  0.00     0.005 C 
ENDBRANCH  32  33
ENDBRANCH  31  32
ENDBRANCH  30  31
ENDBRANCH  29  30
ENDBRANCH  26  29
ENDBRANCH  22  23
ENDBRANCH  18  21
ENDBRANCH  16  17
ENDBRANCH  15  16
ENDBRANCH   1  15
BRANCH  10  35
ATOM     35  C   UNL d   1      30.175 -15.503  -3.763  0.00  0.00     0.044 C 
ATOM     36  C   UNL d   1      29.476 -16.630  -4.199  0.00  0.00     0.030 C 
ATOM     37  C   UNL d   1      30.169 -17.655  -4.840  0.00  0.00     0.002 C 
ATOM     38  C   UNL d   1      31.513 -17.489  -5.169  0.00  0.00     0.000 C 
ATOM     39  C   UNL d   1      32.212 -16.390  -4.690  0.00  0.00     0.002 C 
ATOM     40  C   UNL d   1      31.560 -15.474  -3.872  0.00  0.00     0.030 C 
ENDBRANCH  10  35
TORSDOF 11
ENDMDL
