MODEL 1
REMARK VINA RESULT:   -28.089      0.000      0.000
REMARK INTER + INTRA:         -29.751
REMARK INTER:                 -29.580
REMARK INTRA:                  -0.171
REMARK CONF_INDEPENDENT:        1.492
REMARK UNBOUND:                -0.171
REMARK  5 active torsions:
REMARK  status: ('A' for Active; 'I' for Inactive)
REMARK    1  A    between atoms: C_6  and  C_7 
REMARK    2  A    between atoms: C_7  and  N_8 
REMARK       I    between atoms: N_8  and  C_9 
REMARK    3  A    between atoms: C_9  and  C_11 
REMARK    4  A    between atoms: C_11  and  C_12 
REMARK    5  A    between atoms: C_12  and  C_13 
ROOT
ATOM      1  N   UNL d   1      24.438 -17.870   0.137  0.00  0.00    -0.357 N 
ATOM      2  C   UNL d   1      24.771 -17.312  -1.067  0.00  0.00     0.217 C 
ATOM      3  O   UNL d   1      24.261 -17.664  -2.127  0.00  0.00    -0.274 OA
ATOM      4  H   UNL d   1      24.924 -17.529   0.943  0.00  0.00     0.162 HD
ENDROOT
BRANCH   1   5
ATOM      5  C   UNL d   1      23.456 -18.923   0.249  0.00  0.00     0.164 C 
BRANCH   5   6
ATOM      6  C   UNL d   1      22.108 -18.560  -0.298  0.00  0.00     0.002 A 
ATOM      7  C   UNL d   1      21.796 -17.362  -0.920  0.00  0.00     0.120 A 
ATOM      8  N   UNL d   1      20.480 -17.423  -1.269  0.00  0.00    -0.288 N 
ATOM      9  N   UNL d   1      19.896 -18.575  -0.925  0.00  0.00    -0.180 NA
ATOM     10  H   UNL d   1      19.917 -16.722  -1.741  0.00  0.00     0.188 HD
ATOM     11  C   UNL d   1      20.872 -19.276  -0.335  0.00  0.00     0.060 A 
ATOM     12  C   UNL d   1      20.561 -20.634   0.176  0.00  0.00     0.073 C 
ENDBRANCH   5   6
ENDBRANCH   1   5
BRANCH   2  13
ATOM     13  C   UNL d   1      25.838 -16.233  -0.956  0.00  0.00     0.103 C 
BRANCH  13  14
ATOM     14  C   UNL d   1      26.710 -16.211  -2.212  0.00  0.00     0.013 C 
BRANCH  14  15
ATOM     15  C   UNL d   1      26.509 -14.971  -3.093  0.00  0.00    -0.022 C 
ATOM     16  C   UNL d   1      26.740 -15.288  -4.570  0.00  0.00     0.009 C 
ATOM     17  C   UNL d   1      25.088 -14.432  -2.906  0.00  0.00     0.009 C 
ENDBRANCH  14  15
ENDBRANCH  13  14
ENDBRANCH   2  13
TORSDOF 5
ENDMDL
MODEL 2
REMARK VINA RESULT:   -28.071      0.919      1.251
REMARK INTER + INTRA:         -29.830
REMARK INTER:                 -29.563
REMARK INTRA:                  -0.267
REMARK CONF_INDEPENDENT:        1.492
REMARK UNBOUND:                -0.267
REMARK  5 active torsions:
REMARK  status: ('A' for Active; 'I' for Inactive)
REMARK    1  A    between atoms: C_6  and  C_7 
REMARK    2  A    between atoms: C_7  and  N_8 
REMARK       I    between atoms: N_8  and  C_9 
REMARK    3  A    between atoms: C_9  and  C_11 
REMARK    4  A    between atoms: C_11  and  C_12 
REMARK    5  A    between atoms: C_12  and  C_13 
ROOT
ATOM      1  N   UNL d   1      24.571 -18.348  -0.492  0.00  0.00    -0.357 N 
ATOM      2  C   UNL d   1      24.829 -17.004  -0.508  0.00  0.00     0.217 C 
ATOM      3  O   UNL d   1      24.147 -16.189   0.108  0.00  0.00    -0.274 OA
ATOM      4  H   UNL d   1      25.171 -18.930  -1.042  0.00  0.00     0.162 HD
ENDROOT
BRANCH   1   5
ATOM      5  C   UNL d   1      23.469 -18.908   0.255  0.00  0.00     0.164 C 
BRANCH   5   6
ATOM      6  C   UNL d   1      22.119 -18.556  -0.294  0.00  0.00     0.002 A 
ATOM      7  C   UNL d   1      21.813 -17.386  -0.971  0.00  0.00     0.120 A 
ATOM      8  N   UNL d   1      20.493 -17.448  -1.301  0.00  0.00    -0.288 N 
ATOM      9  N   UNL d   1      19.900 -18.575  -0.895  0.00  0.00    -0.180 NA
ATOM     10  H   UNL d   1      19.932 -16.764  -1.802  0.00  0.00     0.188 HD
ATOM     11  C   UNL d   1      20.875 -19.258  -0.283  0.00  0.00     0.060 A 
ATOM     12  C   UNL d   1      20.554 -20.585   0.298  0.00  0.00     0.073 C 
ENDBRANCH   5   6
ENDBRANCH   1   5
BRANCH   2  13
ATOM     13  C   UNL d   1      26.025 -16.631  -1.371  0.00  0.00     0.103 C 
BRANCH  13  14
ATOM     14  C   UNL d   1      25.872 -15.209  -1.912  0.00  0.00     0.013 C 
BRANCH  14  15
ATOM     15  C   UNL d   1      25.542 -15.141  -3.409  0.00  0.00    -0.022 C 
ATOM     16  C   UNL d   1      24.709 -13.904  -3.746  0.00  0.00     0.009 C 
ATOM     17  C   UNL d   1      26.839 -15.116  -4.221  0.00  0.00     0.009 C 
ENDBRANCH  14  15
ENDBRANCH  13  14
ENDBRANCH   2  13
TORSDOF 5
ENDMDL
MODEL 3
REMARK VINA RESULT:   -28.046      1.323      1.425
REMARK INTER + INTRA:         -30.012
REMARK INTER:                 -29.537
REMARK INTRA:                  -0.475
REMARK CONF_INDEPENDENT:        1.492
REMARK UNBOUND:                -0.475
REMARK  5 active torsions:
REMARK  status: ('A' for Active; 'I' for Inactive)
REMARK    1  A    between atoms: C_6  and  C_7 
REMARK    2  A    between atoms: C_7  and  N_8 
REMARK       I    between atoms: N_8  and  C_9 
REMARK    3  A    between atoms: C_9  and  C_11 
REMARK    4  A    between atoms: C_11  and  C_12 
REMARK    5  A    between atoms: C_12  and  C_13 
ROOT
ATOM      1  N   UNL d   1      24.569 -18.234  -0.433  0.00  0.00    -0.357 N 
ATOM      2  C   UNL d   1      25.795 -18.101   0.159  0.00  0.00     0.217 C 
ATOM      3  O   UNL d   1      26.058 -18.581   1.259  0.00  0.00    -0.274 OA
ATOM      4  H   UNL d   1      24.445 -17.790  -1.321  0.00  0.00     0.162 HD
ENDROOT
BRANCH   1   5
ATOM      5  C   UNL d   1      23.487 -18.953   0.199  0.00  0.00     0.164 C 
BRANCH   5   6
ATOM      6  C   UNL d   1      22.129 -18.590  -0.322  0.00  0.00     0.002 A 
ATOM      7  C   UNL d   1      21.809 -17.401  -0.958  0.00  0.00     0.120 A 
ATOM      8  N   UNL d   1      20.485 -17.459  -1.273  0.00  0.00    -0.288 N 
ATOM      9  N   UNL d   1      19.902 -18.600  -0.895  0.00  0.00    -0.180 NA
ATOM     10  H   UNL d   1      19.915 -16.762  -1.744  0.00  0.00     0.188 HD
ATOM     11  C   UNL d   1      20.887 -19.298  -0.317  0.00  0.00     0.060 A 
ATOM     12  C   UNL d   1      20.580 -20.644   0.225  0.00  0.00     0.073 C 
ENDBRANCH   5   6
ENDBRANCH   1   5
BRANCH   2  13
ATOM     13  C   UNL d   1      26.781 -17.293  -0.672  0.00  0.00     0.103 C 
BRANCH  13  14
ATOM     14  C   UNL d   1      26.504 -15.797  -0.526  0.00  0.00     0.013 C 
BRANCH  14  15
ATOM     15  C   UNL d   1      26.071 -15.110  -1.828  0.00  0.00    -0.022 C 
ATOM     16  C   UNL d   1      26.852 -15.640  -3.030  0.00  0.00     0.009 C 
ATOM     17  C   UNL d   1      24.574 -15.337  -2.056  0.00  0.00     0.009 C 
ENDBRANCH  14  15
ENDBRANCH  13  14
ENDBRANCH   2  13
TORSDOF 5
ENDMDL
MODEL 4
REMARK VINA RESULT:   -27.604      1.773      2.171
REMARK INTER + INTRA:         -29.393
REMARK INTER:                 -29.095
REMARK INTRA:                  -0.298
REMARK CONF_INDEPENDENT:        1.492
REMARK UNBOUND:                -0.298
REMARK  5 active torsions:
REMARK  status: ('A' for Active; 'I' for Inactive)
REMARK    1  A    between atoms: C_6  and  C_7 
REMARK    2  A    between atoms: C_7  and  N_8 
REMARK       I    between atoms: N_8  and  C_9 
REMARK    3  A    between atoms: C_9  and  C_11 
REMARK    4  A    between atoms: C_11  and  C_12 
REMARK    5  A    between atoms: C_12  and  C_13 
ROOT
ATOM      1  N   UNL d   1      24.299 -18.343   0.267  0.00  0.00    -0.357 N 
ATOM      2  C   UNL d   1      25.001 -17.603  -0.645  0.00  0.00     0.217 C 
ATOM      3  O   UNL d   1      24.879 -17.753  -1.858  0.00  0.00    -0.274 OA
ATOM      4  H   UNL d   1      24.483 -18.161   1.234  0.00  0.00     0.162 HD
ENDROOT
BRANCH   1   5
ATOM      5  C   UNL d   1      23.359 -19.364  -0.135  0.00  0.00     0.164 C 
BRANCH   5   6
ATOM      6  C   UNL d   1      22.011 -18.832  -0.521  0.00  0.00     0.002 A 
ATOM      7  C   UNL d   1      21.775 -17.587  -1.082  0.00  0.00     0.120 A 
ATOM      8  N   UNL d   1      20.431 -17.487  -1.282  0.00  0.00    -0.288 N 
ATOM      9  N   UNL d   1      19.757 -18.575  -0.897  0.00  0.00    -0.180 NA
ATOM     10  H   UNL d   1      19.905 -16.711  -1.676  0.00  0.00     0.188 HD
ATOM     11  C   UNL d   1      20.703 -19.401  -0.434  0.00  0.00     0.060 A 
ATOM     12  C   UNL d   1      20.293 -20.730   0.083  0.00  0.00     0.073 C 
ENDBRANCH   5   6
ENDBRANCH   1   5
BRANCH   2  13
ATOM     13  C   UNL d   1      25.947 -16.598  -0.006  0.00  0.00     0.103 C 
BRANCH  13  14
ATOM     14  C   UNL d   1      27.398 -17.056  -0.157  0.00  0.00     0.013 C 
BRANCH  14  15
ATOM     15  C   UNL d   1      28.305 -16.039  -0.862  0.00  0.00    -0.022 C 
ATOM     16  C   UNL d   1      28.468 -14.763  -0.037  0.00  0.00     0.009 C 
ATOM     17  C   UNL d   1      29.681 -16.663  -1.110  0.00  0.00     0.009 C 
ENDBRANCH  14  15
ENDBRANCH  13  14
ENDBRANCH   2  13
TORSDOF 5
ENDMDL
