MODEL 1
REMARK VINA RESULT:   -10.427      0.000      0.000
REMARK INTER + INTRA:         -14.395
REMARK INTER:                 -12.813
REMARK INTRA:                  -1.582
REMARK CONF_INDEPENDENT:        2.386
REMARK UNBOUND:                -1.582
REMARK  8 active torsions:
REMARK  status: ('A' for Active; 'I' for Inactive)
REMARK    1  A    between atoms: C_2  and  C_3 
REMARK       I    between atoms: C_3  and  N_5 
REMARK    2  A    between atoms: N_5  and  C_6 
REMARK    3  A    between atoms: C_10  and  N_11 
REMARK    4  A    between atoms: N_11  and  C_12 
REMARK    5  A    between atoms: C_12  and  C_13 
REMARK       I    between atoms: C_13  and  N_15 
REMARK    6  A    between atoms: N_15  and  C_16 
REMARK    7  A    between atoms: C_20  and  N_21 
REMARK       I    between atoms: N_21  and  C_22 
REMARK    8  A    between atoms: C_22  and  C_24 
ROOT
ATOM      1  C   UNL d   1      28.549 -14.007   1.886  0.00  0.00     0.239 C 
ATOM      2  O   UNL d   1      28.103 -12.863   1.817  0.00  0.00    -0.271 OA
ATOM      3  N   UNL d   1      28.880 -14.702   3.058  0.00  0.00    -0.326 N 
ATOM      4  H   UNL d   1      29.397 -15.575   3.013  0.00  0.00     0.169 HD
ENDROOT
BRANCH   1   5
ATOM      5  C   UNL d   1      28.898 -14.769   0.647  0.00  0.00     0.223 C 
BRANCH   5   6
ATOM      6  N   UNL d   1      28.219 -16.043   0.506  0.00  0.00    -0.381 N 
ATOM      7  H   UNL d   1      28.696 -16.836   0.929  0.00  0.00     0.160 HD
BRANCH   6   8
ATOM      8  C   UNL d   1      27.059 -16.230  -0.232  0.00  0.00     0.036 A 
ATOM      9  C   UNL d   1      26.823 -15.326  -1.292  0.00  0.00     0.030 A 
ATOM     10  C   UNL d   1      25.714 -15.445  -2.137  0.00  0.00     0.005 A 
ATOM     11  C   UNL d   1      24.796 -16.478  -1.942  0.00  0.00     0.030 A 
ATOM     12  C   UNL d   1      24.970 -17.369  -0.878  0.00  0.00     0.043 A 
ATOM     13  C   UNL d   1      26.119 -17.277  -0.035  0.00  0.00    -0.009 A 
ATOM     14  C   UNL d   1      26.278 -18.386   0.976  0.00  0.00     0.053 C 
BRANCH  12  15
ATOM     15  N   UNL d   1      24.017 -18.418  -0.694  0.00  0.00    -0.327 N 
ATOM     16  C   UNL d   1      22.660 -18.151  -0.553  0.00  0.00     0.221 C 
ATOM     17  O   UNL d   1      22.151 -17.051  -0.773  0.00  0.00    -0.273 OA
ATOM     18  H   UNL d   1      24.285 -19.348  -0.988  0.00  0.00     0.169 HD
BRANCH  16  19
ATOM     19  C   UNL d   1      21.785 -19.320  -0.145  0.00  0.00     0.098 C 
ATOM     20  C   UNL d   1      20.388 -19.146  -0.748  0.00  0.00     0.014 C 
ENDBRANCH  16  19
ENDBRANCH  12  15
ENDBRANCH   6   8
ENDBRANCH   5   6
ENDBRANCH   1   5
BRANCH   3  21
ATOM     21  C   UNL d   1      28.677 -14.115   4.314  0.00  0.00     0.036 C 
ATOM     22  C   UNL d   1      27.515 -13.432   4.637  0.00  0.00     0.029 C 
ATOM     23  C   UNL d   1      27.405 -12.844   5.905  0.00  0.00     0.004 C 
ATOM     24  C   UNL d   1      28.475 -12.883   6.816  0.00  0.00     0.029 C 
ATOM     25  C   UNL d   1      29.666 -13.494   6.443  0.00  0.00     0.037 C 
ATOM     26  C   UNL d   1      29.704 -14.185   5.243  0.00  0.00     0.059 C 
BRANCH  25  27
ATOM     27  N   UNL d   1      30.836 -13.370   7.225  0.00  0.00    -0.323 N 
ATOM     28  C   UNL d   1      30.924 -12.848   8.511  0.00  0.00     0.256 C 
ATOM     29  O   UNL d   1      31.881 -12.126   8.815  0.00  0.00    -0.267 OA
ATOM     30  H   UNL d   1      31.725 -13.522   6.768  0.00  0.00     0.169 HD
BRANCH  28  31
ATOM     31  C   UNL d   1      29.919 -13.246   9.569  0.00  0.00     0.032 C 
ATOM     32  C   UNL d   1      30.021 -14.485  10.210  0.00  0.00     0.017 C 
ATOM     33  C   UNL d   1      29.120 -14.825  11.230  0.00  0.00     0.001 C 
ATOM     34  C   UNL d   1      28.155 -13.912  11.661  0.00  0.00     0.000 C 
ATOM     35  C   UNL d   1      28.044 -12.683  11.032  0.00  0.00     0.001 C 
ATOM     36  C   UNL d   1      28.860 -12.400   9.942  0.00  0.00     0.017 C 
ENDBRANCH  28  31
ENDBRANCH  25  27
ENDBRANCH   3  21
TORSDOF 8
ENDMDL
MODEL 2
REMARK VINA RESULT:   -10.339      7.776     11.274
REMARK INTER + INTRA:         -14.593
REMARK INTER:                 -12.725
REMARK INTRA:                  -1.868
REMARK CONF_INDEPENDENT:        2.386
REMARK UNBOUND:                -1.868
REMARK  8 active torsions:
REMARK  status: ('A' for Active; 'I' for Inactive)
REMARK    1  A    between atoms: C_2  and  C_3 
REMARK       I    between atoms: C_3  and  N_5 
REMARK    2  A    between atoms: N_5  and  C_6 
REMARK    3  A    between atoms: C_10  and  N_11 
REMARK    4  A    between atoms: N_11  and  C_12 
REMARK    5  A    between atoms: C_12  and  C_13 
REMARK       I    between atoms: C_13  and  N_15 
REMARK    6  A    between atoms: N_15  and  C_16 
REMARK    7  A    between atoms: C_20  and  N_21 
REMARK       I    between atoms: N_21  and  C_22 
REMARK    8  A    between atoms: C_22  and  C_24 
ROOT
ATOM      1  C   UNL d   1      25.905 -15.084  -4.318  0.00  0.00     0.239 C 
ATOM      2  O   UNL d   1      25.563 -15.937  -5.134  0.00  0.00    -0.271 OA
ATOM      3  N   UNL d   1      27.212 -14.631  -4.085  0.00  0.00    -0.326 N 
ATOM      4  H   UNL d   1      27.423 -14.050  -3.280  0.00  0.00     0.169 HD
ENDROOT
BRANCH   1   5
ATOM      5  C   UNL d   1      24.914 -14.490  -3.368  0.00  0.00     0.223 C 
BRANCH   5   6
ATOM      6  N   UNL d   1      25.203 -14.719  -1.966  0.00  0.00    -0.381 N 
ATOM      7  H   UNL d   1      25.517 -13.900  -1.449  0.00  0.00     0.160 HD
BRANCH   6   8
ATOM      8  C   UNL d   1      25.168 -15.965  -1.357  0.00  0.00     0.036 A 
ATOM      9  C   UNL d   1      26.407 -16.619  -1.167  0.00  0.00     0.030 A 
ATOM     10  C   UNL d   1      26.502 -17.855  -0.518  0.00  0.00     0.005 A 
ATOM     11  C   UNL d   1      25.351 -18.483  -0.041  0.00  0.00     0.030 A 
ATOM     12  C   UNL d   1      24.101 -17.891  -0.247  0.00  0.00     0.043 A 
ATOM     13  C   UNL d   1      23.999 -16.611  -0.873  0.00  0.00    -0.009 A 
ATOM     14  C   UNL d   1      22.618 -16.004  -0.897  0.00  0.00     0.053 C 
BRANCH  12  15
ATOM     15  N   UNL d   1      22.935 -18.552   0.247  0.00  0.00    -0.327 N 
ATOM     16  C   UNL d   1      21.963 -19.051  -0.613  0.00  0.00     0.221 C 
ATOM     17  O   UNL d   1      22.112 -19.151  -1.831  0.00  0.00    -0.273 OA
ATOM     18  H   UNL d   1      22.977 -18.935   1.182  0.00  0.00     0.169 HD
BRANCH  16  19
ATOM     19  C   UNL d   1      20.677 -19.529   0.034  0.00  0.00     0.098 C 
ATOM     20  C   UNL d   1      19.499 -19.239  -0.901  0.00  0.00     0.014 C 
ENDBRANCH  16  19
ENDBRANCH  12  15
ENDBRANCH   6   8
ENDBRANCH   5   6
ENDBRANCH   1   5
BRANCH   3  21
ATOM     21  C   UNL d   1      28.281 -15.127  -4.844  0.00  0.00     0.036 C 
ATOM     22  C   UNL d   1      28.569 -14.661  -6.117  0.00  0.00     0.029 C 
ATOM     23  C   UNL d   1      29.637 -15.235  -6.822  0.00  0.00     0.004 C 
ATOM     24  C   UNL d   1      30.366 -16.309  -6.284  0.00  0.00     0.029 C 
ATOM     25  C   UNL d   1      30.008 -16.823  -5.043  0.00  0.00     0.037 C 
ATOM     26  C   UNL d   1      29.043 -16.155  -4.308  0.00  0.00     0.059 C 
BRANCH  25  27
ATOM     27  N   UNL d   1      30.557 -18.031  -4.558  0.00  0.00    -0.323 N 
ATOM     28  C   UNL d   1      30.652 -19.236  -5.246  0.00  0.00     0.256 C 
ATOM     29  O   UNL d   1      30.427 -20.298  -4.654  0.00  0.00    -0.267 OA
ATOM     30  H   UNL d   1      30.761 -18.090  -3.569  0.00  0.00     0.169 HD
BRANCH  28  31
ATOM     31  C   UNL d   1      31.135 -19.262  -6.679  0.00  0.00     0.032 C 
ATOM     32  C   UNL d   1      30.415 -19.958  -7.655  0.00  0.00     0.017 C 
ATOM     33  C   UNL d   1      30.837 -19.932  -8.992  0.00  0.00     0.001 C 
ATOM     34  C   UNL d   1      31.938 -19.163  -9.377  0.00  0.00     0.000 C 
ATOM     35  C   UNL d   1      32.659 -18.470  -8.418  0.00  0.00     0.001 C 
ATOM     36  C   UNL d   1      32.309 -18.598  -7.079  0.00  0.00     0.017 C 
ENDBRANCH  28  31
ENDBRANCH  25  27
ENDBRANCH   3  21
TORSDOF 8
ENDMDL
MODEL 3
REMARK VINA RESULT:    -9.853      7.674     10.835
REMARK INTER + INTRA:         -14.305
REMARK INTER:                 -12.240
REMARK INTRA:                  -2.065
REMARK CONF_INDEPENDENT:        2.386
REMARK UNBOUND:                -2.065
REMARK  8 active torsions:
REMARK  status: ('A' for Active; 'I' for Inactive)
REMARK    1  A    between atoms: C_2  and  C_3 
REMARK       I    between atoms: C_3  and  N_5 
REMARK    2  A    between atoms: N_5  and  C_6 
REMARK    3  A    between atoms: C_10  and  N_11 
REMARK    4  A    between atoms: N_11  and  C_12 
REMARK    5  A    between atoms: C_12  and  C_13 
REMARK       I    between atoms: C_13  and  N_15 
REMARK    6  A    between atoms: N_15  and  C_16 
REMARK    7  A    between atoms: C_20  and  N_21 
REMARK       I    between atoms: N_21  and  C_22 
REMARK    8  A    between atoms: C_22  and  C_24 
ROOT
ATOM      1  C   UNL d   1      25.606 -14.785  -4.046  0.00  0.00     0.239 C 
ATOM      2  O   UNL d   1      25.155 -15.364  -5.033  0.00  0.00    -0.271 OA
ATOM      3  N   UNL d   1      26.954 -14.486  -3.800  0.00  0.00    -0.326 N 
ATOM      4  H   UNL d   1      27.253 -14.159  -2.887  0.00  0.00     0.169 HD
ENDROOT
BRANCH   1   5
ATOM      5  C   UNL d   1      24.717 -14.417  -2.901  0.00  0.00     0.223 C 
BRANCH   5   6
ATOM      6  N   UNL d   1      25.205 -14.826  -1.597  0.00  0.00    -0.381 N 
ATOM      7  H   UNL d   1      25.781 -14.139  -1.116  0.00  0.00     0.160 HD
BRANCH   6   8
ATOM      8  C   UNL d   1      25.010 -16.087  -1.054  0.00  0.00     0.036 A 
ATOM      9  C   UNL d   1      26.167 -16.839  -0.752  0.00  0.00     0.030 A 
ATOM     10  C   UNL d   1      26.098 -18.103  -0.153  0.00  0.00     0.005 A 
ATOM     11  C   UNL d   1      24.856 -18.659   0.158  0.00  0.00     0.030 A 
ATOM     12  C   UNL d   1      23.685 -17.967  -0.164  0.00  0.00     0.043 A 
ATOM     13  C   UNL d   1      23.749 -16.661  -0.739  0.00  0.00    -0.009 A 
ATOM     14  C   UNL d   1      22.426 -15.951  -0.895  0.00  0.00     0.053 C 
BRANCH  12  15
ATOM     15  N   UNL d   1      22.424 -18.556   0.161  0.00  0.00    -0.327 N 
ATOM     16  C   UNL d   1      21.607 -19.111  -0.818  0.00  0.00     0.221 C 
ATOM     17  O   UNL d   1      21.972 -19.325  -1.974  0.00  0.00    -0.273 OA
ATOM     18  H   UNL d   1      22.281 -18.853   1.117  0.00  0.00     0.169 HD
BRANCH  16  19
ATOM     19  C   UNL d   1      20.208 -19.501  -0.382  0.00  0.00     0.098 C 
ATOM     20  C   UNL d   1      20.280 -20.236   0.960  0.00  0.00     0.014 C 
ENDBRANCH  16  19
ENDBRANCH  12  15
ENDBRANCH   6   8
ENDBRANCH   5   6
ENDBRANCH   1   5
BRANCH   3  21
ATOM     21  C   UNL d   1      27.938 -14.816  -4.741  0.00  0.00     0.036 C 
ATOM     22  C   UNL d   1      28.953 -15.721  -4.472  0.00  0.00     0.029 C 
ATOM     23  C   UNL d   1      29.918 -15.970  -5.458  0.00  0.00     0.004 C 
ATOM     24  C   UNL d   1      29.905 -15.270  -6.677  0.00  0.00     0.029 C 
ATOM     25  C   UNL d   1      28.933 -14.301  -6.896  0.00  0.00     0.037 C 
ATOM     26  C   UNL d   1      27.913 -14.170  -5.968  0.00  0.00     0.059 C 
BRANCH  25  27
ATOM     27  N   UNL d   1      29.004 -13.420  -7.998  0.00  0.00    -0.323 N 
ATOM     28  C   UNL d   1      28.117 -12.392  -8.299  0.00  0.00     0.256 C 
ATOM     29  O   UNL d   1      27.786 -12.192  -9.474  0.00  0.00    -0.267 OA
ATOM     30  H   UNL d   1      29.663 -13.639  -8.733  0.00  0.00     0.169 HD
BRANCH  28  31
ATOM     31  C   UNL d   1      27.642 -11.450  -7.214  0.00  0.00     0.032 C 
ATOM     32  C   UNL d   1      26.296 -11.075  -7.143  0.00  0.00     0.017 C 
ATOM     33  C   UNL d   1      25.851 -10.247  -6.102  0.00  0.00     0.001 C 
ATOM     34  C   UNL d   1      26.726  -9.840  -5.093  0.00  0.00     0.000 C 
ATOM     35  C   UNL d   1      28.061 -10.204  -5.154  0.00  0.00     0.001 C 
ATOM     36  C   UNL d   1      28.521 -10.922  -6.252  0.00  0.00     0.017 C 
ENDBRANCH  28  31
ENDBRANCH  25  27
ENDBRANCH   3  21
TORSDOF 8
ENDMDL
MODEL 4
REMARK VINA RESULT:    -9.500      7.616     10.050
REMARK INTER + INTRA:         -13.974
REMARK INTER:                 -11.887
REMARK INTRA:                  -2.087
REMARK CONF_INDEPENDENT:        2.386
REMARK UNBOUND:                -2.087
REMARK  8 active torsions:
REMARK  status: ('A' for Active; 'I' for Inactive)
REMARK    1  A    between atoms: C_2  and  C_3 
REMARK       I    between atoms: C_3  and  N_5 
REMARK    2  A    between atoms: N_5  and  C_6 
REMARK    3  A    between atoms: C_10  and  N_11 
REMARK    4  A    between atoms: N_11  and  C_12 
REMARK    5  A    between atoms: C_12  and  C_13 
REMARK       I    between atoms: C_13  and  N_15 
REMARK    6  A    between atoms: N_15  and  C_16 
REMARK    7  A    between atoms: C_20  and  N_21 
REMARK       I    between atoms: N_21  and  C_22 
REMARK    8  A    between atoms: C_22  and  C_24 
ROOT
ATOM      1  C   UNL d   1      25.159 -14.107  -4.071  0.00  0.00     0.239 C 
ATOM      2  O   UNL d   1      25.473 -15.044  -4.802  0.00  0.00    -0.271 OA
ATOM      3  N   UNL d   1      25.519 -12.762  -4.241  0.00  0.00    -0.326 N 
ATOM      4  H   UNL d   1      25.358 -12.086  -3.501  0.00  0.00     0.169 HD
ENDROOT
BRANCH   1   5
ATOM      5  C   UNL d   1      24.408 -14.345  -2.799  0.00  0.00     0.223 C 
BRANCH   5   6
ATOM      6  N   UNL d   1      25.218 -14.826  -1.696  0.00  0.00    -0.381 N 
ATOM      7  H   UNL d   1      25.982 -14.213  -1.421  0.00  0.00     0.160 HD
BRANCH   6   8
ATOM      8  C   UNL d   1      25.061 -16.069  -1.101  0.00  0.00     0.036 A 
ATOM      9  C   UNL d   1      26.241 -16.785  -0.795  0.00  0.00     0.030 A 
ATOM     10  C   UNL d   1      26.211 -18.025  -0.146  0.00  0.00     0.005 A 
ATOM     11  C   UNL d   1      24.989 -18.595   0.212  0.00  0.00     0.030 A 
ATOM     12  C   UNL d   1      23.796 -17.941  -0.111  0.00  0.00     0.043 A 
ATOM     13  C   UNL d   1      23.820 -16.657  -0.737  0.00  0.00    -0.009 A 
ATOM     14  C   UNL d   1      22.479 -15.981  -0.892  0.00  0.00     0.053 C 
BRANCH  12  15
ATOM     15  N   UNL d   1      22.555 -18.543   0.263  0.00  0.00    -0.327 N 
ATOM     16  C   UNL d   1      21.677 -19.049  -0.689  0.00  0.00     0.221 C 
ATOM     17  O   UNL d   1      21.968 -19.206  -1.875  0.00  0.00    -0.273 OA
ATOM     18  H   UNL d   1      22.471 -18.886   1.210  0.00  0.00     0.169 HD
BRANCH  16  19
ATOM     19  C   UNL d   1      20.306 -19.457  -0.185  0.00  0.00     0.098 C 
ATOM     20  C   UNL d   1      20.296 -19.425   1.346  0.00  0.00     0.014 C 
ENDBRANCH  16  19
ENDBRANCH  12  15
ENDBRANCH   6   8
ENDBRANCH   5   6
ENDBRANCH   1   5
BRANCH   3  21
ATOM     21  C   UNL d   1      26.278 -12.364  -5.350  0.00  0.00     0.036 C 
ATOM     22  C   UNL d   1      25.963 -11.246  -6.105  0.00  0.00     0.029 C 
ATOM     23  C   UNL d   1      26.756 -10.937  -7.220  0.00  0.00     0.004 C 
ATOM     24  C   UNL d   1      27.812 -11.777  -7.612  0.00  0.00     0.029 C 
ATOM     25  C   UNL d   1      28.059 -12.942  -6.896  0.00  0.00     0.037 C 
ATOM     26  C   UNL d   1      27.355 -13.155  -5.723  0.00  0.00     0.059 C 
BRANCH  25  27
ATOM     27  N   UNL d   1      28.955 -13.925  -7.372  0.00  0.00    -0.323 N 
ATOM     28  C   UNL d   1      30.021 -14.485  -6.675  0.00  0.00     0.256 C 
ATOM     29  O   UNL d   1      31.089 -14.701  -7.260  0.00  0.00    -0.267 OA
ATOM     30  H   UNL d   1      28.935 -14.141  -8.360  0.00  0.00     0.169 HD
BRANCH  28  31
ATOM     31  C   UNL d   1      29.846 -14.933  -5.241  0.00  0.00     0.032 C 
ATOM     32  C   UNL d   1      28.771 -15.753  -4.882  0.00  0.00     0.017 C 
ATOM     33  C   UNL d   1      28.647 -16.211  -3.562  0.00  0.00     0.001 C 
ATOM     34  C   UNL d   1      29.622 -15.910  -2.609  0.00  0.00     0.000 C 
ATOM     35  C   UNL d   1      30.690 -15.098  -2.953  0.00  0.00     0.001 C 
ATOM     36  C   UNL d   1      30.743 -14.548  -4.229  0.00  0.00     0.017 C 
ENDBRANCH  28  31
ENDBRANCH  25  27
ENDBRANCH   3  21
TORSDOF 8
ENDMDL
MODEL 5
REMARK VINA RESULT:    -9.213      2.646      5.123
REMARK INTER + INTRA:         -13.847
REMARK INTER:                 -11.600
REMARK INTRA:                  -2.247
REMARK CONF_INDEPENDENT:        2.386
REMARK UNBOUND:                -2.247
REMARK  8 active torsions:
REMARK  status: ('A' for Active; 'I' for Inactive)
REMARK    1  A    between atoms: C_2  and  C_3 
REMARK       I    between atoms: C_3  and  N_5 
REMARK    2  A    between atoms: N_5  and  C_6 
REMARK    3  A    between atoms: C_10  and  N_11 
REMARK    4  A    between atoms: N_11  and  C_12 
REMARK    5  A    between atoms: C_12  and  C_13 
REMARK       I    between atoms: C_13  and  N_15 
REMARK    6  A    between atoms: N_15  and  C_16 
REMARK    7  A    between atoms: C_20  and  N_21 
REMARK       I    between atoms: N_21  and  C_22 
REMARK    8  A    between atoms: C_22  and  C_24 
ROOT
ATOM      1  C   UNL d   1      29.447 -13.846   1.706  0.00  0.00     0.239 C 
ATOM      2  O   UNL d   1      29.549 -12.640   1.490  0.00  0.00    -0.271 OA
ATOM      3  N   UNL d   1      29.138 -14.449   2.934  0.00  0.00    -0.326 N 
ATOM      4  H   UNL d   1      29.241 -15.451   3.059  0.00  0.00     0.169 HD
ENDROOT
BRANCH   1   5
ATOM      5  C   UNL d   1      29.766 -14.845   0.640  0.00  0.00     0.223 C 
BRANCH   5   6
ATOM      6  N   UNL d   1      28.887 -15.998   0.605  0.00  0.00    -0.381 N 
ATOM      7  H   UNL d   1      29.260 -16.840   1.038  0.00  0.00     0.160 HD
BRANCH   6   8
ATOM      8  C   UNL d   1      27.664 -16.026  -0.051  0.00  0.00     0.036 A 
ATOM      9  C   UNL d   1      27.385 -14.955  -0.930  0.00  0.00     0.030 A 
ATOM     10  C   UNL d   1      26.208 -14.900  -1.685  0.00  0.00     0.005 A 
ATOM     11  C   UNL d   1      25.263 -15.921  -1.577  0.00  0.00     0.030 A 
ATOM     12  C   UNL d   1      25.480 -16.977  -0.687  0.00  0.00     0.043 A 
ATOM     13  C   UNL d   1      26.696 -17.060   0.058  0.00  0.00    -0.009 A 
ATOM     14  C   UNL d   1      26.884 -18.322   0.864  0.00  0.00     0.053 C 
BRANCH  12  15
ATOM     15  N   UNL d   1      24.498 -18.011  -0.590  0.00  0.00    -0.327 N 
ATOM     16  C   UNL d   1      23.143 -17.718  -0.476  0.00  0.00     0.221 C 
ATOM     17  O   UNL d   1      22.667 -16.596  -0.650  0.00  0.00    -0.273 OA
ATOM     18  H   UNL d   1      24.754 -18.930  -0.926  0.00  0.00     0.169 HD
BRANCH  16  19
ATOM     19  C   UNL d   1      22.229 -18.886  -0.159  0.00  0.00     0.098 C 
ATOM     20  C   UNL d   1      20.899 -18.705  -0.895  0.00  0.00     0.014 C 
ENDBRANCH  16  19
ENDBRANCH  12  15
ENDBRANCH   6   8
ENDBRANCH   5   6
ENDBRANCH   1   5
BRANCH   3  21
ATOM     21  C   UNL d   1      28.870 -13.663   4.064  0.00  0.00     0.036 C 
ATOM     22  C   UNL d   1      29.090 -14.117   5.355  0.00  0.00     0.029 C 
ATOM     23  C   UNL d   1      28.763 -13.279   6.431  0.00  0.00     0.004 C 
ATOM     24  C   UNL d   1      28.161 -12.028   6.217  0.00  0.00     0.029 C 
ATOM     25  C   UNL d   1      27.864 -11.626   4.920  0.00  0.00     0.037 C 
ATOM     26  C   UNL d   1      28.319 -12.405   3.870  0.00  0.00     0.059 C 
BRANCH  25  27
ATOM     27  N   UNL d   1      27.066 -10.489   4.664  0.00  0.00    -0.323 N 
ATOM     28  C   UNL d   1      27.108  -9.683   3.531  0.00  0.00     0.256 C 
ATOM     29  O   UNL d   1      27.004  -8.456   3.648  0.00  0.00    -0.267 OA
ATOM     30  H   UNL d   1      26.517 -10.118   5.428  0.00  0.00     0.169 HD
BRANCH  28  31
ATOM     31  C   UNL d   1      27.168 -10.303   2.152  0.00  0.00     0.032 C 
ATOM     32  C   UNL d   1      27.938  -9.712   1.145  0.00  0.00     0.017 C 
ATOM     33  C   UNL d   1      28.035 -10.323  -0.114  0.00  0.00     0.001 C 
ATOM     34  C   UNL d   1      27.421 -11.553  -0.358  0.00  0.00     0.000 C 
ATOM     35  C   UNL d   1      26.655 -12.146   0.632  0.00  0.00     0.001 C 
ATOM     36  C   UNL d   1      26.463 -11.477   1.835  0.00  0.00     0.017 C 
ENDBRANCH  28  31
ENDBRANCH  25  27
ENDBRANCH   3  21
TORSDOF 8
ENDMDL
MODEL 6
REMARK VINA RESULT:    -8.946      6.975      8.956
REMARK INTER + INTRA:         -13.676
REMARK INTER:                 -11.333
REMARK INTRA:                  -2.343
REMARK CONF_INDEPENDENT:        2.386
REMARK UNBOUND:                -2.343
REMARK  8 active torsions:
REMARK  status: ('A' for Active; 'I' for Inactive)
REMARK    1  A    between atoms: C_2  and  C_3 
REMARK       I    between atoms: C_3  and  N_5 
REMARK    2  A    between atoms: N_5  and  C_6 
REMARK    3  A    between atoms: C_10  and  N_11 
REMARK    4  A    between atoms: N_11  and  C_12 
REMARK    5  A    between atoms: C_12  and  C_13 
REMARK       I    between atoms: C_13  and  N_15 
REMARK    6  A    between atoms: N_15  and  C_16 
REMARK    7  A    between atoms: C_20  and  N_21 
REMARK       I    between atoms: N_21  and  C_22 
REMARK    8  A    between atoms: C_22  and  C_24 
ROOT
ATOM      1  C   UNL d   1      25.844 -15.009  -4.347  0.00  0.00     0.239 C 
ATOM      2  O   UNL d   1      25.528 -15.941  -5.086  0.00  0.00    -0.271 OA
ATOM      3  N   UNL d   1      27.128 -14.468  -4.192  0.00  0.00    -0.326 N 
ATOM      4  H   UNL d   1      27.328 -13.816  -3.440  0.00  0.00     0.169 HD
ENDROOT
BRANCH   1   5
ATOM      5  C   UNL d   1      24.847 -14.401  -3.413  0.00  0.00     0.223 C 
BRANCH   5   6
ATOM      6  N   UNL d   1      25.113 -14.632  -2.006  0.00  0.00    -0.381 N 
ATOM      7  H   UNL d   1      25.379 -13.806  -1.475  0.00  0.00     0.160 HD
BRANCH   6   8
ATOM      8  C   UNL d   1      25.117 -15.885  -1.410  0.00  0.00     0.036 A 
ATOM      9  C   UNL d   1      26.372 -16.515  -1.254  0.00  0.00     0.030 A 
ATOM     10  C   UNL d   1      26.507 -17.756  -0.620  0.00  0.00     0.005 A 
ATOM     11  C   UNL d   1      25.379 -18.413  -0.125  0.00  0.00     0.030 A 
ATOM     12  C   UNL d   1      24.114 -17.844  -0.297  0.00  0.00     0.043 A 
ATOM     13  C   UNL d   1      23.972 -16.560  -0.908  0.00  0.00    -0.009 A 
ATOM     14  C   UNL d   1      22.578 -15.981  -0.895  0.00  0.00     0.053 C 
BRANCH  12  15
ATOM     15  N   UNL d   1      22.972 -18.534   0.215  0.00  0.00    -0.327 N 
ATOM     16  C   UNL d   1      21.983 -19.029  -0.628  0.00  0.00     0.221 C 
ATOM     17  O   UNL d   1      22.098 -19.100  -1.852  0.00  0.00    -0.273 OA
ATOM     18  H   UNL d   1      23.047 -18.937   1.139  0.00  0.00     0.169 HD
BRANCH  16  19
ATOM     19  C   UNL d   1      20.723 -19.541   0.044  0.00  0.00     0.098 C 
ATOM     20  C   UNL d   1      19.528 -19.333  -0.890  0.00  0.00     0.014 C 
ENDBRANCH  16  19
ENDBRANCH  12  15
ENDBRANCH   6   8
ENDBRANCH   5   6
ENDBRANCH   1   5
BRANCH   3  21
ATOM     21  C   UNL d   1      28.202 -14.960  -4.947  0.00  0.00     0.036 C 
ATOM     22  C   UNL d   1      28.537 -14.444  -6.189  0.00  0.00     0.029 C 
ATOM     23  C   UNL d   1      29.606 -15.016  -6.894  0.00  0.00     0.004 C 
ATOM     24  C   UNL d   1      30.289 -16.136  -6.389  0.00  0.00     0.029 C 
ATOM     25  C   UNL d   1      29.884 -16.696  -5.183  0.00  0.00     0.037 C 
ATOM     26  C   UNL d   1      28.919 -16.034  -4.442  0.00  0.00     0.059 C 
BRANCH  25  27
ATOM     27  N   UNL d   1      30.384 -17.941  -4.742  0.00  0.00    -0.323 N 
ATOM     28  C   UNL d   1      31.276 -18.154  -3.696  0.00  0.00     0.256 C 
ATOM     29  O   UNL d   1      32.170 -19.000  -3.817  0.00  0.00    -0.267 OA
ATOM     30  H   UNL d   1      30.214 -18.749  -5.326  0.00  0.00     0.169 HD
BRANCH  28  31
ATOM     31  C   UNL d   1      31.091 -17.440  -2.375  0.00  0.00     0.032 C 
ATOM     32  C   UNL d   1      29.848 -17.449  -1.735  0.00  0.00     0.017 C 
ATOM     33  C   UNL d   1      29.698 -16.833  -0.484  0.00  0.00     0.001 C 
ATOM     34  C   UNL d   1      30.795 -16.264   0.166  0.00  0.00     0.000 C 
ATOM     35  C   UNL d   1      32.031 -16.249  -0.460  0.00  0.00     0.001 C 
ATOM     36  C   UNL d   1      32.146 -16.751  -1.751  0.00  0.00     0.017 C 
ENDBRANCH  28  31
ENDBRANCH  25  27
ENDBRANCH   3  21
TORSDOF 8
ENDMDL
MODEL 7
REMARK VINA RESULT:    -8.753      6.184      9.839
REMARK INTER + INTRA:         -13.667
REMARK INTER:                 -11.140
REMARK INTRA:                  -2.527
REMARK CONF_INDEPENDENT:        2.386
REMARK UNBOUND:                -2.527
REMARK  8 active torsions:
REMARK  status: ('A' for Active; 'I' for Inactive)
REMARK    1  A    between atoms: C_2  and  C_3 
REMARK       I    between atoms: C_3  and  N_5 
REMARK    2  A    between atoms: N_5  and  C_6 
REMARK    3  A    between atoms: C_10  and  N_11 
REMARK    4  A    between atoms: N_11  and  C_12 
REMARK    5  A    between atoms: C_12  and  C_13 
REMARK       I    between atoms: C_13  and  N_15 
REMARK    6  A    between atoms: N_15  and  C_16 
REMARK    7  A    between atoms: C_20  and  N_21 
REMARK       I    between atoms: N_21  and  C_22 
REMARK    8  A    between atoms: C_22  and  C_24 
ROOT
ATOM      1  C   UNL d   1      30.058 -15.442  -1.371  0.00  0.00     0.239 C 
ATOM      2  O   UNL d   1      30.651 -14.514  -1.917  0.00  0.00    -0.271 OA
ATOM      3  N   UNL d   1      29.604 -16.617  -1.988  0.00  0.00    -0.326 N 
ATOM      4  H   UNL d   1      28.979 -17.250  -1.499  0.00  0.00     0.169 HD
ENDROOT
BRANCH   1   5
ATOM      5  C   UNL d   1      29.649 -15.352   0.064  0.00  0.00     0.223 C 
BRANCH   5   6
ATOM      6  N   UNL d   1      28.558 -16.229   0.443  0.00  0.00    -0.381 N 
ATOM      7  H   UNL d   1      28.795 -16.944   1.126  0.00  0.00     0.160 HD
BRANCH   6   8
ATOM      8  C   UNL d   1      27.298 -16.197  -0.136  0.00  0.00     0.036 A 
ATOM      9  C   UNL d   1      26.956 -15.034  -0.862  0.00  0.00     0.030 A 
ATOM     10  C   UNL d   1      25.733 -14.909  -1.532  0.00  0.00     0.005 A 
ATOM     11  C   UNL d   1      24.805 -15.949  -1.490  0.00  0.00     0.030 A 
ATOM     12  C   UNL d   1      25.085 -17.100  -0.746  0.00  0.00     0.043 A 
ATOM     13  C   UNL d   1      26.346 -17.252  -0.092  0.00  0.00    -0.009 A 
ATOM     14  C   UNL d   1      26.594 -18.598   0.544  0.00  0.00     0.053 C 
BRANCH  12  15
ATOM     15  N   UNL d   1      24.119 -18.153  -0.714  0.00  0.00    -0.327 N 
ATOM     16  C   UNL d   1      22.797 -17.915  -0.356  0.00  0.00     0.221 C 
ATOM     17  O   UNL d   1      22.309 -16.791  -0.243  0.00  0.00    -0.273 OA
ATOM     18  H   UNL d   1      24.319 -18.985  -1.254  0.00  0.00     0.169 HD
BRANCH  16  19
ATOM     19  C   UNL d   1      21.929 -19.141  -0.146  0.00  0.00     0.098 C 
ATOM     20  C   UNL d   1      20.609 -18.965  -0.903  0.00  0.00     0.014 C 
ENDBRANCH  16  19
ENDBRANCH  12  15
ENDBRANCH   6   8
ENDBRANCH   5   6
ENDBRANCH   1   5
BRANCH   3  21
ATOM     21  C   UNL d   1      29.845 -16.844  -3.350  0.00  0.00     0.036 C 
ATOM     22  C   UNL d   1      30.434 -18.008  -3.818  0.00  0.00     0.029 C 
ATOM     23  C   UNL d   1      30.671 -18.141  -5.194  0.00  0.00     0.004 C 
ATOM     24  C   UNL d   1      30.382 -17.091  -6.083  0.00  0.00     0.029 C 
ATOM     25  C   UNL d   1      29.874 -15.897  -5.586  0.00  0.00     0.037 C 
ATOM     26  C   UNL d   1      29.522 -15.837  -4.248  0.00  0.00     0.059 C 
BRANCH  25  27
ATOM     27  N   UNL d   1      29.775 -14.743  -6.395  0.00  0.00    -0.323 N 
ATOM     28  C   UNL d   1      28.605 -14.139  -6.840  0.00  0.00     0.256 C 
ATOM     29  O   UNL d   1      28.543 -13.699  -7.995  0.00  0.00    -0.267 OA
ATOM     30  H   UNL d   1      30.621 -14.401  -6.832  0.00  0.00     0.169 HD
BRANCH  28  31
ATOM     31  C   UNL d   1      27.449 -13.916  -5.890  0.00  0.00     0.032 C 
ATOM     32  C   UNL d   1      27.096 -12.621  -5.497  0.00  0.00     0.017 C 
ATOM     33  C   UNL d   1      25.988 -12.419  -4.660  0.00  0.00     0.001 C 
ATOM     34  C   UNL d   1      25.189 -13.493  -4.264  0.00  0.00     0.000 C 
ATOM     35  C   UNL d   1      25.530 -14.780  -4.646  0.00  0.00     0.001 C 
ATOM     36  C   UNL d   1      26.697 -14.987  -5.373  0.00  0.00     0.017 C 
ENDBRANCH  28  31
ENDBRANCH  25  27
ENDBRANCH   3  21
TORSDOF 8
ENDMDL
MODEL 8
REMARK VINA RESULT:    -8.080      6.497      9.345
REMARK INTER + INTRA:         -13.703
REMARK INTER:                 -10.466
REMARK INTRA:                  -3.236
REMARK CONF_INDEPENDENT:        2.386
REMARK UNBOUND:                -3.236
REMARK  8 active torsions:
REMARK  status: ('A' for Active; 'I' for Inactive)
REMARK    1  A    between atoms: C_2  and  C_3 
REMARK       I    between atoms: C_3  and  N_5 
REMARK    2  A    between atoms: N_5  and  C_6 
REMARK    3  A    between atoms: C_10  and  N_11 
REMARK    4  A    between atoms: N_11  and  C_12 
REMARK    5  A    between atoms: C_12  and  C_13 
REMARK       I    between atoms: C_13  and  N_15 
REMARK    6  A    between atoms: N_15  and  C_16 
REMARK    7  A    between atoms: C_20  and  N_21 
REMARK       I    between atoms: N_21  and  C_22 
REMARK    8  A    between atoms: C_22  and  C_24 
ROOT
ATOM      1  C   UNL d   1      28.080 -15.133  -5.379  0.00  0.00     0.239 C 
ATOM      2  O   UNL d   1      26.936 -15.542  -5.571  0.00  0.00    -0.271 OA
ATOM      3  N   UNL d   1      28.619 -14.710  -4.156  0.00  0.00    -0.326 N 
ATOM      4  H   UNL d   1      29.514 -14.232  -4.122  0.00  0.00     0.169 HD
ENDROOT
BRANCH   1   5
ATOM      5  C   UNL d   1      29.026 -14.939  -6.522  0.00  0.00     0.223 C 
BRANCH   5   6
ATOM      6  N   UNL d   1      30.345 -15.507  -6.323  0.00  0.00    -0.381 N 
ATOM      7  H   UNL d   1      31.102 -15.020  -6.797  0.00  0.00     0.160 HD
BRANCH   6   8
ATOM      8  C   UNL d   1      30.589 -16.684  -5.630  0.00  0.00     0.036 A 
ATOM      9  C   UNL d   1      30.406 -17.893  -6.339  0.00  0.00     0.030 A 
ATOM     10  C   UNL d   1      30.672 -19.141  -5.762  0.00  0.00     0.005 A 
ATOM     11  C   UNL d   1      31.126 -19.217  -4.445  0.00  0.00     0.030 A 
ATOM     12  C   UNL d   1      31.279 -18.048  -3.694  0.00  0.00     0.043 A 
ATOM     13  C   UNL d   1      31.047 -16.769  -4.288  0.00  0.00    -0.009 A 
ATOM     14  C   UNL d   1      31.397 -15.578  -3.430  0.00  0.00     0.053 C 
BRANCH  12  15
ATOM     15  N   UNL d   1      31.743 -18.149  -2.347  0.00  0.00    -0.327 N 
ATOM     16  C   UNL d   1      30.903 -17.894  -1.268  0.00  0.00     0.221 C 
ATOM     17  O   UNL d   1      29.682 -17.767  -1.365  0.00  0.00    -0.273 OA
ATOM     18  H   UNL d   1      32.567 -18.709  -2.178  0.00  0.00     0.169 HD
BRANCH  16  19
ATOM     19  C   UNL d   1      31.566 -17.818   0.094  0.00  0.00     0.098 C 
ATOM     20  C   UNL d   1      31.382 -16.411   0.671  0.00  0.00     0.014 C 
ENDBRANCH  16  19
ENDBRANCH  12  15
ENDBRANCH   6   8
ENDBRANCH   5   6
ENDBRANCH   1   5
BRANCH   3  21
ATOM     21  C   UNL d   1      27.851 -14.764  -2.985  0.00  0.00     0.036 C 
ATOM     22  C   UNL d   1      27.392 -13.625  -2.343  0.00  0.00     0.029 C 
ATOM     23  C   UNL d   1      26.657 -13.766  -1.156  0.00  0.00     0.004 C 
ATOM     24  C   UNL d   1      26.443 -15.032  -0.584  0.00  0.00     0.029 C 
ATOM     25  C   UNL d   1      26.987 -16.157  -1.193  0.00  0.00     0.037 C 
ATOM     26  C   UNL d   1      27.589 -16.009  -2.431  0.00  0.00     0.059 C 
BRANCH  25  27
ATOM     27  N   UNL d   1      26.992 -17.414  -0.549  0.00  0.00    -0.323 N 
ATOM     28  C   UNL d   1      25.977 -17.951   0.235  0.00  0.00     0.256 C 
ATOM     29  O   UNL d   1      26.262 -18.574   1.265  0.00  0.00    -0.267 OA
ATOM     30  H   UNL d   1      27.867 -17.920  -0.513  0.00  0.00     0.169 HD
BRANCH  28  31
ATOM     31  C   UNL d   1      24.536 -17.872  -0.220  0.00  0.00     0.032 C 
ATOM     32  C   UNL d   1      23.769 -19.036  -0.343  0.00  0.00     0.017 C 
ATOM     33  C   UNL d   1      22.419 -18.951  -0.710  0.00  0.00     0.001 C 
ATOM     34  C   UNL d   1      21.807 -17.710  -0.894  0.00  0.00     0.000 C 
ATOM     35  C   UNL d   1      22.557 -16.551  -0.776  0.00  0.00     0.001 C 
ATOM     36  C   UNL d   1      23.922 -16.646  -0.531  0.00  0.00     0.017 C 
ENDBRANCH  28  31
ENDBRANCH  25  27
ENDBRANCH   3  21
TORSDOF 8
ENDMDL
