MODEL 1
REMARK VINA RESULT:    -8.714      0.000      0.000
REMARK INTER + INTRA:         -11.470
REMARK INTER:                 -10.802
REMARK INTRA:                  -0.668
REMARK CONF_INDEPENDENT:        2.088
REMARK UNBOUND:                -0.668
REMARK  7 active torsions:
REMARK  status: ('A' for Active; 'I' for Inactive)
REMARK    1  A    between atoms: O_2  and  C_3 
REMARK    2  A    between atoms: C_6  and  C_7 
REMARK    3  A    between atoms: C_7  and  C_8 
REMARK       I    between atoms: C_8  and  N_10 
REMARK    4  A    between atoms: N_10  and  C_11 
REMARK    5  A    between atoms: C_13  and  S_14 
REMARK    6  A    between atoms: S_14  and  N_15 
REMARK    7  A    between atoms: C_24  and  N_25 
ROOT
ATOM      1  C   UNL d   1      25.307 -14.009  -3.322  0.00  0.00     0.226 C 
ATOM      2  O   UNL d   1      24.780 -14.825  -4.080  0.00  0.00    -0.273 OA
ATOM      3  N   UNL d   1      25.398 -14.301  -1.971  0.00  0.00    -0.326 N 
ATOM      4  H   UNL d   1      25.155 -13.554  -1.332  0.00  0.00     0.169 HD
ENDROOT
BRANCH   3   5
ATOM      5  C   UNL d   1      25.180 -15.653  -1.545  0.00  0.00     0.042 A 
ATOM      6  C   UNL d   1      23.897 -16.217  -1.637  0.00  0.00     0.055 A 
ATOM      7  C   UNL d   1      23.654 -17.476  -1.061  0.00  0.00     0.082 A 
ATOM      8  C   UNL d   1      24.684 -18.212  -0.479  0.00  0.00     0.032 A 
ATOM      9  C   UNL d   1      25.968 -17.673  -0.400  0.00  0.00    -0.052 A 
ATOM     10  C   UNL d   1      27.031 -18.430   0.347  0.00  0.00     0.049 C 
ATOM     11  C   UNL d   1      26.233 -16.394  -0.940  0.00  0.00    -0.029 A 
ATOM     12  C   UNL d   1      27.637 -15.841  -0.831  0.00  0.00     0.051 C 
BRANCH   7  13
ATOM     13  S   UNL d   1      21.992 -18.085  -0.895  0.00  0.00     0.256 S 
ATOM     14  O   UNL d   1      21.084 -16.984  -1.022  0.00  0.00    -0.201 OA
ATOM     15  O   UNL d   1      21.875 -19.309  -1.672  0.00  0.00    -0.201 OA
BRANCH  13  16
ATOM     16  N   UNL d   1      21.992 -18.575   0.704  0.00  0.00    -0.324 N 
ATOM     17  H   UNL d   1      21.998 -19.577   0.857  0.00  0.00     0.169 HD
ATOM     18  H   UNL d   1      21.504 -17.961   1.350  0.00  0.00     0.169 HD
ENDBRANCH  13  16
ENDBRANCH   7  13
ENDBRANCH   3   5
BRANCH   1  19
ATOM     19  C   UNL d   1      25.792 -12.629  -3.823  0.00  0.00     0.141 C 
BRANCH  19  20
ATOM     20  C   UNL d   1      26.833 -12.691  -4.954  0.00  0.00    -0.047 C 
ATOM     21  C   UNL d   1      27.035 -11.628  -5.839  0.00  0.00     0.010 C 
ATOM     22  C   UNL d   1      27.845 -11.799  -6.987  0.00  0.00     0.040 C 
ATOM     23  C   UNL d   1      28.525 -13.013  -7.256  0.00  0.00     0.101 C 
ATOM     24  C   UNL d   1      28.424 -14.024  -6.309  0.00  0.00     0.136 C 
ATOM     25  C   UNL d   1      27.609 -13.838  -5.183  0.00  0.00     0.046 C 
BRANCH  23  26
ATOM     26  O   UNL d   1      29.321 -13.019  -8.366  0.00  0.00    -0.353 OA
ATOM     27  C   UNL d   1      29.946 -11.782  -8.712  0.00  0.00     0.210 C 
ENDBRANCH  23  26
BRANCH  24  28
ATOM     28  N   UNL d   1      29.160 -15.292  -6.345  0.00  0.00    -0.113 N 
ATOM     29  O   UNL d   1      28.969 -16.088  -5.412  0.00  0.00    -0.532 OA
ATOM     30  O   UNL d   1      29.956 -15.495  -7.270  0.00  0.00    -0.532 OA
ENDBRANCH  24  28
ENDBRANCH  19  20
ENDBRANCH   1  19
TORSDOF 7
ENDMDL
MODEL 2
REMARK VINA RESULT:    -8.478      1.483      1.934
REMARK INTER + INTRA:         -11.387
REMARK INTER:                 -10.566
REMARK INTRA:                  -0.822
REMARK CONF_INDEPENDENT:        2.088
REMARK UNBOUND:                -0.822
REMARK  7 active torsions:
REMARK  status: ('A' for Active; 'I' for Inactive)
REMARK    1  A    between atoms: O_2  and  C_3 
REMARK    2  A    between atoms: C_6  and  C_7 
REMARK    3  A    between atoms: C_7  and  C_8 
REMARK       I    between atoms: C_8  and  N_10 
REMARK    4  A    between atoms: N_10  and  C_11 
REMARK    5  A    between atoms: C_13  and  S_14 
REMARK    6  A    between atoms: S_14  and  N_15 
REMARK    7  A    between atoms: C_24  and  N_25 
ROOT
ATOM      1  C   UNL d   1      25.771 -15.040  -3.616  0.00  0.00     0.226 C 
ATOM      2  O   UNL d   1      25.174 -15.937  -4.213  0.00  0.00    -0.273 OA
ATOM      3  N   UNL d   1      25.764 -15.028  -2.230  0.00  0.00    -0.326 N 
ATOM      4  H   UNL d   1      25.595 -14.133  -1.789  0.00  0.00     0.169 HD
ENDROOT
BRANCH   3   5
ATOM      5  C   UNL d   1      25.353 -16.214  -1.536  0.00  0.00     0.042 A 
ATOM      6  C   UNL d   1      24.037 -16.684  -1.676  0.00  0.00     0.055 A 
ATOM      7  C   UNL d   1      23.593 -17.742  -0.862  0.00  0.00     0.082 A 
ATOM      8  C   UNL d   1      24.461 -18.388   0.016  0.00  0.00     0.032 A 
ATOM      9  C   UNL d   1      25.778 -17.944   0.148  0.00  0.00    -0.052 A 
ATOM     10  C   UNL d   1      26.656 -18.573   1.194  0.00  0.00     0.049 C 
ATOM     11  C   UNL d   1      26.241 -16.861  -0.632  0.00  0.00    -0.029 A 
ATOM     12  C   UNL d   1      27.673 -16.405  -0.457  0.00  0.00     0.051 C 
BRANCH   7  13
ATOM     13  S   UNL d   1      21.868 -18.163  -0.796  0.00  0.00     0.256 S 
ATOM     14  O   UNL d   1      21.096 -16.961  -0.896  0.00  0.00    -0.201 OA
ATOM     15  O   UNL d   1      21.649 -19.324  -1.645  0.00  0.00    -0.201 OA
BRANCH  13  16
ATOM     16  N   UNL d   1      21.740 -18.733   0.771  0.00  0.00    -0.324 N 
ATOM     17  H   UNL d   1      21.919 -19.723   0.896  0.00  0.00     0.169 HD
ATOM     18  H   UNL d   1      21.057 -18.258   1.355  0.00  0.00     0.169 HD
ENDBRANCH  13  16
ENDBRANCH   7  13
ENDBRANCH   3   5
BRANCH   1  19
ATOM     19  C   UNL d   1      26.453 -13.875  -4.370  0.00  0.00     0.141 C 
BRANCH  19  20
ATOM     20  C   UNL d   1      27.710 -14.278  -5.160  0.00  0.00    -0.047 C 
ATOM     21  C   UNL d   1      28.157 -13.552  -6.268  0.00  0.00     0.010 C 
ATOM     22  C   UNL d   1      29.187 -14.068  -7.092  0.00  0.00     0.040 C 
ATOM     23  C   UNL d   1      29.842 -15.290  -6.802  0.00  0.00     0.101 C 
ATOM     24  C   UNL d   1      29.483 -15.945  -5.631  0.00  0.00     0.136 C 
ATOM     25  C   UNL d   1      28.455 -15.422  -4.834  0.00  0.00     0.046 C 
BRANCH  23  26
ATOM     26  O   UNL d   1      30.859 -15.638  -7.645  0.00  0.00    -0.353 OA
ATOM     27  C   UNL d   1      32.102 -15.993  -7.037  0.00  0.00     0.210 C 
ENDBRANCH  23  26
BRANCH  24  28
ATOM     28  N   UNL d   1      30.140 -17.143  -5.097  0.00  0.00    -0.113 N 
ATOM     29  O   UNL d   1      30.139 -18.159  -5.810  0.00  0.00    -0.532 OA
ATOM     30  O   UNL d   1      30.624 -17.102  -3.959  0.00  0.00    -0.532 OA
ENDBRANCH  24  28
ENDBRANCH  19  20
ENDBRANCH   1  19
TORSDOF 7
ENDMDL
MODEL 3
REMARK VINA RESULT:    -8.285      1.343      2.184
REMARK INTER + INTRA:         -11.050
REMARK INTER:                 -10.373
REMARK INTRA:                  -0.676
REMARK CONF_INDEPENDENT:        2.088
REMARK UNBOUND:                -0.676
REMARK  7 active torsions:
REMARK  status: ('A' for Active; 'I' for Inactive)
REMARK    1  A    between atoms: O_2  and  C_3 
REMARK    2  A    between atoms: C_6  and  C_7 
REMARK    3  A    between atoms: C_7  and  C_8 
REMARK       I    between atoms: C_8  and  N_10 
REMARK    4  A    between atoms: N_10  and  C_11 
REMARK    5  A    between atoms: C_13  and  S_14 
REMARK    6  A    between atoms: S_14  and  N_15 
REMARK    7  A    between atoms: C_24  and  N_25 
ROOT
ATOM      1  C   UNL d   1      25.680 -14.774  -3.528  0.00  0.00     0.226 C 
ATOM      2  O   UNL d   1      25.161 -15.676  -4.186  0.00  0.00    -0.273 OA
ATOM      3  N   UNL d   1      25.627 -14.829  -2.144  0.00  0.00    -0.326 N 
ATOM      4  H   UNL d   1      25.387 -13.968  -1.669  0.00  0.00     0.169 HD
ENDROOT
BRANCH   3   5
ATOM      5  C   UNL d   1      25.268 -16.069  -1.521  0.00  0.00     0.042 A 
ATOM      6  C   UNL d   1      23.959 -16.563  -1.649  0.00  0.00     0.055 A 
ATOM      7  C   UNL d   1      23.569 -17.684  -0.896  0.00  0.00     0.082 A 
ATOM      8  C   UNL d   1      24.481 -18.367  -0.094  0.00  0.00     0.032 A 
ATOM      9  C   UNL d   1      25.791 -17.900   0.025  0.00  0.00    -0.052 A 
ATOM     10  C   UNL d   1      26.719 -18.576   0.995  0.00  0.00     0.049 C 
ATOM     11  C   UNL d   1      26.202 -16.754  -0.693  0.00  0.00    -0.029 A 
ATOM     12  C   UNL d   1      27.628 -16.275  -0.535  0.00  0.00     0.051 C 
BRANCH   7  13
ATOM     13  S   UNL d   1      21.857 -18.154  -0.802  0.00  0.00     0.256 S 
ATOM     14  O   UNL d   1      21.050 -16.974  -0.896  0.00  0.00    -0.201 OA
ATOM     15  O   UNL d   1      21.658 -19.325  -1.642  0.00  0.00    -0.201 OA
BRANCH  13  16
ATOM     16  N   UNL d   1      21.768 -18.718   0.770  0.00  0.00    -0.324 N 
ATOM     17  H   UNL d   1      21.757 -19.726   0.876  0.00  0.00     0.169 HD
ATOM     18  H   UNL d   1      21.252 -18.129   1.418  0.00  0.00     0.169 HD
ENDBRANCH  13  16
ENDBRANCH   7  13
ENDBRANCH   3   5
BRANCH   1  19
ATOM     19  C   UNL d   1      26.313 -13.535  -4.202  0.00  0.00     0.141 C 
BRANCH  19  20
ATOM     20  C   UNL d   1      27.427 -13.859  -5.214  0.00  0.00    -0.047 C 
ATOM     21  C   UNL d   1      28.094 -15.087  -5.217  0.00  0.00     0.010 C 
ATOM     22  C   UNL d   1      29.247 -15.271  -6.017  0.00  0.00     0.040 C 
ATOM     23  C   UNL d   1      29.732 -14.260  -6.883  0.00  0.00     0.101 C 
ATOM     24  C   UNL d   1      28.993 -13.088  -6.973  0.00  0.00     0.136 C 
ATOM     25  C   UNL d   1      27.860 -12.922  -6.164  0.00  0.00     0.046 C 
BRANCH  23  26
ATOM     26  O   UNL d   1      30.816 -14.595  -7.644  0.00  0.00    -0.353 OA
ATOM     27  C   UNL d   1      31.410 -15.869  -7.388  0.00  0.00     0.210 C 
ENDBRANCH  23  26
BRANCH  24  28
ATOM     28  N   UNL d   1      29.260 -11.990  -7.908  0.00  0.00    -0.113 N 
ATOM     29  O   UNL d   1      30.017 -11.085  -7.523  0.00  0.00    -0.532 OA
ATOM     30  O   UNL d   1      28.696 -11.993  -9.010  0.00  0.00    -0.532 OA
ENDBRANCH  24  28
ENDBRANCH  19  20
ENDBRANCH   1  19
TORSDOF 7
ENDMDL
MODEL 4
REMARK VINA RESULT:    -7.867      5.478      8.131
REMARK INTER + INTRA:         -10.653
REMARK INTER:                  -9.955
REMARK INTRA:                  -0.698
REMARK CONF_INDEPENDENT:        2.088
REMARK UNBOUND:                -0.698
REMARK  7 active torsions:
REMARK  status: ('A' for Active; 'I' for Inactive)
REMARK    1  A    between atoms: O_2  and  C_3 
REMARK    2  A    between atoms: C_6  and  C_7 
REMARK    3  A    between atoms: C_7  and  C_8 
REMARK       I    between atoms: C_8  and  N_10 
REMARK    4  A    between atoms: N_10  and  C_11 
REMARK    5  A    between atoms: C_13  and  S_14 
REMARK    6  A    between atoms: S_14  and  N_15 
REMARK    7  A    between atoms: C_24  and  N_25 
ROOT
ATOM      1  C   UNL d   1      28.802 -14.484   1.337  0.00  0.00     0.226 C 
ATOM      2  O   UNL d   1      29.437 -13.433   1.242  0.00  0.00    -0.273 OA
ATOM      3  N   UNL d   1      28.137 -14.768   2.519  0.00  0.00    -0.326 N 
ATOM      4  H   UNL d   1      28.232 -15.712   2.873  0.00  0.00     0.169 HD
ENDROOT
BRANCH   3   5
ATOM      5  C   UNL d   1      27.935 -13.709   3.464  0.00  0.00     0.042 A 
ATOM      6  C   UNL d   1      27.443 -12.467   3.029  0.00  0.00     0.055 A 
ATOM      7  C   UNL d   1      27.411 -11.385   3.926  0.00  0.00     0.082 A 
ATOM      8  C   UNL d   1      27.775 -11.546   5.261  0.00  0.00     0.032 A 
ATOM      9  C   UNL d   1      28.246 -12.780   5.712  0.00  0.00    -0.052 A 
ATOM     10  C   UNL d   1      28.754 -12.894   7.122  0.00  0.00     0.049 C 
ATOM     11  C   UNL d   1      28.321 -13.876   4.824  0.00  0.00    -0.029 A 
ATOM     12  C   UNL d   1      28.841 -15.196   5.348  0.00  0.00     0.051 C 
BRANCH   7  13
ATOM     13  S   UNL d   1      27.081  -9.740   3.340  0.00  0.00     0.256 S 
ATOM     14  O   UNL d   1      28.005  -9.431   2.289  0.00  0.00    -0.201 OA
ATOM     15  O   UNL d   1      25.641  -9.583   3.208  0.00  0.00    -0.201 OA
BRANCH  13  16
ATOM     16  N   UNL d   1      27.502  -8.835   4.682  0.00  0.00    -0.324 N 
ATOM     17  H   UNL d   1      28.476  -8.885   4.960  0.00  0.00     0.169 HD
ATOM     18  H   UNL d   1      26.775  -8.728   5.384  0.00  0.00     0.169 HD
ENDBRANCH  13  16
ENDBRANCH   7  13
ENDBRANCH   3   5
BRANCH   1  19
ATOM     19  C   UNL d   1      28.797 -15.538   0.205  0.00  0.00     0.141 C 
BRANCH  19  20
ATOM     20  C   UNL d   1      27.396 -16.015  -0.215  0.00  0.00    -0.047 C 
ATOM     21  C   UNL d   1      26.735 -17.054   0.445  0.00  0.00     0.010 C 
ATOM     22  C   UNL d   1      25.547 -17.603  -0.097  0.00  0.00     0.040 C 
ATOM     23  C   UNL d   1      24.952 -17.093  -1.277  0.00  0.00     0.101 C 
ATOM     24  C   UNL d   1      25.542 -15.979  -1.860  0.00  0.00     0.136 C 
ATOM     25  C   UNL d   1      26.723 -15.457  -1.313  0.00  0.00     0.046 C 
BRANCH  23  26
ATOM     26  O   UNL d   1      23.775 -17.676  -1.653  0.00  0.00    -0.353 OA
ATOM     27  C   UNL d   1      23.006 -18.291  -0.618  0.00  0.00     0.210 C 
ENDBRANCH  23  26
BRANCH  24  28
ATOM     28  N   UNL d   1      24.998 -15.232  -2.999  0.00  0.00    -0.113 N 
ATOM     29  O   UNL d   1      25.543 -15.398  -4.102  0.00  0.00    -0.532 OA
ATOM     30  O   UNL d   1      24.057 -14.451  -2.807  0.00  0.00    -0.532 OA
ENDBRANCH  24  28
ENDBRANCH  19  20
ENDBRANCH   1  19
TORSDOF 7
ENDMDL
MODEL 5
REMARK VINA RESULT:    -7.831      5.704      8.881
REMARK INTER + INTRA:         -10.679
REMARK INTER:                  -9.919
REMARK INTRA:                  -0.760
REMARK CONF_INDEPENDENT:        2.088
REMARK UNBOUND:                -0.760
REMARK  7 active torsions:
REMARK  status: ('A' for Active; 'I' for Inactive)
REMARK    1  A    between atoms: O_2  and  C_3 
REMARK    2  A    between atoms: C_6  and  C_7 
REMARK    3  A    between atoms: C_7  and  C_8 
REMARK       I    between atoms: C_8  and  N_10 
REMARK    4  A    between atoms: N_10  and  C_11 
REMARK    5  A    between atoms: C_13  and  S_14 
REMARK    6  A    between atoms: S_14  and  N_15 
REMARK    7  A    between atoms: C_24  and  N_25 
ROOT
ATOM      1  C   UNL d   1      28.052 -14.917   1.256  0.00  0.00     0.226 C 
ATOM      2  O   UNL d   1      26.978 -14.320   1.330  0.00  0.00    -0.273 OA
ATOM      3  N   UNL d   1      28.123 -16.093   0.526  0.00  0.00    -0.326 N 
ATOM      4  H   UNL d   1      28.625 -16.860   0.957  0.00  0.00     0.169 HD
ENDROOT
BRANCH   3   5
ATOM      5  C   UNL d   1      27.053 -16.407  -0.374  0.00  0.00     0.042 A 
ATOM      6  C   UNL d   1      26.851 -15.623  -1.522  0.00  0.00     0.055 A 
ATOM      7  C   UNL d   1      25.702 -15.829  -2.305  0.00  0.00     0.082 A 
ATOM      8  C   UNL d   1      24.806 -16.856  -2.013  0.00  0.00     0.032 A 
ATOM      9  C   UNL d   1      25.006 -17.657  -0.888  0.00  0.00    -0.052 A 
ATOM     10  C   UNL d   1      23.959 -18.672  -0.522  0.00  0.00     0.049 C 
ATOM     11  C   UNL d   1      26.135 -17.450  -0.063  0.00  0.00    -0.029 A 
ATOM     12  C   UNL d   1      26.315 -18.335   1.150  0.00  0.00     0.051 C 
BRANCH   7  13
ATOM     13  S   UNL d   1      25.261 -14.671  -3.579  0.00  0.00     0.256 S 
ATOM     14  O   UNL d   1      25.530 -15.265  -4.855  0.00  0.00    -0.201 OA
ATOM     15  O   UNL d   1      23.981 -14.075  -3.231  0.00  0.00    -0.201 OA
BRANCH  13  16
ATOM     16  N   UNL d   1      26.393 -13.467  -3.319  0.00  0.00    -0.324 N 
ATOM     17  H   UNL d   1      26.020 -12.539  -3.157  0.00  0.00     0.169 HD
ATOM     18  H   UNL d   1      27.277 -13.585  -3.807  0.00  0.00     0.169 HD
ENDBRANCH  13  16
ENDBRANCH   7  13
ENDBRANCH   3   5
BRANCH   1  19
ATOM     19  C   UNL d   1      29.305 -14.439   2.026  0.00  0.00     0.141 C 
BRANCH  19  20
ATOM     20  C   UNL d   1      29.026 -13.960   3.461  0.00  0.00    -0.047 C 
ATOM     21  C   UNL d   1      29.079 -14.825   4.558  0.00  0.00     0.010 C 
ATOM     22  C   UNL d   1      28.613 -14.400   5.825  0.00  0.00     0.040 C 
ATOM     23  C   UNL d   1      28.140 -13.084   6.052  0.00  0.00     0.101 C 
ATOM     24  C   UNL d   1      28.207 -12.190   4.991  0.00  0.00     0.136 C 
ATOM     25  C   UNL d   1      28.662 -12.634   3.741  0.00  0.00     0.046 C 
BRANCH  23  26
ATOM     26  O   UNL d   1      27.780 -12.791   7.337  0.00  0.00    -0.353 OA
ATOM     27  C   UNL d   1      28.737 -12.078   8.122  0.00  0.00     0.210 C 
ENDBRANCH  23  26
BRANCH  24  28
ATOM     28  N   UNL d   1      27.892 -10.760   5.070  0.00  0.00    -0.113 N 
ATOM     29  O   UNL d   1      27.031 -10.322   4.291  0.00  0.00    -0.532 OA
ATOM     30  O   UNL d   1      28.518 -10.053   5.871  0.00  0.00    -0.532 OA
ENDBRANCH  24  28
ENDBRANCH  19  20
ENDBRANCH   1  19
TORSDOF 7
ENDMDL
MODEL 6
REMARK VINA RESULT:    -7.811      2.849      4.193
REMARK INTER + INTRA:         -10.772
REMARK INTER:                  -9.899
REMARK INTRA:                  -0.872
REMARK CONF_INDEPENDENT:        2.088
REMARK UNBOUND:                -0.872
REMARK  7 active torsions:
REMARK  status: ('A' for Active; 'I' for Inactive)
REMARK    1  A    between atoms: O_2  and  C_3 
REMARK    2  A    between atoms: C_6  and  C_7 
REMARK    3  A    between atoms: C_7  and  C_8 
REMARK       I    between atoms: C_8  and  N_10 
REMARK    4  A    between atoms: N_10  and  C_11 
REMARK    5  A    between atoms: C_13  and  S_14 
REMARK    6  A    between atoms: S_14  and  N_15 
REMARK    7  A    between atoms: C_24  and  N_25 
ROOT
ATOM      1  C   UNL d   1      25.903 -14.946  -3.735  0.00  0.00     0.226 C 
ATOM      2  O   UNL d   1      25.526 -15.937  -4.362  0.00  0.00    -0.273 OA
ATOM      3  N   UNL d   1      25.684 -14.887  -2.368  0.00  0.00    -0.326 N 
ATOM      4  H   UNL d   1      25.334 -14.008  -2.007  0.00  0.00     0.169 HD
ENDROOT
BRANCH   3   5
ATOM      5  C   UNL d   1      25.329 -16.092  -1.678  0.00  0.00     0.042 A 
ATOM      6  C   UNL d   1      24.025 -16.601  -1.785  0.00  0.00     0.055 A 
ATOM      7  C   UNL d   1      23.637 -17.681  -0.973  0.00  0.00     0.082 A 
ATOM      8  C   UNL d   1      24.549 -18.311  -0.128  0.00  0.00     0.032 A 
ATOM      9  C   UNL d   1      25.854 -17.828  -0.027  0.00  0.00    -0.052 A 
ATOM     10  C   UNL d   1      26.781 -18.441   0.986  0.00  0.00     0.049 C 
ATOM     11  C   UNL d   1      26.262 -16.722  -0.807  0.00  0.00    -0.029 A 
ATOM     12  C   UNL d   1      27.684 -16.225  -0.667  0.00  0.00     0.051 C 
BRANCH   7  13
ATOM     13  S   UNL d   1      21.928 -18.156  -0.862  0.00  0.00     0.256 S 
ATOM     14  O   UNL d   1      21.116 -16.979  -0.944  0.00  0.00    -0.201 OA
ATOM     15  O   UNL d   1      21.724 -19.325  -1.704  0.00  0.00    -0.201 OA
BRANCH  13  16
ATOM     16  N   UNL d   1      21.857 -18.726   0.709  0.00  0.00    -0.324 N 
ATOM     17  H   UNL d   1      21.783 -19.732   0.809  0.00  0.00     0.169 HD
ATOM     18  H   UNL d   1      21.405 -18.109   1.378  0.00  0.00     0.169 HD
ENDBRANCH  13  16
ENDBRANCH   7  13
ENDBRANCH   3   5
BRANCH   1  19
ATOM     19  C   UNL d   1      26.536 -13.726  -4.445  0.00  0.00     0.141 C 
BRANCH  19  20
ATOM     20  C   UNL d   1      26.370 -12.395  -3.692  0.00  0.00    -0.047 C 
ATOM     21  C   UNL d   1      25.634 -11.329  -4.218  0.00  0.00     0.010 C 
ATOM     22  C   UNL d   1      25.679 -10.057  -3.599  0.00  0.00     0.040 C 
ATOM     23  C   UNL d   1      26.405  -9.824  -2.405  0.00  0.00     0.101 C 
ATOM     24  C   UNL d   1      27.030 -10.916  -1.816  0.00  0.00     0.136 C 
ATOM     25  C   UNL d   1      26.983 -12.165  -2.450  0.00  0.00     0.046 C 
BRANCH  23  26
ATOM     26  O   UNL d   1      26.311  -8.566  -1.883  0.00  0.00    -0.353 OA
ATOM     27  C   UNL d   1      26.181  -8.470  -0.463  0.00  0.00     0.210 C 
ENDBRANCH  23  26
BRANCH  24  28
ATOM     28  N   UNL d   1      27.711 -10.900  -0.516  0.00  0.00    -0.113 N 
ATOM     29  O   UNL d   1      28.915 -10.599  -0.508  0.00  0.00    -0.532 OA
ATOM     30  O   UNL d   1      27.075 -11.222   0.495  0.00  0.00    -0.532 OA
ENDBRANCH  24  28
ENDBRANCH  19  20
ENDBRANCH   1  19
TORSDOF 7
ENDMDL
MODEL 7
REMARK VINA RESULT:    -7.604      3.338      4.880
REMARK INTER + INTRA:         -10.625
REMARK INTER:                  -9.692
REMARK INTRA:                  -0.933
REMARK CONF_INDEPENDENT:        2.088
REMARK UNBOUND:                -0.933
REMARK  7 active torsions:
REMARK  status: ('A' for Active; 'I' for Inactive)
REMARK    1  A    between atoms: O_2  and  C_3 
REMARK    2  A    between atoms: C_6  and  C_7 
REMARK    3  A    between atoms: C_7  and  C_8 
REMARK       I    between atoms: C_8  and  N_10 
REMARK    4  A    between atoms: N_10  and  C_11 
REMARK    5  A    between atoms: C_13  and  S_14 
REMARK    6  A    between atoms: S_14  and  N_15 
REMARK    7  A    between atoms: C_24  and  N_25 
ROOT
ATOM      1  C   UNL d   1      25.577 -14.326  -3.427  0.00  0.00     0.226 C 
ATOM      2  O   UNL d   1      25.173 -15.221  -4.171  0.00  0.00    -0.273 OA
ATOM      3  N   UNL d   1      25.464 -14.485  -2.055  0.00  0.00    -0.326 N 
ATOM      4  H   UNL d   1      25.125 -13.684  -1.536  0.00  0.00     0.169 HD
ENDROOT
BRANCH   3   5
ATOM      5  C   UNL d   1      25.188 -15.792  -1.536  0.00  0.00     0.042 A 
ATOM      6  C   UNL d   1      23.898 -16.336  -1.658  0.00  0.00     0.055 A 
ATOM      7  C   UNL d   1      23.592 -17.539  -0.998  0.00  0.00     0.082 A 
ATOM      8  C   UNL d   1      24.568 -18.246  -0.299  0.00  0.00     0.032 A 
ATOM      9  C   UNL d   1      25.859 -17.728  -0.188  0.00  0.00    -0.052 A 
ATOM     10  C   UNL d   1      26.858 -18.443   0.679  0.00  0.00     0.049 C 
ATOM     11  C   UNL d   1      26.186 -16.503  -0.812  0.00  0.00    -0.029 A 
ATOM     12  C   UNL d   1      27.595 -15.971  -0.665  0.00  0.00     0.051 C 
BRANCH   7  13
ATOM     13  S   UNL d   1      21.909 -18.098  -0.882  0.00  0.00     0.256 S 
ATOM     14  O   UNL d   1      21.037 -16.973  -1.046  0.00  0.00    -0.201 OA
ATOM     15  O   UNL d   1      21.781 -19.324  -1.654  0.00  0.00    -0.201 OA
BRANCH  13  16
ATOM     16  N   UNL d   1      21.843 -18.576   0.720  0.00  0.00    -0.324 N 
ATOM     17  H   UNL d   1      21.606 -17.850   1.387  0.00  0.00     0.169 HD
ATOM     18  H   UNL d   1      22.482 -19.323   0.980  0.00  0.00     0.169 HD
ENDBRANCH  13  16
ENDBRANCH   7  13
ENDBRANCH   3   5
BRANCH   1  19
ATOM     19  C   UNL d   1      26.128 -12.992  -3.982  0.00  0.00     0.141 C 
BRANCH  19  20
ATOM     20  C   UNL d   1      26.720 -12.055  -2.915  0.00  0.00    -0.047 C 
ATOM     21  C   UNL d   1      27.624 -12.504  -1.949  0.00  0.00     0.010 C 
ATOM     22  C   UNL d   1      27.982 -11.669  -0.863  0.00  0.00     0.040 C 
ATOM     23  C   UNL d   1      27.500 -10.343  -0.742  0.00  0.00     0.101 C 
ATOM     24  C   UNL d   1      26.704  -9.856  -1.771  0.00  0.00     0.136 C 
ATOM     25  C   UNL d   1      26.353 -10.703  -2.832  0.00  0.00     0.046 C 
BRANCH  23  26
ATOM     26  O   UNL d   1      27.976  -9.629   0.321  0.00  0.00    -0.353 OA
ATOM     27  C   UNL d   1      27.024  -9.258   1.320  0.00  0.00     0.210 C 
ENDBRANCH  23  26
BRANCH  24  28
ATOM     28  N   UNL d   1      26.225  -8.475  -1.889  0.00  0.00    -0.113 N 
ATOM     29  O   UNL d   1      26.722  -7.774  -2.785  0.00  0.00    -0.532 OA
ATOM     30  O   UNL d   1      25.387  -8.061  -1.077  0.00  0.00    -0.532 OA
ENDBRANCH  24  28
ENDBRANCH  19  20
ENDBRANCH   1  19
TORSDOF 7
ENDMDL
MODEL 8
REMARK VINA RESULT:    -7.574      5.231      7.782
REMARK INTER + INTRA:         -10.303
REMARK INTER:                  -9.662
REMARK INTRA:                  -0.641
REMARK CONF_INDEPENDENT:        2.088
REMARK UNBOUND:                -0.641
REMARK  7 active torsions:
REMARK  status: ('A' for Active; 'I' for Inactive)
REMARK    1  A    between atoms: O_2  and  C_3 
REMARK    2  A    between atoms: C_6  and  C_7 
REMARK    3  A    between atoms: C_7  and  C_8 
REMARK       I    between atoms: C_8  and  N_10 
REMARK    4  A    between atoms: N_10  and  C_11 
REMARK    5  A    between atoms: C_13  and  S_14 
REMARK    6  A    between atoms: S_14  and  N_15 
REMARK    7  A    between atoms: C_24  and  N_25 
ROOT
ATOM      1  C   UNL d   1      27.435 -14.296   1.279  0.00  0.00     0.226 C 
ATOM      2  O   UNL d   1      26.261 -13.926   1.325  0.00  0.00    -0.273 OA
ATOM      3  N   UNL d   1      27.769 -15.389   0.495  0.00  0.00    -0.326 N 
ATOM      4  H   UNL d   1      28.394 -16.067   0.913  0.00  0.00     0.169 HD
ENDROOT
BRANCH   3   5
ATOM      5  C   UNL d   1      26.821 -15.851  -0.477  0.00  0.00     0.042 A 
ATOM      6  C   UNL d   1      26.571 -15.087  -1.628  0.00  0.00     0.055 A 
ATOM      7  C   UNL d   1      25.522 -15.458  -2.487  0.00  0.00     0.082 A 
ATOM      8  C   UNL d   1      24.784 -16.619  -2.264  0.00  0.00     0.032 A 
ATOM      9  C   UNL d   1      25.036 -17.399  -1.134  0.00  0.00    -0.052 A 
ATOM     10  C   UNL d   1      24.142 -18.573  -0.846  0.00  0.00     0.049 C 
ATOM     11  C   UNL d   1      26.062 -17.031  -0.235  0.00  0.00    -0.029 A 
ATOM     12  C   UNL d   1      26.303 -17.900   0.980  0.00  0.00     0.051 C 
BRANCH   7  13
ATOM     13  S   UNL d   1      24.985 -14.361  -3.778  0.00  0.00     0.256 S 
ATOM     14  O   UNL d   1      25.524 -14.818  -5.025  0.00  0.00    -0.201 OA
ATOM     15  O   UNL d   1      23.574 -14.075  -3.576  0.00  0.00    -0.201 OA
BRANCH  13  16
ATOM     16  N   UNL d   1      25.785 -12.955  -3.353  0.00  0.00    -0.324 N 
ATOM     17  H   UNL d   1      25.297 -12.090  -3.559  0.00  0.00     0.169 HD
ATOM     18  H   UNL d   1      26.800 -12.995  -3.407  0.00  0.00     0.169 HD
ENDBRANCH  13  16
ENDBRANCH   7  13
ENDBRANCH   3   5
BRANCH   1  19
ATOM     19  C   UNL d   1      28.533 -13.629   2.138  0.00  0.00     0.141 C 
BRANCH  19  20
ATOM     20  C   UNL d   1      28.166 -12.232   2.669  0.00  0.00    -0.047 C 
ATOM     21  C   UNL d   1      28.455 -11.835   3.978  0.00  0.00     0.010 C 
ATOM     22  C   UNL d   1      27.918 -10.630   4.492  0.00  0.00     0.040 C 
ATOM     23  C   UNL d   1      27.131  -9.757   3.701  0.00  0.00     0.101 C 
ATOM     24  C   UNL d   1      26.953 -10.093   2.365  0.00  0.00     0.136 C 
ATOM     25  C   UNL d   1      27.484 -11.295   1.878  0.00  0.00     0.046 C 
BRANCH  23  26
ATOM     26  O   UNL d   1      26.731  -8.599   4.306  0.00  0.00    -0.353 OA
ATOM     27  C   UNL d   1      27.758  -7.785   4.873  0.00  0.00     0.210 C 
ENDBRANCH  23  26
BRANCH  24  28
ATOM     28  N   UNL d   1      26.288  -9.252   1.363  0.00  0.00    -0.113 N 
ATOM     29  O   UNL d   1      26.675  -9.353   0.188  0.00  0.00    -0.532 OA
ATOM     30  O   UNL d   1      25.411  -8.462   1.734  0.00  0.00    -0.532 OA
ENDBRANCH  24  28
ENDBRANCH  19  20
ENDBRANCH   1  19
TORSDOF 7
ENDMDL
MODEL 9
REMARK VINA RESULT:    -7.549      5.451      7.597
REMARK INTER + INTRA:         -10.158
REMARK INTER:                  -9.637
REMARK INTRA:                  -0.521
REMARK CONF_INDEPENDENT:        2.088
REMARK UNBOUND:                -0.521
REMARK  7 active torsions:
REMARK  status: ('A' for Active; 'I' for Inactive)
REMARK    1  A    between atoms: O_2  and  C_3 
REMARK    2  A    between atoms: C_6  and  C_7 
REMARK    3  A    between atoms: C_7  and  C_8 
REMARK       I    between atoms: C_8  and  N_10 
REMARK    4  A    between atoms: N_10  and  C_11 
REMARK    5  A    between atoms: C_13  and  S_14 
REMARK    6  A    between atoms: S_14  and  N_15 
REMARK    7  A    between atoms: C_24  and  N_25 
ROOT
ATOM      1  C   UNL d   1      27.028 -13.691   1.490  0.00  0.00     0.226 C 
ATOM      2  O   UNL d   1      25.881 -13.256   1.380  0.00  0.00    -0.273 OA
ATOM      3  N   UNL d   1      27.411 -14.789   0.736  0.00  0.00    -0.326 N 
ATOM      4  H   UNL d   1      27.933 -15.507   1.221  0.00  0.00     0.169 HD
ENDROOT
BRANCH   3   5
ATOM      5  C   UNL d   1      26.588 -15.181  -0.371  0.00  0.00     0.042 A 
ATOM      6  C   UNL d   1      25.432 -15.947  -0.145  0.00  0.00     0.055 A 
ATOM      7  C   UNL d   1      24.728 -16.472  -1.243  0.00  0.00     0.082 A 
ATOM      8  C   UNL d   1      25.105 -16.172  -2.551  0.00  0.00     0.032 A 
ATOM      9  C   UNL d   1      26.239 -15.394  -2.789  0.00  0.00    -0.052 A 
ATOM     10  C   UNL d   1      26.700 -15.193  -4.206  0.00  0.00     0.049 C 
ATOM     11  C   UNL d   1      26.986 -14.882  -1.704  0.00  0.00    -0.029 A 
ATOM     12  C   UNL d   1      28.212 -14.047  -2.002  0.00  0.00     0.051 C 
BRANCH   7  13
ATOM     13  S   UNL d   1      23.449 -17.681  -0.997  0.00  0.00     0.256 S 
ATOM     14  O   UNL d   1      22.273 -17.018  -0.519  0.00  0.00    -0.201 OA
ATOM     15  O   UNL d   1      23.448 -18.582  -2.139  0.00  0.00    -0.201 OA
BRANCH  13  16
ATOM     16  N   UNL d   1      24.092 -18.571   0.265  0.00  0.00    -0.324 N 
ATOM     17  H   UNL d   1      25.101 -18.662   0.271  0.00  0.00     0.169 HD
ATOM     18  H   UNL d   1      23.507 -19.329   0.609  0.00  0.00     0.169 HD
ENDBRANCH  13  16
ENDBRANCH   7  13
ENDBRANCH   3   5
BRANCH   1  19
ATOM     19  C   UNL d   1      28.028 -13.100   2.511  0.00  0.00     0.141 C 
BRANCH  19  20
ATOM     20  C   UNL d   1      27.829 -11.603   2.804  0.00  0.00    -0.047 C 
ATOM     21  C   UNL d   1      28.694 -10.887   3.636  0.00  0.00     0.010 C 
ATOM     22  C   UNL d   1      28.363  -9.573   4.049  0.00  0.00     0.040 C 
ATOM     23  C   UNL d   1      27.194  -8.914   3.597  0.00  0.00     0.101 C 
ATOM     24  C   UNL d   1      26.403  -9.581   2.670  0.00  0.00     0.136 C 
ATOM     25  C   UNL d   1      26.743 -10.884   2.282  0.00  0.00     0.046 C 
BRANCH  23  26
ATOM     26  O   UNL d   1      27.030  -7.627   4.024  0.00  0.00    -0.353 OA
ATOM     27  C   UNL d   1      27.872  -6.641   3.425  0.00  0.00     0.210 C 
ENDBRANCH  23  26
BRANCH  24  28
ATOM     28  N   UNL d   1      25.235  -9.010   1.989  0.00  0.00    -0.113 N 
ATOM     29  O   UNL d   1      25.404  -7.956   1.356  0.00  0.00    -0.532 OA
ATOM     30  O   UNL d   1      24.141  -9.576   2.105  0.00  0.00    -0.532 OA
ENDBRANCH  24  28
ENDBRANCH  19  20
ENDBRANCH   1  19
TORSDOF 7
ENDMDL
