MODEL 1
REMARK VINA RESULT:    -7.674      0.000      0.000
REMARK INTER + INTRA:         -10.009
REMARK INTER:                  -8.867
REMARK INTRA:                  -1.141
REMARK CONF_INDEPENDENT:        1.193
REMARK UNBOUND:                -1.141
REMARK  4 active torsions:
REMARK  status: ('A' for Active; 'I' for Inactive)
REMARK    1  A    between atoms: C_7  and  N_8 
REMARK       I    between atoms: N_8  and  C_9 
REMARK    2  A    between atoms: C_9  and  C_11 
REMARK    3  A    between atoms: C_11  and  N_13 
REMARK       I    between atoms: N_13  and  C_14 
REMARK    4  A    between atoms: C_14  and  C_16 
ROOT
ATOM      1  C   UNL d   1      27.161 -14.905   0.333  0.00  0.00     0.173 C 
ATOM      2  C   UNL d   1      28.243 -15.938   0.618  0.00  0.00     0.042 C 
ENDROOT
BRANCH   1   3
ATOM      3  C   UNL d   1      27.037 -13.921   1.523  0.00  0.00     0.244 C 
ATOM      4  N   UNL d   1      28.033 -13.969   2.507  0.00  0.00    -0.325 N 
ATOM      5  H   UNL d   1      28.795 -14.628   2.394  0.00  0.00     0.169 HD
ATOM      6  O   UNL d   1      26.067 -13.157   1.519  0.00  0.00    -0.271 OA
BRANCH   4   7
ATOM      7  C   UNL d   1      28.073 -13.156   3.689  0.00  0.00     0.041 A 
ATOM      8  C   UNL d   1      28.134 -13.718   4.986  0.00  0.00    -0.035 A 
ATOM      9  C   UNL d   1      28.175 -12.858   6.112  0.00  0.00     0.009 A 
ATOM     10  C   UNL d   1      28.157 -15.198   5.250  0.00  0.00     0.050 C 
ATOM     11  C   UNL d   1      28.154 -11.469   5.972  0.00  0.00     0.007 A 
ATOM     12  C   UNL d   1      28.093 -10.911   4.705  0.00  0.00    -0.060 A 
ATOM     13  C   UNL d   1      28.068  -9.431   4.475  0.00  0.00     0.048 C 
ATOM     14  C   UNL d   1      28.053 -11.760   3.593  0.00  0.00     0.037 A 
ENDBRANCH   4   7
ENDBRANCH   1   3
BRANCH   1  15
ATOM     15  N   UNL d   1      25.838 -15.555   0.147  0.00  0.00    -0.344 N 
ATOM     16  C   UNL d   1      25.668 -16.753  -0.507  0.00  0.00     0.252 C 
ATOM     17  O   UNL d   1      26.595 -17.378  -1.021  0.00  0.00    -0.268 OA
ATOM     18  H   UNL d   1      25.054 -15.090   0.603  0.00  0.00     0.163 HD
BRANCH  16  19
ATOM     19  C   UNL d   1      24.299 -17.336  -0.557  0.00  0.00     0.032 A 
ATOM     20  C   UNL d   1      23.171 -16.540  -0.784  0.00  0.00     0.018 A 
ATOM     21  C   UNL d   1      21.906 -17.135  -0.895  0.00  0.00     0.025 A 
ATOM     22  C   UNL d   1      21.767 -18.519  -0.773  0.00  0.00     0.034 A 
ATOM     23 CL   UNL d   1      20.205 -19.236  -0.885  0.00  0.00    -0.084 Cl
ATOM     24  C   UNL d   1      22.886 -19.322  -0.565  0.00  0.00     0.025 A 
ATOM     25  C   UNL d   1      24.152 -18.731  -0.466  0.00  0.00     0.018 A 
ENDBRANCH  16  19
ENDBRANCH   1  15
TORSDOF 4
ENDMDL
MODEL 2
REMARK VINA RESULT:    -7.596      5.069      8.255
REMARK INTER + INTRA:          -9.868
REMARK INTER:                  -8.789
REMARK INTRA:                  -1.079
REMARK CONF_INDEPENDENT:        1.193
REMARK UNBOUND:                -1.079
REMARK  4 active torsions:
REMARK  status: ('A' for Active; 'I' for Inactive)
REMARK    1  A    between atoms: C_7  and  N_8 
REMARK       I    between atoms: N_8  and  C_9 
REMARK    2  A    between atoms: C_9  and  C_11 
REMARK    3  A    between atoms: C_11  and  N_13 
REMARK       I    between atoms: N_13  and  C_14 
REMARK    4  A    between atoms: C_14  and  C_16 
ROOT
ATOM      1  C   UNL d   1      27.227 -14.951  -2.921  0.00  0.00     0.173 C 
ATOM      2  C   UNL d   1      26.699 -13.543  -3.162  0.00  0.00     0.042 C 
ENDROOT
BRANCH   1   3
ATOM      3  C   UNL d   1      27.826 -15.527  -4.228  0.00  0.00     0.244 C 
ATOM      4  N   UNL d   1      29.161 -15.950  -4.196  0.00  0.00    -0.325 N 
ATOM      5  H   UNL d   1      29.672 -15.878  -3.324  0.00  0.00     0.169 HD
ATOM      6  O   UNL d   1      27.080 -15.577  -5.211  0.00  0.00    -0.271 OA
BRANCH   4   7
ATOM      7  C   UNL d   1      29.890 -16.484  -5.311  0.00  0.00     0.041 A 
ATOM      8  C   UNL d   1      30.435 -15.656  -6.320  0.00  0.00    -0.035 A 
ATOM      9  C   UNL d   1      31.148 -16.248  -7.392  0.00  0.00     0.009 A 
ATOM     10  C   UNL d   1      30.301 -14.158  -6.326  0.00  0.00     0.050 C 
ATOM     11  C   UNL d   1      31.323 -17.630  -7.478  0.00  0.00     0.007 A 
ATOM     12  C   UNL d   1      30.791 -18.449  -6.495  0.00  0.00    -0.060 A 
ATOM     13  C   UNL d   1      30.937 -19.939  -6.519  0.00  0.00     0.048 C 
ATOM     14  C   UNL d   1      30.087 -17.865  -5.436  0.00  0.00     0.037 A 
ENDBRANCH   4   7
ENDBRANCH   1   3
BRANCH   1  15
ATOM     15  N   UNL d   1      26.139 -15.862  -2.484  0.00  0.00    -0.344 N 
ATOM     16  C   UNL d   1      25.712 -15.961  -1.180  0.00  0.00     0.252 C 
ATOM     17  O   UNL d   1      26.215 -15.324  -0.255  0.00  0.00    -0.268 OA
ATOM     18  H   UNL d   1      25.666 -16.369  -3.231  0.00  0.00     0.163 HD
BRANCH  16  19
ATOM     19  C   UNL d   1      24.558 -16.855  -0.887  0.00  0.00     0.032 A 
ATOM     20  C   UNL d   1      24.742 -18.193  -0.519  0.00  0.00     0.018 A 
ATOM     21  C   UNL d   1      23.635 -18.984  -0.181  0.00  0.00     0.025 A 
ATOM     22  C   UNL d   1      22.348 -18.444  -0.216  0.00  0.00     0.034 A 
ATOM     23 CL   UNL d   1      20.993 -19.432   0.174  0.00  0.00    -0.084 Cl
ATOM     24  C   UNL d   1      22.156 -17.109  -0.563  0.00  0.00     0.025 A 
ATOM     25  C   UNL d   1      23.262 -16.313  -0.890  0.00  0.00     0.018 A 
ENDBRANCH  16  19
ENDBRANCH   1  15
TORSDOF 4
ENDMDL
MODEL 3
REMARK VINA RESULT:    -7.536      3.615      6.688
REMARK INTER + INTRA:         -10.441
REMARK INTER:                  -8.729
REMARK INTRA:                  -1.712
REMARK CONF_INDEPENDENT:        1.193
REMARK UNBOUND:                -1.712
REMARK  4 active torsions:
REMARK  status: ('A' for Active; 'I' for Inactive)
REMARK    1  A    between atoms: C_7  and  N_8 
REMARK       I    between atoms: N_8  and  C_9 
REMARK    2  A    between atoms: C_9  and  C_11 
REMARK    3  A    between atoms: C_11  and  N_13 
REMARK       I    between atoms: N_13  and  C_14 
REMARK    4  A    between atoms: C_14  and  C_16 
ROOT
ATOM      1  C   UNL d   1      28.028 -16.927  -0.076  0.00  0.00     0.173 C 
ATOM      2  C   UNL d   1      28.125 -15.616   0.695  0.00  0.00     0.042 C 
ENDROOT
BRANCH   1   3
ATOM      3  C   UNL d   1      28.484 -16.719  -1.542  0.00  0.00     0.244 C 
ATOM      4  N   UNL d   1      27.782 -15.779  -2.309  0.00  0.00    -0.325 N 
ATOM      5  H   UNL d   1      27.024 -15.267  -1.874  0.00  0.00     0.169 HD
ATOM      6  O   UNL d   1      29.439 -17.396  -1.932  0.00  0.00    -0.271 OA
BRANCH   4   7
ATOM      7  C   UNL d   1      28.043 -15.470  -3.686  0.00  0.00     0.041 A 
ATOM      8  C   UNL d   1      27.076 -14.854  -4.514  0.00  0.00    -0.035 A 
ATOM      9  C   UNL d   1      27.399 -14.574  -5.865  0.00  0.00     0.009 A 
ATOM     10  C   UNL d   1      25.700 -14.472  -4.042  0.00  0.00     0.050 C 
ATOM     11  C   UNL d   1      28.648 -14.893  -6.399  0.00  0.00     0.007 A 
ATOM     12  C   UNL d   1      29.601 -15.498  -5.595  0.00  0.00    -0.060 A 
ATOM     13  C   UNL d   1      30.962 -15.871  -6.096  0.00  0.00     0.048 C 
ATOM     14  C   UNL d   1      29.282 -15.776  -4.261  0.00  0.00     0.037 A 
ENDBRANCH   4   7
ENDBRANCH   1   3
BRANCH   1  15
ATOM     15  N   UNL d   1      26.629 -17.425  -0.106  0.00  0.00    -0.344 N 
ATOM     16  C   UNL d   1      25.552 -16.639  -0.444  0.00  0.00     0.252 C 
ATOM     17  O   UNL d   1      25.650 -15.445  -0.724  0.00  0.00    -0.268 OA
ATOM     18  H   UNL d   1      26.516 -18.422   0.073  0.00  0.00     0.163 HD
BRANCH  16  19
ATOM     19  C   UNL d   1      24.210 -17.280  -0.512  0.00  0.00     0.032 A 
ATOM     20  C   UNL d   1      23.054 -16.536  -0.768  0.00  0.00     0.018 A 
ATOM     21  C   UNL d   1      21.818 -17.185  -0.895  0.00  0.00     0.025 A 
ATOM     22  C   UNL d   1      21.735 -18.573  -0.760  0.00  0.00     0.034 A 
ATOM     23 CL   UNL d   1      20.208 -19.358  -0.891  0.00  0.00    -0.084 Cl
ATOM     24  C   UNL d   1      22.883 -19.325  -0.523  0.00  0.00     0.025 A 
ATOM     25  C   UNL d   1      24.121 -18.679  -0.407  0.00  0.00     0.018 A 
ENDBRANCH  16  19
ENDBRANCH   1  15
TORSDOF 4
ENDMDL
MODEL 4
REMARK VINA RESULT:    -7.311      5.857      8.530
REMARK INTER + INTRA:          -9.877
REMARK INTER:                  -8.504
REMARK INTRA:                  -1.373
REMARK CONF_INDEPENDENT:        1.193
REMARK UNBOUND:                -1.373
REMARK  4 active torsions:
REMARK  status: ('A' for Active; 'I' for Inactive)
REMARK    1  A    between atoms: C_7  and  N_8 
REMARK       I    between atoms: N_8  and  C_9 
REMARK    2  A    between atoms: C_9  and  C_11 
REMARK    3  A    between atoms: C_11  and  N_13 
REMARK       I    between atoms: N_13  and  C_14 
REMARK    4  A    between atoms: C_14  and  C_16 
ROOT
ATOM      1  C   UNL d   1      26.484 -14.116  -4.060  0.00  0.00     0.173 C 
ATOM      2  C   UNL d   1      26.558 -14.846  -5.395  0.00  0.00     0.042 C 
ENDROOT
BRANCH   1   3
ATOM      3  C   UNL d   1      25.557 -14.883  -3.084  0.00  0.00     0.244 C 
ATOM      4  N   UNL d   1      26.127 -15.918  -2.331  0.00  0.00    -0.325 N 
ATOM      5  H   UNL d   1      27.115 -16.111  -2.442  0.00  0.00     0.169 HD
ATOM      6  O   UNL d   1      24.377 -14.524  -3.034  0.00  0.00    -0.271 OA
BRANCH   4   7
ATOM      7  C   UNL d   1      25.423 -16.752  -1.398  0.00  0.00     0.041 A 
ATOM      8  C   UNL d   1      26.078 -17.393  -0.321  0.00  0.00    -0.035 A 
ATOM      9  C   UNL d   1      25.322 -18.200   0.566  0.00  0.00     0.009 A 
ATOM     10  C   UNL d   1      27.552 -17.272  -0.055  0.00  0.00     0.050 C 
ATOM     11  C   UNL d   1      23.948 -18.379   0.401  0.00  0.00     0.007 A 
ATOM     12  C   UNL d   1      23.300 -17.755  -0.653  0.00  0.00    -0.060 A 
ATOM     13  C   UNL d   1      21.828 -17.899  -0.895  0.00  0.00     0.048 C 
ATOM     14  C   UNL d   1      24.044 -16.958  -1.530  0.00  0.00     0.037 A 
ENDBRANCH   4   7
ENDBRANCH   1   3
BRANCH   1  15
ATOM     15  N   UNL d   1      25.927 -12.749  -4.230  0.00  0.00    -0.344 N 
ATOM     16  C   UNL d   1      26.695 -11.653  -4.548  0.00  0.00     0.252 C 
ATOM     17  O   UNL d   1      27.916 -11.704  -4.692  0.00  0.00    -0.268 OA
ATOM     18  H   UNL d   1      24.913 -12.679  -4.167  0.00  0.00     0.163 HD
BRANCH  16  19
ATOM     19  C   UNL d   1      26.004 -10.353  -4.767  0.00  0.00     0.032 A 
ATOM     20  C   UNL d   1      25.426 -10.028  -5.999  0.00  0.00     0.018 A 
ATOM     21  C   UNL d   1      24.721  -8.825  -6.145  0.00  0.00     0.025 A 
ATOM     22  C   UNL d   1      24.599  -7.946  -5.067  0.00  0.00     0.034 A 
ATOM     23 CL   UNL d   1      23.755  -6.458  -5.265  0.00  0.00    -0.084 Cl
ATOM     24  C   UNL d   1      25.155  -8.268  -3.831  0.00  0.00     0.025 A 
ATOM     25  C   UNL d   1      25.850  -9.476  -3.680  0.00  0.00     0.018 A 
ENDBRANCH  16  19
ENDBRANCH   1  15
TORSDOF 4
ENDMDL
MODEL 5
REMARK VINA RESULT:    -7.296      5.851      8.415
REMARK INTER + INTRA:         -10.226
REMARK INTER:                  -8.489
REMARK INTRA:                  -1.737
REMARK CONF_INDEPENDENT:        1.193
REMARK UNBOUND:                -1.737
REMARK  4 active torsions:
REMARK  status: ('A' for Active; 'I' for Inactive)
REMARK    1  A    between atoms: C_7  and  N_8 
REMARK       I    between atoms: N_8  and  C_9 
REMARK    2  A    between atoms: C_9  and  C_11 
REMARK    3  A    between atoms: C_11  and  N_13 
REMARK       I    between atoms: N_13  and  C_14 
REMARK    4  A    between atoms: C_14  and  C_16 
ROOT
ATOM      1  C   UNL d   1      25.801 -13.239  -4.149  0.00  0.00     0.173 C 
ATOM      2  C   UNL d   1      25.662 -11.757  -3.827  0.00  0.00     0.042 C 
ENDROOT
BRANCH   1   3
ATOM      3  C   UNL d   1      25.714 -14.078  -2.849  0.00  0.00     0.244 C 
ATOM      4  N   UNL d   1      25.431 -15.444  -2.980  0.00  0.00    -0.325 N 
ATOM      5  H   UNL d   1      25.312 -15.827  -3.910  0.00  0.00     0.169 HD
ATOM      6  O   UNL d   1      25.905 -13.482  -1.785  0.00  0.00    -0.271 OA
BRANCH   4   7
ATOM      7  C   UNL d   1      25.288 -16.370  -1.893  0.00  0.00     0.041 A 
ATOM      8  C   UNL d   1      26.391 -16.795  -1.117  0.00  0.00    -0.035 A 
ATOM      9  C   UNL d   1      26.179 -17.708  -0.054  0.00  0.00     0.009 A 
ATOM     10  C   UNL d   1      27.801 -16.329  -1.353  0.00  0.00     0.050 C 
ATOM     11  C   UNL d   1      24.908 -18.202   0.243  0.00  0.00     0.007 A 
ATOM     12  C   UNL d   1      23.822 -17.792  -0.514  0.00  0.00    -0.060 A 
ATOM     13  C   UNL d   1      22.429 -18.277  -0.256  0.00  0.00     0.048 C 
ATOM     14  C   UNL d   1      24.030 -16.890  -1.564  0.00  0.00     0.037 A 
ENDBRANCH   4   7
ENDBRANCH   1   3
BRANCH   1  15
ATOM     15  N   UNL d   1      27.113 -13.526  -4.783  0.00  0.00    -0.344 N 
ATOM     16  C   UNL d   1      27.374 -14.673  -5.497  0.00  0.00     0.252 C 
ATOM     17  O   UNL d   1      26.552 -15.575  -5.648  0.00  0.00    -0.268 OA
ATOM     18  H   UNL d   1      27.803 -12.778  -4.720  0.00  0.00     0.163 HD
BRANCH  16  19
ATOM     19  C   UNL d   1      28.706 -14.804  -6.149  0.00  0.00     0.032 A 
ATOM     20  C   UNL d   1      29.243 -13.777  -6.934  0.00  0.00     0.018 A 
ATOM     21  C   UNL d   1      30.530 -13.908  -7.473  0.00  0.00     0.025 A 
ATOM     22  C   UNL d   1      31.278 -15.064  -7.234  0.00  0.00     0.034 A 
ATOM     23 CL   UNL d   1      32.848 -15.226  -7.924  0.00  0.00    -0.084 Cl
ATOM     24  C   UNL d   1      30.760 -16.084  -6.440  0.00  0.00     0.025 A 
ATOM     25  C   UNL d   1      29.478 -15.950  -5.891  0.00  0.00     0.018 A 
ENDBRANCH  16  19
ENDBRANCH   1  15
TORSDOF 4
ENDMDL
MODEL 6
REMARK VINA RESULT:    -7.285      5.902      8.517
REMARK INTER + INTRA:         -10.210
REMARK INTER:                  -8.478
REMARK INTRA:                  -1.732
REMARK CONF_INDEPENDENT:        1.193
REMARK UNBOUND:                -1.732
REMARK  4 active torsions:
REMARK  status: ('A' for Active; 'I' for Inactive)
REMARK    1  A    between atoms: C_7  and  N_8 
REMARK       I    between atoms: N_8  and  C_9 
REMARK    2  A    between atoms: C_9  and  C_11 
REMARK    3  A    between atoms: C_11  and  N_13 
REMARK       I    between atoms: N_13  and  C_14 
REMARK    4  A    between atoms: C_14  and  C_16 
ROOT
ATOM      1  C   UNL d   1      25.777 -13.241  -4.174  0.00  0.00     0.173 C 
ATOM      2  C   UNL d   1      25.581 -11.763  -3.860  0.00  0.00     0.042 C 
ENDROOT
BRANCH   1   3
ATOM      3  C   UNL d   1      25.695 -14.077  -2.872  0.00  0.00     0.244 C 
ATOM      4  N   UNL d   1      25.426 -15.447  -3.000  0.00  0.00    -0.325 N 
ATOM      5  H   UNL d   1      25.313 -15.834  -3.930  0.00  0.00     0.169 HD
ATOM      6  O   UNL d   1      25.877 -13.477  -1.809  0.00  0.00    -0.271 OA
BRANCH   4   7
ATOM      7  C   UNL d   1      25.289 -16.372  -1.912  0.00  0.00     0.041 A 
ATOM      8  C   UNL d   1      26.401 -16.814  -1.157  0.00  0.00    -0.035 A 
ATOM      9  C   UNL d   1      26.195 -17.726  -0.092  0.00  0.00     0.009 A 
ATOM     10  C   UNL d   1      27.813 -16.370  -1.420  0.00  0.00     0.050 C 
ATOM     11  C   UNL d   1      24.923 -18.200   0.229  0.00  0.00     0.007 A 
ATOM     12  C   UNL d   1      23.829 -17.773  -0.507  0.00  0.00    -0.060 A 
ATOM     13  C   UNL d   1      22.433 -18.237  -0.222  0.00  0.00     0.048 C 
ATOM     14  C   UNL d   1      24.030 -16.873  -1.559  0.00  0.00     0.037 A 
ENDBRANCH   4   7
ENDBRANCH   1   3
BRANCH   1  15
ATOM     15  N   UNL d   1      27.109 -13.485  -4.783  0.00  0.00    -0.344 N 
ATOM     16  C   UNL d   1      27.430 -14.635  -5.467  0.00  0.00     0.252 C 
ATOM     17  O   UNL d   1      26.649 -15.575  -5.609  0.00  0.00    -0.268 OA
ATOM     18  H   UNL d   1      27.765 -12.707  -4.727  0.00  0.00     0.163 HD
BRANCH  16  19
ATOM     19  C   UNL d   1      28.776 -14.723  -6.097  0.00  0.00     0.032 A 
ATOM     20  C   UNL d   1      29.542 -15.892  -6.031  0.00  0.00     0.018 A 
ATOM     21  C   UNL d   1      30.773 -15.960  -6.698  0.00  0.00     0.025 A 
ATOM     22  C   UNL d   1      31.242 -14.862  -7.423  0.00  0.00     0.034 A 
ATOM     23 CL   UNL d   1      32.768 -14.947  -8.216  0.00  0.00    -0.084 Cl
ATOM     24  C   UNL d   1      30.479 -13.700  -7.510  0.00  0.00     0.025 A 
ATOM     25  C   UNL d   1      29.242 -13.634  -6.854  0.00  0.00     0.018 A 
ENDBRANCH  16  19
ENDBRANCH   1  15
TORSDOF 4
ENDMDL
MODEL 7
REMARK VINA RESULT:    -7.137      5.132      7.347
REMARK INTER + INTRA:          -9.820
REMARK INTER:                  -8.331
REMARK INTRA:                  -1.489
REMARK CONF_INDEPENDENT:        1.193
REMARK UNBOUND:                -1.489
REMARK  4 active torsions:
REMARK  status: ('A' for Active; 'I' for Inactive)
REMARK    1  A    between atoms: C_7  and  N_8 
REMARK       I    between atoms: N_8  and  C_9 
REMARK    2  A    between atoms: C_9  and  C_11 
REMARK    3  A    between atoms: C_11  and  N_13 
REMARK       I    between atoms: N_13  and  C_14 
REMARK    4  A    between atoms: C_14  and  C_16 
ROOT
ATOM      1  C   UNL d   1      26.533 -14.659  -2.524  0.00  0.00     0.173 C 
ATOM      2  C   UNL d   1      26.781 -13.721  -1.350  0.00  0.00     0.042 C 
ENDROOT
BRANCH   1   3
ATOM      3  C   UNL d   1      26.135 -13.847  -3.782  0.00  0.00     0.244 C 
ATOM      4  N   UNL d   1      26.989 -12.809  -4.178  0.00  0.00    -0.325 N 
ATOM      5  H   UNL d   1      27.832 -12.644  -3.641  0.00  0.00     0.169 HD
ATOM      6  O   UNL d   1      25.090 -14.174  -4.352  0.00  0.00    -0.271 OA
BRANCH   4   7
ATOM      7  C   UNL d   1      26.773 -11.937  -5.296  0.00  0.00     0.041 A 
ATOM      8  C   UNL d   1      27.416 -12.136  -6.540  0.00  0.00    -0.035 A 
ATOM      9  C   UNL d   1      27.155 -11.239  -7.606  0.00  0.00     0.009 A 
ATOM     10  C   UNL d   1      28.377 -13.261  -6.807  0.00  0.00     0.050 C 
ATOM     11  C   UNL d   1      26.281 -10.162  -7.457  0.00  0.00     0.007 A 
ATOM     12  C   UNL d   1      25.649  -9.958  -6.241  0.00  0.00    -0.060 A 
ATOM     13  C   UNL d   1      24.698  -8.825  -6.005  0.00  0.00     0.048 C 
ATOM     14  C   UNL d   1      25.906 -10.843  -5.188  0.00  0.00     0.037 A 
ENDBRANCH   4   7
ENDBRANCH   1   3
BRANCH   1  15
ATOM     15  N   UNL d   1      25.425 -15.603  -2.228  0.00  0.00    -0.344 N 
ATOM     16  C   UNL d   1      25.418 -16.445  -1.140  0.00  0.00     0.252 C 
ATOM     17  O   UNL d   1      26.344 -16.512  -0.333  0.00  0.00    -0.268 OA
ATOM     18  H   UNL d   1      24.619 -15.540  -2.848  0.00  0.00     0.163 HD
BRANCH  16  19
ATOM     19  C   UNL d   1      24.211 -17.287  -0.914  0.00  0.00     0.032 A 
ATOM     20  C   UNL d   1      24.308 -18.589  -0.413  0.00  0.00     0.018 A 
ATOM     21  C   UNL d   1      23.145 -19.325  -0.145  0.00  0.00     0.025 A 
ATOM     22  C   UNL d   1      21.888 -18.764  -0.383  0.00  0.00     0.034 A 
ATOM     23 CL   UNL d   1      20.466 -19.686  -0.076  0.00  0.00    -0.084 Cl
ATOM     24  C   UNL d   1      21.780 -17.461  -0.864  0.00  0.00     0.025 A 
ATOM     25  C   UNL d   1      22.941 -16.720  -1.121  0.00  0.00     0.018 A 
ENDBRANCH  16  19
ENDBRANCH   1  15
TORSDOF 4
ENDMDL
MODEL 8
REMARK VINA RESULT:    -7.066      1.530      2.548
REMARK INTER + INTRA:          -9.894
REMARK INTER:                  -8.259
REMARK INTRA:                  -1.635
REMARK CONF_INDEPENDENT:        1.193
REMARK UNBOUND:                -1.635
REMARK  4 active torsions:
REMARK  status: ('A' for Active; 'I' for Inactive)
REMARK    1  A    between atoms: C_7  and  N_8 
REMARK       I    between atoms: N_8  and  C_9 
REMARK    2  A    between atoms: C_9  and  C_11 
REMARK    3  A    between atoms: C_11  and  N_13 
REMARK       I    between atoms: N_13  and  C_14 
REMARK    4  A    between atoms: C_14  and  C_16 
ROOT
ATOM      1  C   UNL d   1      28.397 -16.354  -0.690  0.00  0.00     0.173 C 
ATOM      2  C   UNL d   1      29.446 -17.438  -0.897  0.00  0.00     0.042 C 
ENDROOT
BRANCH   1   3
ATOM      3  C   UNL d   1      28.713 -15.544   0.592  0.00  0.00     0.244 C 
ATOM      4  N   UNL d   1      27.631 -14.988   1.288  0.00  0.00    -0.325 N 
ATOM      5  H   UNL d   1      26.694 -15.150   0.937  0.00  0.00     0.169 HD
ATOM      6  O   UNL d   1      29.901 -15.447   0.915  0.00  0.00    -0.271 OA
BRANCH   4   7
ATOM      7  C   UNL d   1      27.729 -14.189   2.476  0.00  0.00     0.041 A 
ATOM      8  C   UNL d   1      27.406 -12.812   2.485  0.00  0.00    -0.035 A 
ATOM      9  C   UNL d   1      27.522 -12.082   3.694  0.00  0.00     0.009 A 
ATOM     10  C   UNL d   1      26.939 -12.061   1.269  0.00  0.00     0.050 C 
ATOM     11  C   UNL d   1      27.950 -12.688   4.876  0.00  0.00     0.007 A 
ATOM     12  C   UNL d   1      28.270 -14.036   4.875  0.00  0.00    -0.060 A 
ATOM     13  C   UNL d   1      28.737 -14.756   6.103  0.00  0.00     0.048 C 
ATOM     14  C   UNL d   1      28.157 -14.758   3.682  0.00  0.00     0.037 A 
ENDBRANCH   4   7
ENDBRANCH   1   3
BRANCH   1  15
ATOM     15  N   UNL d   1      27.044 -16.944  -0.528  0.00  0.00    -0.344 N 
ATOM     16  C   UNL d   1      25.881 -16.244  -0.749  0.00  0.00     0.252 C 
ATOM     17  O   UNL d   1      25.859 -15.057  -1.073  0.00  0.00    -0.268 OA
ATOM     18  H   UNL d   1      27.025 -17.939  -0.309  0.00  0.00     0.163 HD
BRANCH  16  19
ATOM     19  C   UNL d   1      24.589 -16.975  -0.627  0.00  0.00     0.032 A 
ATOM     20  C   UNL d   1      23.361 -16.321  -0.768  0.00  0.00     0.018 A 
ATOM     21  C   UNL d   1      22.167 -17.055  -0.718  0.00  0.00     0.025 A 
ATOM     22  C   UNL d   1      22.201 -18.438  -0.521  0.00  0.00     0.034 A 
ATOM     23 CL   UNL d   1      20.728 -19.327  -0.434  0.00  0.00    -0.084 Cl
ATOM     24  C   UNL d   1      23.419 -19.101  -0.398  0.00  0.00     0.025 A 
ATOM     25  C   UNL d   1      24.613 -18.370  -0.459  0.00  0.00     0.018 A 
ENDBRANCH  16  19
ENDBRANCH   1  15
TORSDOF 4
ENDMDL
MODEL 9
REMARK VINA RESULT:    -6.974      5.817      8.209
REMARK INTER + INTRA:          -9.846
REMARK INTER:                  -8.167
REMARK INTRA:                  -1.679
REMARK CONF_INDEPENDENT:        1.193
REMARK UNBOUND:                -1.679
REMARK  4 active torsions:
REMARK  status: ('A' for Active; 'I' for Inactive)
REMARK    1  A    between atoms: C_7  and  N_8 
REMARK       I    between atoms: N_8  and  C_9 
REMARK    2  A    between atoms: C_9  and  C_11 
REMARK    3  A    between atoms: C_11  and  N_13 
REMARK       I    between atoms: N_13  and  C_14 
REMARK    4  A    between atoms: C_14  and  C_16 
ROOT
ATOM      1  C   UNL d   1      27.297 -14.325  -4.563  0.00  0.00     0.173 C 
ATOM      2  C   UNL d   1      28.111 -13.350  -3.722  0.00  0.00     0.042 C 
ENDROOT
BRANCH   1   3
ATOM      3  C   UNL d   1      26.347 -15.147  -3.656  0.00  0.00     0.244 C 
ATOM      4  N   UNL d   1      26.909 -15.785  -2.542  0.00  0.00    -0.325 N 
ATOM      5  H   UNL d   1      27.900 -15.671  -2.367  0.00  0.00     0.169 HD
ATOM      6  O   UNL d   1      25.155 -15.179  -3.977  0.00  0.00    -0.271 OA
BRANCH   4   7
ATOM      7  C   UNL d   1      26.194 -16.606  -1.607  0.00  0.00     0.041 A 
ATOM      8  C   UNL d   1      26.857 -17.375  -0.622  0.00  0.00    -0.035 A 
ATOM      9  C   UNL d   1      26.091 -18.162   0.273  0.00  0.00     0.009 A 
ATOM     10  C   UNL d   1      28.352 -17.410  -0.463  0.00  0.00     0.050 C 
ATOM     11  C   UNL d   1      24.698 -18.199   0.205  0.00  0.00     0.007 A 
ATOM     12  C   UNL d   1      24.041 -17.451  -0.758  0.00  0.00    -0.060 A 
ATOM     13  C   UNL d   1      22.549 -17.439  -0.894  0.00  0.00     0.048 C 
ATOM     14  C   UNL d   1      24.796 -16.673  -1.643  0.00  0.00     0.037 A 
ENDBRANCH   4   7
ENDBRANCH   1   3
BRANCH   1  15
ATOM     15  N   UNL d   1      28.180 -15.283  -5.275  0.00  0.00    -0.344 N 
ATOM     16  C   UNL d   1      29.214 -15.956  -4.665  0.00  0.00     0.252 C 
ATOM     17  O   UNL d   1      29.515 -15.801  -3.483  0.00  0.00    -0.268 OA
ATOM     18  H   UNL d   1      27.929 -15.473  -6.243  0.00  0.00     0.163 HD
BRANCH  16  19
ATOM     19  C   UNL d   1      29.976 -16.949  -5.472  0.00  0.00     0.032 A 
ATOM     20  C   UNL d   1      30.117 -18.277  -5.057  0.00  0.00     0.018 A 
ATOM     21  C   UNL d   1      30.780 -19.200  -5.878  0.00  0.00     0.025 A 
ATOM     22  C   UNL d   1      31.306 -18.796  -7.108  0.00  0.00     0.034 A 
ATOM     23 CL   UNL d   1      32.143 -19.931  -8.096  0.00  0.00    -0.084 Cl
ATOM     24  C   UNL d   1      31.155 -17.480  -7.538  0.00  0.00     0.025 A 
ATOM     25  C   UNL d   1      30.482 -16.559  -6.724  0.00  0.00     0.018 A 
ENDBRANCH  16  19
ENDBRANCH   1  15
TORSDOF 4
ENDMDL
