MODEL 1
REMARK VINA RESULT:    -8.866      0.000      0.000
REMARK INTER + INTRA:         -12.418
REMARK INTER:                 -10.656
REMARK INTRA:                  -1.762
REMARK CONF_INDEPENDENT:        1.790
REMARK UNBOUND:                -1.762
REMARK  6 active torsions:
REMARK  status: ('A' for Active; 'I' for Inactive)
REMARK    1  A    between atoms: N_4  and  C_5 
REMARK    2  A    between atoms: C_7  and  N_8 
REMARK    3  A    between atoms: N_11  and  C_12 
REMARK    4  A    between atoms: C_12  and  C_13 
REMARK    5  A    between atoms: C_22  and  N_23 
REMARK    6  A    between atoms: C_24  and  N_25 
ROOT
ATOM      1  C   UNL d   1      27.028  -9.415   0.646  0.00  0.00     0.182 A 
ATOM      2  N   UNL d   1      27.347 -10.685   0.238  0.00  0.00    -0.042 NA
ATOM      3  C   UNL d   1      27.454 -11.669   1.150  0.00  0.00     0.728 A 
ATOM      4  N   UNL d   1      27.283 -11.460   2.455  0.00  0.00    -0.043 NA
ATOM      5  C   UNL d   1      27.000 -10.210   2.878  0.00  0.00     0.177 A 
ATOM      6  C   UNL d   1      26.814  -9.151   1.991  0.00  0.00     0.195 A 
ENDROOT
BRANCH   3   7
ATOM      7  N   UNL d   1      27.715 -12.956   0.744  0.00  0.00    -0.211 N 
ATOM      8  C   UNL d   1      28.874 -13.239  -0.103  0.00  0.00     0.169 C 
ATOM      9  C   UNL d   1      29.737 -14.358   0.550  0.00  0.00     0.255 C 
ATOM     10  N   UNL d   1      28.880 -15.589   0.861  0.00  0.00    -0.064 N 
ATOM     11  C   UNL d   1      27.780 -15.141   1.839  0.00  0.00     0.255 C 
ATOM     12  H   UNL d   1      29.463 -16.278   1.355  0.00  0.00     0.280 HD
ATOM     13  C   UNL d   1      26.881 -14.074   1.167  0.00  0.00     0.169 C 
BRANCH  10  14
ATOM     14  C   UNL d   1      28.414 -16.276  -0.415  0.00  0.00     0.273 C 
BRANCH  14  15
ATOM     15  C   UNL d   1      26.974 -16.695  -0.429  0.00  0.00    -0.033 C 
ATOM     16  C   UNL d   1      26.525 -17.753   0.363  0.00  0.00     0.009 C 
ATOM     17  C   UNL d   1      25.209 -18.202   0.230  0.00  0.00     0.001 C 
ATOM     18  C   UNL d   1      24.300 -17.518  -0.579  0.00  0.00     0.000 C 
ATOM     19  C   UNL d   1      24.725 -16.448  -1.343  0.00  0.00     0.001 C 
ATOM     20  C   UNL d   1      26.065 -16.109  -1.326  0.00  0.00     0.009 C 
ENDBRANCH  14  15
ENDBRANCH  10  14
ENDBRANCH   3   7
BRANCH   1  21
ATOM     21  N   UNL d   1      26.998  -8.445  -0.333  0.00  0.00    -0.358 N 
ATOM     22  C   UNL d   1      28.212  -7.763  -0.810  0.00  0.00     0.156 C 
ATOM     23  C   UNL d   1      28.377  -7.960  -2.330  0.00  0.00     0.136 C 
ATOM     24  C   UNL d   1      28.949  -9.331  -2.697  0.00  0.00     0.041 C 
ATOM     25  O   UNL d   1      27.167  -7.644  -3.049  0.00  0.00    -0.378 OA
ATOM     26  C   UNL d   1      25.966  -8.262  -2.544  0.00  0.00     0.136 C 
ATOM     27  C   UNL d   1      25.775  -8.043  -1.031  0.00  0.00     0.156 C 
ATOM     28  C   UNL d   1      25.955  -9.753  -2.843  0.00  0.00     0.041 C 
ENDBRANCH   1  21
BRANCH   5  29
ATOM     29  N   UNL d   1      26.997 -10.081   4.248  0.00  0.00    -0.381 N 
ATOM     30  H   UNL d   1      27.324 -10.847   4.817  0.00  0.00     0.157 HD
ATOM     31  H   UNL d   1      26.518  -9.297   4.689  0.00  0.00     0.157 HD
ENDBRANCH   5  29
BRANCH   6  32
ATOM     32  N   UNL d   1      26.314  -7.863   2.485  0.00  0.00    -0.108 N 
ATOM     33  O   UNL d   1      25.530  -7.201   1.781  0.00  0.00    -0.532 OA
ATOM     34  O   UNL d   1      26.662  -7.486   3.607  0.00  0.00    -0.532 OA
ENDBRANCH   6  32
TORSDOF 6
ENDMDL
MODEL 2
REMARK VINA RESULT:    -7.768      2.463      4.950
REMARK INTER + INTRA:         -11.216
REMARK INTER:                  -9.558
REMARK INTRA:                  -1.658
REMARK CONF_INDEPENDENT:        1.790
REMARK UNBOUND:                -1.658
REMARK  6 active torsions:
REMARK  status: ('A' for Active; 'I' for Inactive)
REMARK    1  A    between atoms: N_4  and  C_5 
REMARK    2  A    between atoms: C_7  and  N_8 
REMARK    3  A    between atoms: N_11  and  C_12 
REMARK    4  A    between atoms: C_12  and  C_13 
REMARK    5  A    between atoms: C_22  and  N_23 
REMARK    6  A    between atoms: C_24  and  N_25 
ROOT
ATOM      1  C   UNL d   1      27.868 -10.709   3.855  0.00  0.00     0.182 A 
ATOM      2  N   UNL d   1      28.054 -11.884   3.173  0.00  0.00    -0.042 NA
ATOM      3  C   UNL d   1      27.551 -12.020   1.933  0.00  0.00     0.728 A 
ATOM      4  N   UNL d   1      26.847 -11.060   1.335  0.00  0.00    -0.043 NA
ATOM      5  C   UNL d   1      26.625  -9.908   2.003  0.00  0.00     0.177 A 
ATOM      6  C   UNL d   1      27.165  -9.668   3.266  0.00  0.00     0.195 A 
ENDROOT
BRANCH   3   7
ATOM      7  N   UNL d   1      27.783 -13.171   1.219  0.00  0.00    -0.211 N 
ATOM      8  C   UNL d   1      28.946 -13.265   0.334  0.00  0.00     0.169 C 
ATOM      9  C   UNL d   1      29.771 -14.535   0.690  0.00  0.00     0.255 C 
ATOM     10  N   UNL d   1      28.880 -15.781   0.677  0.00  0.00    -0.064 N 
ATOM     11  C   UNL d   1      27.779 -15.561   1.730  0.00  0.00     0.255 C 
ATOM     12  H   UNL d   1      29.438 -16.588   0.986  0.00  0.00     0.280 HD
ATOM     13  C   UNL d   1      26.916 -14.336   1.343  0.00  0.00     0.169 C 
BRANCH  10  14
ATOM     14  C   UNL d   1      28.412 -16.113  -0.732  0.00  0.00     0.273 C 
BRANCH  14  15
ATOM     15  C   UNL d   1      27.003 -16.618  -0.839  0.00  0.00    -0.033 C 
ATOM     16  C   UNL d   1      26.054 -15.943  -1.608  0.00  0.00     0.009 C 
ATOM     17  C   UNL d   1      24.722 -16.364  -1.583  0.00  0.00     0.001 C 
ATOM     18  C   UNL d   1      24.356 -17.532  -0.912  0.00  0.00     0.000 C 
ATOM     19  C   UNL d   1      25.293 -18.227  -0.174  0.00  0.00     0.001 C 
ATOM     20  C   UNL d   1      26.575 -17.716  -0.075  0.00  0.00     0.009 C 
ENDBRANCH  14  15
ENDBRANCH  10  14
ENDBRANCH   3   7
BRANCH   1  21
ATOM     21  N   UNL d   1      28.356 -10.662   5.144  0.00  0.00    -0.358 N 
ATOM     22  C   UNL d   1      27.776 -11.455   6.240  0.00  0.00     0.156 C 
ATOM     23  C   UNL d   1      28.848 -12.367   6.870  0.00  0.00     0.136 C 
ATOM     24  C   UNL d   1      29.122 -13.626   6.044  0.00  0.00     0.041 C 
ATOM     25  O   UNL d   1      30.049 -11.639   7.201  0.00  0.00    -0.378 OA
ATOM     26  C   UNL d   1      30.583 -10.811   6.146  0.00  0.00     0.136 C 
ATOM     27  C   UNL d   1      29.527  -9.873   5.533  0.00  0.00     0.156 C 
ATOM     28  C   UNL d   1      31.200 -11.662   5.048  0.00  0.00     0.041 C 
ENDBRANCH   1  21
BRANCH   5  29
ATOM     29  N   UNL d   1      25.764  -9.053   1.355  0.00  0.00    -0.381 N 
ATOM     30  H   UNL d   1      25.567  -9.199   0.377  0.00  0.00     0.157 HD
ATOM     31  H   UNL d   1      25.458  -8.192   1.806  0.00  0.00     0.157 HD
ENDBRANCH   5  29
BRANCH   6  32
ATOM     32  N   UNL d   1      27.062  -8.332   3.863  0.00  0.00    -0.108 N 
ATOM     33  O   UNL d   1      26.697  -7.373   3.158  0.00  0.00    -0.532 OA
ATOM     34  O   UNL d   1      27.309  -8.202   5.065  0.00  0.00    -0.532 OA
ENDBRANCH   6  32
TORSDOF 6
ENDMDL
MODEL 3
REMARK VINA RESULT:    -7.662      5.297      7.277
REMARK INTER + INTRA:         -11.160
REMARK INTER:                  -9.452
REMARK INTRA:                  -1.708
REMARK CONF_INDEPENDENT:        1.790
REMARK UNBOUND:                -1.708
REMARK  6 active torsions:
REMARK  status: ('A' for Active; 'I' for Inactive)
REMARK    1  A    between atoms: N_4  and  C_5 
REMARK    2  A    between atoms: C_7  and  N_8 
REMARK    3  A    between atoms: N_11  and  C_12 
REMARK    4  A    between atoms: C_12  and  C_13 
REMARK    5  A    between atoms: C_22  and  N_23 
REMARK    6  A    between atoms: C_24  and  N_25 
ROOT
ATOM      1  C   UNL d   1      27.303 -10.963   3.071  0.00  0.00     0.182 A 
ATOM      2  N   UNL d   1      28.059 -11.752   3.900  0.00  0.00    -0.042 NA
ATOM      3  C   UNL d   1      28.479 -11.264   5.081  0.00  0.00     0.728 A 
ATOM      4  N   UNL d   1      28.211 -10.022   5.481  0.00  0.00    -0.043 NA
ATOM      5  C   UNL d   1      27.496  -9.219   4.664  0.00  0.00     0.177 A 
ATOM      6  C   UNL d   1      26.974  -9.670   3.453  0.00  0.00     0.195 A 
ENDROOT
BRANCH   3   7
ATOM      7  N   UNL d   1      29.187 -12.067   5.943  0.00  0.00    -0.211 N 
ATOM      8  C   UNL d   1      29.087 -11.861   7.389  0.00  0.00     0.169 C 
ATOM      9  C   UNL d   1      28.701 -13.200   8.082  0.00  0.00     0.255 C 
ATOM     10  N   UNL d   1      29.671 -14.316   7.680  0.00  0.00    -0.064 N 
ATOM     11  C   UNL d   1      29.574 -14.472   6.152  0.00  0.00     0.255 C 
ATOM     12  H   UNL d   1      29.346 -15.199   8.096  0.00  0.00     0.280 HD
ATOM     13  C   UNL d   1      30.020 -13.161   5.460  0.00  0.00     0.169 C 
BRANCH  10  14
ATOM     14  C   UNL d   1      31.061 -14.073   8.250  0.00  0.00     0.273 C 
BRANCH  14  15
ATOM     15  C   UNL d   1      31.339 -14.733   9.568  0.00  0.00    -0.033 C 
ATOM     16  C   UNL d   1      32.642 -14.841  10.058  0.00  0.00     0.009 C 
ATOM     17  C   UNL d   1      32.881 -15.574  11.223  0.00  0.00     0.001 C 
ATOM     18  C   UNL d   1      31.821 -16.080  11.978  0.00  0.00     0.000 C 
ATOM     19  C   UNL d   1      30.524 -15.952  11.519  0.00  0.00     0.001 C 
ATOM     20  C   UNL d   1      30.309 -15.363  10.287  0.00  0.00     0.009 C 
ENDBRANCH  14  15
ENDBRANCH  10  14
ENDBRANCH   3   7
BRANCH   1  21
ATOM     21  N   UNL d   1      26.960 -11.504   1.850  0.00  0.00    -0.358 N 
ATOM     22  C   UNL d   1      27.328 -10.874   0.572  0.00  0.00     0.156 C 
ATOM     23  C   UNL d   1      28.160 -11.847  -0.288  0.00  0.00     0.136 C 
ATOM     24  C   UNL d   1      29.625 -11.926   0.146  0.00  0.00     0.041 C 
ATOM     25  O   UNL d   1      27.533 -13.142  -0.395  0.00  0.00    -0.378 OA
ATOM     26  C   UNL d   1      27.115 -13.733   0.853  0.00  0.00     0.136 C 
ATOM     27  C   UNL d   1      26.256 -12.780   1.705  0.00  0.00     0.156 C 
ATOM     28  C   UNL d   1      28.315 -14.193   1.665  0.00  0.00     0.041 C 
ENDBRANCH   1  21
BRANCH   5  29
ATOM     29  N   UNL d   1      27.411  -7.920   5.107  0.00  0.00    -0.381 N 
ATOM     30  H   UNL d   1      27.225  -7.741   6.083  0.00  0.00     0.157 HD
ATOM     31  H   UNL d   1      27.370  -7.151   4.440  0.00  0.00     0.157 HD
ENDBRANCH   5  29
BRANCH   6  32
ATOM     32  N   UNL d   1      26.041  -8.825   2.700  0.00  0.00    -0.108 N 
ATOM     33  O   UNL d   1      25.037  -9.340   2.175  0.00  0.00    -0.532 OA
ATOM     34  O   UNL d   1      26.262  -7.613   2.636  0.00  0.00    -0.532 OA
ENDBRANCH   6  32
TORSDOF 6
ENDMDL
MODEL 4
REMARK VINA RESULT:    -7.470      3.433      6.039
REMARK INTER + INTRA:         -11.095
REMARK INTER:                  -9.260
REMARK INTRA:                  -1.834
REMARK CONF_INDEPENDENT:        1.790
REMARK UNBOUND:                -1.834
REMARK  6 active torsions:
REMARK  status: ('A' for Active; 'I' for Inactive)
REMARK    1  A    between atoms: N_4  and  C_5 
REMARK    2  A    between atoms: C_7  and  N_8 
REMARK    3  A    between atoms: N_11  and  C_12 
REMARK    4  A    between atoms: C_12  and  C_13 
REMARK    5  A    between atoms: C_22  and  N_23 
REMARK    6  A    between atoms: C_24  and  N_25 
ROOT
ATOM      1  C   UNL d   1      26.844 -12.277  -2.905  0.00  0.00     0.182 A 
ATOM      2  N   UNL d   1      27.043 -12.976  -1.743  0.00  0.00    -0.042 NA
ATOM      3  C   UNL d   1      27.372 -12.317  -0.617  0.00  0.00     0.728 A 
ATOM      4  N   UNL d   1      27.540 -10.995  -0.583  0.00  0.00    -0.043 NA
ATOM      5  C   UNL d   1      27.380 -10.293  -1.725  0.00  0.00     0.177 A 
ATOM      6  C   UNL d   1      26.980 -10.896  -2.916  0.00  0.00     0.195 A 
ENDROOT
BRANCH   3   7
ATOM      7  N   UNL d   1      27.515 -13.003   0.565  0.00  0.00    -0.211 N 
ATOM      8  C   UNL d   1      26.988 -14.363   0.694  0.00  0.00     0.169 C 
ATOM      9  C   UNL d   1      28.116 -15.314   1.190  0.00  0.00     0.255 C 
ATOM     10  N   UNL d   1      28.755 -14.772   2.472  0.00  0.00    -0.064 N 
ATOM     11  C   UNL d   1      29.347 -13.392   2.135  0.00  0.00     0.255 C 
ATOM     12  H   UNL d   1      29.541 -15.383   2.732  0.00  0.00     0.280 HD
ATOM     13  C   UNL d   1      28.217 -12.426   1.704  0.00  0.00     0.169 C 
BRANCH  10  14
ATOM     14  C   UNL d   1      27.783 -14.825   3.642  0.00  0.00     0.273 C 
BRANCH  14  15
ATOM     15  C   UNL d   1      28.224 -14.098   4.878  0.00  0.00    -0.033 C 
ATOM     16  C   UNL d   1      28.991 -14.738   5.853  0.00  0.00     0.009 C 
ATOM     17  C   UNL d   1      29.275 -14.076   7.050  0.00  0.00     0.001 C 
ATOM     18  C   UNL d   1      28.925 -12.736   7.224  0.00  0.00     0.000 C 
ATOM     19  C   UNL d   1      28.194 -12.081   6.251  0.00  0.00     0.001 C 
ATOM     20  C   UNL d   1      27.780 -12.791   5.139  0.00  0.00     0.009 C 
ENDBRANCH  14  15
ENDBRANCH  10  14
ENDBRANCH   3   7
BRANCH   1  21
ATOM     21  N   UNL d   1      26.571 -13.022  -4.032  0.00  0.00    -0.358 N 
ATOM     22  C   UNL d   1      27.574 -13.269  -5.081  0.00  0.00     0.156 C 
ATOM     23  C   UNL d   1      27.786 -14.784  -5.277  0.00  0.00     0.136 C 
ATOM     24  C   UNL d   1      28.687 -15.404  -4.207  0.00  0.00     0.041 C 
ATOM     25  O   UNL d   1      26.537 -15.486  -5.438  0.00  0.00    -0.378 OA
ATOM     26  C   UNL d   1      25.530 -15.197  -4.446  0.00  0.00     0.136 C 
ATOM     27  C   UNL d   1      25.288 -13.687  -4.267  0.00  0.00     0.156 C 
ATOM     28  C   UNL d   1      25.897 -15.812  -3.105  0.00  0.00     0.041 C 
ENDBRANCH   1  21
BRANCH   5  29
ATOM     29  N   UNL d   1      27.726  -8.967  -1.607  0.00  0.00    -0.381 N 
ATOM     30  H   UNL d   1      27.890  -8.423  -2.440  0.00  0.00     0.157 HD
ATOM     31  H   UNL d   1      27.976  -8.580  -0.697  0.00  0.00     0.157 HD
ENDBRANCH   5  29
BRANCH   6  32
ATOM     32  N   UNL d   1      26.629 -10.066  -4.073  0.00  0.00    -0.108 N 
ATOM     33  O   UNL d   1      27.335  -9.080  -4.356  0.00  0.00    -0.532 OA
ATOM     34  O   UNL d   1      25.656 -10.390  -4.759  0.00  0.00    -0.532 OA
ENDBRANCH   6  32
TORSDOF 6
ENDMDL
MODEL 5
REMARK VINA RESULT:    -7.113      3.817      6.638
REMARK INTER + INTRA:         -10.632
REMARK INTER:                  -8.903
REMARK INTRA:                  -1.729
REMARK CONF_INDEPENDENT:        1.790
REMARK UNBOUND:                -1.729
REMARK  6 active torsions:
REMARK  status: ('A' for Active; 'I' for Inactive)
REMARK    1  A    between atoms: N_4  and  C_5 
REMARK    2  A    between atoms: C_7  and  N_8 
REMARK    3  A    between atoms: N_11  and  C_12 
REMARK    4  A    between atoms: C_12  and  C_13 
REMARK    5  A    between atoms: C_22  and  N_23 
REMARK    6  A    between atoms: C_24  and  N_25 
ROOT
ATOM      1  C   UNL d   1      27.400 -13.565  -3.261  0.00  0.00     0.182 A 
ATOM      2  N   UNL d   1      27.882 -13.275  -2.010  0.00  0.00    -0.042 NA
ATOM      3  C   UNL d   1      27.682 -14.143  -1.002  0.00  0.00     0.728 A 
ATOM      4  N   UNL d   1      27.005 -15.280  -1.158  0.00  0.00    -0.043 NA
ATOM      5  C   UNL d   1      26.495 -15.568  -2.375  0.00  0.00     0.177 A 
ATOM      6  C   UNL d   1      26.711 -14.749  -3.482  0.00  0.00     0.195 A 
ENDROOT
BRANCH   3   7
ATOM      7  N   UNL d   1      28.213 -13.888   0.240  0.00  0.00    -0.211 N 
ATOM      8  C   UNL d   1      27.341 -13.828   1.414  0.00  0.00     0.169 C 
ATOM      9  C   UNL d   1      27.875 -14.794   2.511  0.00  0.00     0.255 C 
ATOM     10  N   UNL d   1      29.348 -14.504   2.817  0.00  0.00    -0.064 N 
ATOM     11  C   UNL d   1      30.132 -14.714   1.509  0.00  0.00     0.255 C 
ATOM     12  H   UNL d   1      29.688 -15.203   3.490  0.00  0.00     0.280 HD
ATOM     13  C   UNL d   1      29.645 -13.709   0.437  0.00  0.00     0.169 C 
BRANCH  10  14
ATOM     14  C   UNL d   1      29.516 -13.153   3.499  0.00  0.00     0.273 C 
BRANCH  14  15
ATOM     15  C   UNL d   1      29.127 -13.112   4.947  0.00  0.00    -0.033 C 
ATOM     16  C   UNL d   1      28.349 -12.070   5.453  0.00  0.00     0.009 C 
ATOM     17  C   UNL d   1      28.114 -11.991   6.828  0.00  0.00     0.001 C 
ATOM     18  C   UNL d   1      28.526 -13.015   7.682  0.00  0.00     0.000 C 
ATOM     19  C   UNL d   1      29.270 -14.069   7.187  0.00  0.00     0.001 C 
ATOM     20  C   UNL d   1      29.634 -14.059   5.853  0.00  0.00     0.009 C 
ENDBRANCH  14  15
ENDBRANCH  10  14
ENDBRANCH   3   7
BRANCH   1  21
ATOM     21  N   UNL d   1      27.586 -12.602  -4.230  0.00  0.00    -0.358 N 
ATOM     22  C   UNL d   1      26.495 -12.128  -5.097  0.00  0.00     0.156 C 
ATOM     23  C   UNL d   1      26.315 -10.604  -4.950  0.00  0.00     0.136 C 
ATOM     24  C   UNL d   1      25.544 -10.211  -3.688  0.00  0.00     0.041 C 
ATOM     25  O   UNL d   1      27.566  -9.898  -5.088  0.00  0.00    -0.378 OA
ATOM     26  C   UNL d   1      28.654 -10.402  -4.286  0.00  0.00     0.136 C 
ATOM     27  C   UNL d   1      28.863 -11.919  -4.451  0.00  0.00     0.156 C 
ATOM     28  C   UNL d   1      28.440 -10.079  -2.817  0.00  0.00     0.041 C 
ENDBRANCH   1  21
BRANCH   5  29
ATOM     29  N   UNL d   1      25.690 -16.683  -2.383  0.00  0.00    -0.381 N 
ATOM     30  H   UNL d   1      25.800 -17.377  -1.658  0.00  0.00     0.157 HD
ATOM     31  H   UNL d   1      25.110 -16.892  -3.194  0.00  0.00     0.157 HD
ENDBRANCH   5  29
BRANCH   6  32
ATOM     32  N   UNL d   1      26.307 -15.203  -4.816  0.00  0.00    -0.108 N 
ATOM     33  O   UNL d   1      27.139 -15.197  -5.743  0.00  0.00    -0.532 OA
ATOM     34  O   UNL d   1      25.154 -15.614  -4.976  0.00  0.00    -0.532 OA
ENDBRANCH   6  32
TORSDOF 6
ENDMDL
MODEL 6
REMARK VINA RESULT:    -7.085      4.139      7.617
REMARK INTER + INTRA:         -10.336
REMARK INTER:                  -8.875
REMARK INTRA:                  -1.461
REMARK CONF_INDEPENDENT:        1.790
REMARK UNBOUND:                -1.461
REMARK  6 active torsions:
REMARK  status: ('A' for Active; 'I' for Inactive)
REMARK    1  A    between atoms: N_4  and  C_5 
REMARK    2  A    between atoms: C_7  and  N_8 
REMARK    3  A    between atoms: N_11  and  C_12 
REMARK    4  A    between atoms: C_12  and  C_13 
REMARK    5  A    between atoms: C_22  and  N_23 
REMARK    6  A    between atoms: C_24  and  N_25 
ROOT
ATOM      1  C   UNL d   1      26.461 -14.889  -1.315  0.00  0.00     0.182 A 
ATOM      2  N   UNL d   1      27.116 -14.769  -0.116  0.00  0.00    -0.042 NA
ATOM      3  C   UNL d   1      27.615 -13.574   0.253  0.00  0.00     0.728 A 
ATOM      4  N   UNL d   1      27.521 -12.490  -0.515  0.00  0.00    -0.043 NA
ATOM      5  C   UNL d   1      26.908 -12.596  -1.714  0.00  0.00     0.177 A 
ATOM      6  C   UNL d   1      26.313 -13.782  -2.140  0.00  0.00     0.195 A 
ENDROOT
BRANCH   3   7
ATOM      7  N   UNL d   1      28.220 -13.431   1.478  0.00  0.00    -0.211 N 
ATOM      8  C   UNL d   1      27.411 -13.391   2.697  0.00  0.00     0.169 C 
ATOM      9  C   UNL d   1      27.935 -14.455   3.706  0.00  0.00     0.255 C 
ATOM     10  N   UNL d   1      29.436 -14.274   3.951  0.00  0.00    -0.064 N 
ATOM     11  C   UNL d   1      30.141 -14.449   2.594  0.00  0.00     0.255 C 
ATOM     12  H   UNL d   1      29.763 -15.034   4.563  0.00  0.00     0.280 HD
ATOM     13  C   UNL d   1      29.669 -13.352   1.610  0.00  0.00     0.169 C 
BRANCH  10  14
ATOM     14  C   UNL d   1      29.723 -12.982   4.702  0.00  0.00     0.273 C 
BRANCH  14  15
ATOM     15  C   UNL d   1      29.352 -12.988   6.156  0.00  0.00    -0.033 C 
ATOM     16  C   UNL d   1      29.699 -14.059   6.982  0.00  0.00     0.009 C 
ATOM     17  C   UNL d   1      29.227 -14.095   8.296  0.00  0.00     0.001 C 
ATOM     18  C   UNL d   1      28.533 -13.010   8.835  0.00  0.00     0.000 C 
ATOM     19  C   UNL d   1      28.212 -11.931   8.036  0.00  0.00     0.001 C 
ATOM     20  C   UNL d   1      28.545 -11.972   6.695  0.00  0.00     0.009 C 
ENDBRANCH  14  15
ENDBRANCH  10  14
ENDBRANCH   3   7
BRANCH   1  21
ATOM     21  N   UNL d   1      26.032 -16.154  -1.657  0.00  0.00    -0.358 N 
ATOM     22  C   UNL d   1      26.819 -17.363  -1.364  0.00  0.00     0.156 C 
ATOM     23  C   UNL d   1      25.999 -18.341  -0.498  0.00  0.00     0.136 C 
ATOM     24  C   UNL d   1      25.969 -17.949   0.980  0.00  0.00     0.041 C 
ATOM     25  O   UNL d   1      24.685 -18.575  -1.046  0.00  0.00    -0.378 OA
ATOM     26  C   UNL d   1      23.938 -17.391  -1.393  0.00  0.00     0.136 C 
ATOM     27  C   UNL d   1      24.737 -16.422  -2.285  0.00  0.00     0.156 C 
ATOM     28  C   UNL d   1      23.472 -16.658  -0.145  0.00  0.00     0.041 C 
ENDBRANCH   1  21
BRANCH   5  29
ATOM     29  N   UNL d   1      27.004 -11.459  -2.482  0.00  0.00    -0.381 N 
ATOM     30  H   UNL d   1      26.390 -11.345  -3.274  0.00  0.00     0.157 HD
ATOM     31  H   UNL d   1      27.789 -10.821  -2.359  0.00  0.00     0.157 HD
ENDBRANCH   5  29
BRANCH   6  32
ATOM     32  N   UNL d   1      25.492 -13.793  -3.354  0.00  0.00    -0.108 N 
ATOM     33  O   UNL d   1      24.780 -12.807  -3.620  0.00  0.00    -0.532 OA
ATOM     34  O   UNL d   1      25.555 -14.773  -4.101  0.00  0.00    -0.532 OA
ENDBRANCH   6  32
TORSDOF 6
ENDMDL
MODEL 7
REMARK VINA RESULT:    -7.066      5.281      7.526
REMARK INTER + INTRA:         -10.243
REMARK INTER:                  -8.856
REMARK INTRA:                  -1.387
REMARK CONF_INDEPENDENT:        1.790
REMARK UNBOUND:                -1.387
REMARK  6 active torsions:
REMARK  status: ('A' for Active; 'I' for Inactive)
REMARK    1  A    between atoms: N_4  and  C_5 
REMARK    2  A    between atoms: C_7  and  N_8 
REMARK    3  A    between atoms: N_11  and  C_12 
REMARK    4  A    between atoms: C_12  and  C_13 
REMARK    5  A    between atoms: C_22  and  N_23 
REMARK    6  A    between atoms: C_24  and  N_25 
ROOT
ATOM      1  C   UNL d   1      27.645 -11.028   4.046  0.00  0.00     0.182 A 
ATOM      2  N   UNL d   1      28.498 -11.602   4.953  0.00  0.00    -0.042 NA
ATOM      3  C   UNL d   1      29.077 -10.839   5.898  0.00  0.00     0.728 A 
ATOM      4  N   UNL d   1      28.874  -9.525   5.982  0.00  0.00    -0.043 NA
ATOM      5  C   UNL d   1      28.063  -8.936   5.077  0.00  0.00     0.177 A 
ATOM      6  C   UNL d   1      27.380  -9.667   4.107  0.00  0.00     0.195 A 
ENDROOT
BRANCH   3   7
ATOM      7  N   UNL d   1      29.886 -11.415   6.848  0.00  0.00    -0.211 N 
ATOM      8  C   UNL d   1      29.537 -12.717   7.419  0.00  0.00     0.169 C 
ATOM      9  C   UNL d   1      30.743 -13.690   7.274  0.00  0.00     0.255 C 
ATOM     10  N   UNL d   1      32.011 -13.072   7.870  0.00  0.00    -0.064 N 
ATOM     11  C   UNL d   1      32.291 -11.774   7.091  0.00  0.00     0.255 C 
ATOM     12  H   UNL d   1      32.801 -13.707   7.694  0.00  0.00     0.280 HD
ATOM     13  C   UNL d   1      31.122 -10.780   7.287  0.00  0.00     0.169 C 
BRANCH  10  14
ATOM     14  C   UNL d   1      31.908 -12.944   9.383  0.00  0.00     0.273 C 
BRANCH  14  15
ATOM     15  C   UNL d   1      30.621 -13.428   9.982  0.00  0.00    -0.033 C 
ATOM     16  C   UNL d   1      30.320 -14.790  10.037  0.00  0.00     0.009 C 
ATOM     17  C   UNL d   1      29.060 -15.200  10.480  0.00  0.00     0.001 C 
ATOM     18  C   UNL d   1      28.152 -14.276  11.001  0.00  0.00     0.000 C 
ATOM     19  C   UNL d   1      28.452 -12.928  10.982  0.00  0.00     0.001 C 
ATOM     20  C   UNL d   1      29.635 -12.516  10.396  0.00  0.00     0.009 C 
ENDBRANCH  14  15
ENDBRANCH  10  14
ENDBRANCH   3   7
BRANCH   1  21
ATOM     21  N   UNL d   1      27.139 -11.858   3.068  0.00  0.00    -0.358 N 
ATOM     22  C   UNL d   1      26.827 -11.384   1.710  0.00  0.00     0.156 C 
ATOM     23  C   UNL d   1      27.620 -12.191   0.663  0.00  0.00     0.136 C 
ATOM     24  C   UNL d   1      29.075 -11.737   0.535  0.00  0.00     0.041 C 
ATOM     25  O   UNL d   1      27.490 -13.613   0.867  0.00  0.00    -0.378 OA
ATOM     26  C   UNL d   1      27.734 -14.072   2.213  0.00  0.00     0.136 C 
ATOM     27  C   UNL d   1      26.921 -13.293   3.264  0.00  0.00     0.156 C 
ATOM     28  C   UNL d   1      29.212 -13.987   2.555  0.00  0.00     0.041 C 
ENDBRANCH   1  21
BRANCH   5  29
ATOM     29  N   UNL d   1      28.048  -7.563   5.163  0.00  0.00    -0.381 N 
ATOM     30  H   UNL d   1      27.602  -7.027   4.435  0.00  0.00     0.157 HD
ATOM     31  H   UNL d   1      28.621  -7.086   5.859  0.00  0.00     0.157 HD
ENDBRANCH   5  29
BRANCH   6  32
ATOM     32  N   UNL d   1      26.362  -9.012   3.279  0.00  0.00    -0.108 N 
ATOM     33  O   UNL d   1      25.253  -9.556   3.129  0.00  0.00    -0.532 OA
ATOM     34  O   UNL d   1      26.625  -7.915   2.778  0.00  0.00    -0.532 OA
ENDBRANCH   6  32
TORSDOF 6
ENDMDL
MODEL 8
REMARK VINA RESULT:    -7.024      1.798      3.896
REMARK INTER + INTRA:         -10.427
REMARK INTER:                  -8.813
REMARK INTRA:                  -1.614
REMARK CONF_INDEPENDENT:        1.790
REMARK UNBOUND:                -1.614
REMARK  6 active torsions:
REMARK  status: ('A' for Active; 'I' for Inactive)
REMARK    1  A    between atoms: N_4  and  C_5 
REMARK    2  A    between atoms: C_7  and  N_8 
REMARK    3  A    between atoms: N_11  and  C_12 
REMARK    4  A    between atoms: C_12  and  C_13 
REMARK    5  A    between atoms: C_22  and  N_23 
REMARK    6  A    between atoms: C_24  and  N_25 
ROOT
ATOM      1  C   UNL d   1      27.100 -10.311  -0.935  0.00  0.00     0.182 A 
ATOM      2  N   UNL d   1      27.311 -11.617  -0.574  0.00  0.00    -0.042 NA
ATOM      3  C   UNL d   1      27.004 -12.604  -1.436  0.00  0.00     0.728 A 
ATOM      4  N   UNL d   1      26.474 -12.369  -2.635  0.00  0.00    -0.043 NA
ATOM      5  C   UNL d   1      26.228 -11.091  -2.996  0.00  0.00     0.177 A 
ATOM      6  C   UNL d   1      26.574 -10.012  -2.185  0.00  0.00     0.195 A 
ENDROOT
BRANCH   3   7
ATOM      7  N   UNL d   1      27.268 -13.911  -1.106  0.00  0.00    -0.211 N 
ATOM      8  C   UNL d   1      28.375 -14.623  -1.748  0.00  0.00     0.169 C 
ATOM      9  C   UNL d   1      29.306 -15.230  -0.659  0.00  0.00     0.255 C 
ATOM     10  N   UNL d   1      28.502 -16.090   0.321  0.00  0.00    -0.064 N 
ATOM     11  C   UNL d   1      27.459 -15.170   0.980  0.00  0.00     0.255 C 
ATOM     12  H   UNL d   1      29.132 -16.416   1.066  0.00  0.00     0.280 HD
ATOM     13  C   UNL d   1      26.492 -14.616  -0.094  0.00  0.00     0.169 C 
BRANCH  10  14
ATOM     14  C   UNL d   1      27.968 -17.346  -0.352  0.00  0.00     0.273 C 
BRANCH  14  15
ATOM     15  C   UNL d   1      26.473 -17.446  -0.431  0.00  0.00    -0.033 C 
ATOM     16  C   UNL d   1      25.735 -18.020   0.606  0.00  0.00     0.009 C 
ATOM     17  C   UNL d   1      24.361 -18.217   0.446  0.00  0.00     0.001 C 
ATOM     18  C   UNL d   1      23.695 -17.719  -0.676  0.00  0.00     0.000 C 
ATOM     19  C   UNL d   1      24.411 -17.120  -1.694  0.00  0.00     0.001 C 
ATOM     20  C   UNL d   1      25.790 -17.071  -1.600  0.00  0.00     0.009 C 
ENDBRANCH  14  15
ENDBRANCH  10  14
ENDBRANCH   3   7
BRANCH   1  21
ATOM     21  N   UNL d   1      27.377  -9.356   0.020  0.00  0.00    -0.358 N 
ATOM     22  C   UNL d   1      26.395  -8.343   0.437  0.00  0.00     0.156 C 
ATOM     23  C   UNL d   1      26.140  -8.435   1.955  0.00  0.00     0.136 C 
ATOM     24  C   UNL d   1      25.193  -9.575   2.335  0.00  0.00     0.041 C 
ATOM     25  O   UNL d   1      27.370  -8.450   2.708  0.00  0.00    -0.378 OA
ATOM     26  C   UNL d   1      28.360  -9.399   2.260  0.00  0.00     0.136 C 
ATOM     27  C   UNL d   1      28.645  -9.294   0.750  0.00  0.00     0.156 C 
ATOM     28  C   UNL d   1      27.939 -10.821   2.596  0.00  0.00     0.041 C 
ENDBRANCH   1  21
BRANCH   5  29
ATOM     29  N   UNL d   1      25.542 -10.978  -4.183  0.00  0.00    -0.381 N 
ATOM     30  H   UNL d   1      25.280 -10.063  -4.518  0.00  0.00     0.157 HD
ATOM     31  H   UNL d   1      25.158 -11.807  -4.636  0.00  0.00     0.157 HD
ENDBRANCH   5  29
BRANCH   6  32
ATOM     32  N   UNL d   1      26.469  -8.645  -2.703  0.00  0.00    -0.108 N 
ATOM     33  O   UNL d   1      27.419  -7.856  -2.546  0.00  0.00    -0.532 OA
ATOM     34  O   UNL d   1      25.447  -8.322  -3.315  0.00  0.00    -0.532 OA
ENDBRANCH   6  32
TORSDOF 6
ENDMDL
MODEL 9
REMARK VINA RESULT:    -6.728      1.975      3.691
REMARK INTER + INTRA:         -10.355
REMARK INTER:                  -8.518
REMARK INTRA:                  -1.837
REMARK CONF_INDEPENDENT:        1.790
REMARK UNBOUND:                -1.837
REMARK  6 active torsions:
REMARK  status: ('A' for Active; 'I' for Inactive)
REMARK    1  A    between atoms: N_4  and  C_5 
REMARK    2  A    between atoms: C_7  and  N_8 
REMARK    3  A    between atoms: N_11  and  C_12 
REMARK    4  A    between atoms: C_12  and  C_13 
REMARK    5  A    between atoms: C_22  and  N_23 
REMARK    6  A    between atoms: C_24  and  N_25 
ROOT
ATOM      1  C   UNL d   1      28.931  -9.863   0.371  0.00  0.00     0.182 A 
ATOM      2  N   UNL d   1      28.576 -11.185   0.455  0.00  0.00    -0.042 NA
ATOM      3  C   UNL d   1      28.974 -12.043  -0.502  0.00  0.00     0.728 A 
ATOM      4  N   UNL d   1      29.689 -11.657  -1.559  0.00  0.00    -0.043 NA
ATOM      5  C   UNL d   1      30.020 -10.353  -1.676  0.00  0.00     0.177 A 
ATOM      6  C   UNL d   1      29.697  -9.416  -0.696  0.00  0.00     0.195 A 
ENDROOT
BRANCH   3   7
ATOM      7  N   UNL d   1      28.675 -13.380  -0.396  0.00  0.00    -0.211 N 
ATOM      8  C   UNL d   1      29.701 -14.387  -0.668  0.00  0.00     0.169 C 
ATOM      9  C   UNL d   1      29.808 -15.362   0.541  0.00  0.00     0.255 C 
ATOM     10  N   UNL d   1      28.436 -15.951   0.884  0.00  0.00    -0.064 N 
ATOM     11  C   UNL d   1      27.515 -14.772   1.244  0.00  0.00     0.255 C 
ATOM     12  H   UNL d   1      28.530 -16.531   1.728  0.00  0.00     0.280 HD
ATOM     13  C   UNL d   1      27.355 -13.836   0.022  0.00  0.00     0.169 C 
BRANCH  10  14
ATOM     14  C   UNL d   1      27.944 -16.885  -0.212  0.00  0.00     0.273 C 
BRANCH  14  15
ATOM     15  C   UNL d   1      26.455 -17.040  -0.304  0.00  0.00    -0.033 C 
ATOM     16  C   UNL d   1      25.783 -17.993   0.464  0.00  0.00     0.009 C 
ATOM     17  C   UNL d   1      24.416 -18.200   0.261  0.00  0.00     0.001 C 
ATOM     18  C   UNL d   1      23.688 -17.373  -0.596  0.00  0.00     0.000 C 
ATOM     19  C   UNL d   1      24.338 -16.405  -1.337  0.00  0.00     0.001 C 
ATOM     20  C   UNL d   1      25.714 -16.310  -1.249  0.00  0.00     0.009 C 
ENDBRANCH  14  15
ENDBRANCH  10  14
ENDBRANCH   3   7
BRANCH   1  21
ATOM     21  N   UNL d   1      28.436  -9.030   1.352  0.00  0.00    -0.358 N 
ATOM     22  C   UNL d   1      27.992  -7.655   1.075  0.00  0.00     0.156 C 
ATOM     23  C   UNL d   1      26.519  -7.470   1.493  0.00  0.00     0.136 C 
ATOM     24  C   UNL d   1      25.532  -8.042   0.473  0.00  0.00     0.041 C 
ATOM     25  O   UNL d   1      26.277  -7.940   2.835  0.00  0.00    -0.378 OA
ATOM     26  C   UNL d   1      26.768  -9.265   3.127  0.00  0.00     0.136 C 
ATOM     27  C   UNL d   1      28.248  -9.449   2.743  0.00  0.00     0.156 C 
ATOM     28  C   UNL d   1      25.930 -10.321   2.425  0.00  0.00     0.041 C 
ENDBRANCH   1  21
BRANCH   5  29
ATOM     29  N   UNL d   1      30.621 -10.044  -2.874  0.00  0.00    -0.381 N 
ATOM     30  H   UNL d   1      30.717  -9.077  -3.144  0.00  0.00     0.157 HD
ATOM     31  H   UNL d   1      30.816 -10.777  -3.555  0.00  0.00     0.157 HD
ENDBRANCH   5  29
BRANCH   6  32
ATOM     32  N   UNL d   1      30.249  -8.059  -0.773  0.00  0.00    -0.108 N 
ATOM     33  O   UNL d   1      30.830  -7.578   0.217  0.00  0.00    -0.532 OA
ATOM     34  O   UNL d   1      30.149  -7.441  -1.836  0.00  0.00    -0.532 OA
ENDBRANCH   6  32
TORSDOF 6
ENDMDL
