MODEL 1
REMARK VINA RESULT:    -8.709      0.000      0.000
REMARK INTER + INTRA:         -14.998
REMARK INTER:                 -12.587
REMARK INTRA:                  -2.411
REMARK CONF_INDEPENDENT:        3.878
REMARK UNBOUND:                -2.411
REMARK  13 active torsions:
REMARK  status: ('A' for Active; 'I' for Inactive)
REMARK    1  A    between atoms: C_4  and  O_5 
REMARK    2  A    between atoms: O_5  and  C_6 
REMARK    3  A    between atoms: C_6  and  C_7 
REMARK       I    between atoms: C_7  and  N_9 
REMARK    4  A    between atoms: N_9  and  N_10 
REMARK       I    between atoms: N_10  and  C_11 
REMARK    5  A    between atoms: C_11  and  C_13 
REMARK    6  A    between atoms: C_13  and  C_14 
REMARK    7  A    between atoms: C_14  and  C_15 
REMARK    8  A    between atoms: C_15  and  C_16 
REMARK    9  A    between atoms: C_16  and  O_18 
REMARK   10  A    between atoms: O_18  and  C_19 
REMARK   11  A    between atoms: C_19  and  C_20 
REMARK   12  A    between atoms: C_20  and  C_21 
REMARK   13  A    between atoms: C_21  and  C_22 
ROOT
ATOM      1  N   UNL d   1      27.864 -14.583  -4.763  0.00  0.00    -0.267 N 
ATOM      2  C   UNL d   1      26.502 -14.739  -4.976  0.00  0.00     0.236 C 
ATOM      3  O   UNL d   1      26.072 -15.575  -5.771  0.00  0.00    -0.272 OA
ATOM      4  H   UNL d   1      28.276 -13.910  -4.119  0.00  0.00     0.190 HD
ENDROOT
BRANCH   1   5
ATOM      5  N   UNL d   1      28.784 -15.412  -5.483  0.00  0.00    -0.266 N 
ATOM      6  C   UNL d   1      30.123 -15.427  -5.094  0.00  0.00     0.260 C 
ATOM      7  O   UNL d   1      30.511 -14.738  -4.150  0.00  0.00    -0.269 OA
ATOM      8  H   UNL d   1      28.390 -15.953  -6.250  0.00  0.00     0.190 HD
BRANCH   6   9
ATOM      9  C   UNL d   1      31.063 -16.348  -5.915  0.00  0.00     0.280 C 
BRANCH   9  10
ATOM     10  O   UNL d   1      30.319 -17.196  -6.804  0.00  0.00    -0.342 OA
BRANCH  10  11
ATOM     11  C   UNL d   1      30.777 -18.468  -7.041  0.00  0.00     0.070 A 
ATOM     12  C   UNL d   1      31.224 -18.940  -8.271  0.00  0.00     0.045 A 
ATOM     13  C   UNL d   1      31.693 -20.259  -8.421  0.00  0.00    -0.037 A 
ATOM     14  C   UNL d   1      32.182 -20.700  -9.773  0.00  0.00     0.050 C 
ATOM     15  C   UNL d   1      31.699 -21.123  -7.312  0.00  0.00     0.046 A 
ATOM     16  C   UNL d   1      31.242 -20.676  -6.061  0.00  0.00    -0.037 A 
ATOM     17 CL   UNL d   1      32.277 -22.751  -7.496  0.00  0.00    -0.083 Cl
ATOM     18  C   UNL d   1      30.787 -19.343  -5.943  0.00  0.00     0.045 A 
ATOM     19  C   UNL d   1      31.230 -21.589  -4.864  0.00  0.00     0.050 C 
ENDBRANCH  10  11
ENDBRANCH   9  10
ENDBRANCH   6   9
ENDBRANCH   1   5
BRANCH   2  20
ATOM     20  C   UNL d   1      25.582 -13.807  -4.162  0.00  0.00     0.105 C 
BRANCH  20  21
ATOM     21  C   UNL d   1      25.145 -14.455  -2.834  0.00  0.00     0.019 C 
BRANCH  21  22
ATOM     22  C   UNL d   1      25.496 -15.948  -2.677  0.00  0.00     0.111 C 
BRANCH  22  23
ATOM     23  C   UNL d   1      24.771 -16.539  -1.476  0.00  0.00     0.258 C 
ATOM     24  O   UNL d   1      24.594 -15.949  -0.412  0.00  0.00    -0.265 OA
BRANCH  23  25
ATOM     25  O   UNL d   1      24.336 -17.810  -1.714  0.00  0.00    -0.321 OA
BRANCH  25  26
ATOM     26  C   UNL d   1      24.198 -18.601  -0.512  0.00  0.00     0.179 C 
BRANCH  26  27
ATOM     27  C   UNL d   1      22.897 -18.228   0.175  0.00  0.00     0.031 C 
BRANCH  27  28
ATOM     28  C   UNL d   1      21.669 -18.385  -0.730  0.00  0.00     0.041 C 
BRANCH  28  29
ATOM     29  C   UNL d   1      20.576 -19.239  -0.124  0.00  0.00    -0.058 A 
ATOM     30  C   UNL d   1      19.485 -19.703  -0.876  0.00  0.00     0.007 A 
ATOM     31  C   UNL d   1      18.414 -20.347  -0.268  0.00  0.00     0.001 A 
ATOM     32  C   UNL d   1      18.460 -20.631   1.091  0.00  0.00     0.000 A 
ATOM     33  C   UNL d   1      19.560 -20.230   1.848  0.00  0.00     0.001 A 
ATOM     34  C   UNL d   1      20.609 -19.528   1.248  0.00  0.00     0.007 A 
ENDBRANCH  28  29
ENDBRANCH  27  28
ENDBRANCH  26  27
ENDBRANCH  25  26
ENDBRANCH  23  25
ENDBRANCH  22  23
ENDBRANCH  21  22
ENDBRANCH  20  21
ENDBRANCH   2  20
TORSDOF 13
ENDMDL
MODEL 2
REMARK VINA RESULT:    -8.706      4.768      6.302
REMARK INTER + INTRA:         -15.138
REMARK INTER:                 -12.584
REMARK INTRA:                  -2.554
REMARK CONF_INDEPENDENT:        3.878
REMARK UNBOUND:                -2.554
REMARK  13 active torsions:
REMARK  status: ('A' for Active; 'I' for Inactive)
REMARK    1  A    between atoms: C_4  and  O_5 
REMARK    2  A    between atoms: O_5  and  C_6 
REMARK    3  A    between atoms: C_6  and  C_7 
REMARK       I    between atoms: C_7  and  N_9 
REMARK    4  A    between atoms: N_9  and  N_10 
REMARK       I    between atoms: N_10  and  C_11 
REMARK    5  A    between atoms: C_11  and  C_13 
REMARK    6  A    between atoms: C_13  and  C_14 
REMARK    7  A    between atoms: C_14  and  C_15 
REMARK    8  A    between atoms: C_15  and  C_16 
REMARK    9  A    between atoms: C_16  and  O_18 
REMARK   10  A    between atoms: O_18  and  C_19 
REMARK   11  A    between atoms: C_19  and  C_20 
REMARK   12  A    between atoms: C_20  and  C_21 
REMARK   13  A    between atoms: C_21  and  C_22 
ROOT
ATOM      1  N   UNL d   1      25.638 -13.406  -3.021  0.00  0.00    -0.267 N 
ATOM      2  C   UNL d   1      25.436 -14.623  -3.656  0.00  0.00     0.236 C 
ATOM      3  O   UNL d   1      25.138 -14.676  -4.850  0.00  0.00    -0.272 OA
ATOM      4  H   UNL d   1      25.886 -13.301  -2.038  0.00  0.00     0.190 HD
ENDROOT
BRANCH   1   5
ATOM      5  N   UNL d   1      25.496 -12.194  -3.769  0.00  0.00    -0.266 N 
ATOM      6  C   UNL d   1      26.110 -11.034  -3.296  0.00  0.00     0.260 C 
ATOM      7  O   UNL d   1      26.761 -11.050  -2.250  0.00  0.00    -0.269 OA
ATOM      8  H   UNL d   1      24.944 -12.258  -4.622  0.00  0.00     0.190 HD
BRANCH   6   9
ATOM      9  C   UNL d   1      25.917  -9.758  -4.156  0.00  0.00     0.280 C 
BRANCH   9  10
ATOM     10  O   UNL d   1      25.321 -10.068  -5.425  0.00  0.00    -0.342 OA
BRANCH  10  11
ATOM     11  C   UNL d   1      26.140 -10.397  -6.476  0.00  0.00     0.070 A 
ATOM     12  C   UNL d   1      26.274  -9.654  -7.646  0.00  0.00     0.045 A 
ATOM     13  C   UNL d   1      27.152 -10.058  -8.670  0.00  0.00    -0.037 A 
ATOM     14  C   UNL d   1      27.266  -9.200  -9.900  0.00  0.00     0.050 C 
ATOM     15  C   UNL d   1      27.898 -11.239  -8.518  0.00  0.00     0.046 A 
ATOM     16  C   UNL d   1      27.773 -12.013  -7.352  0.00  0.00    -0.037 A 
ATOM     17 CL   UNL d   1      28.982 -11.738  -9.781  0.00  0.00    -0.083 Cl
ATOM     18  C   UNL d   1      26.891 -11.575  -6.340  0.00  0.00     0.045 A 
ATOM     19  C   UNL d   1      28.556 -13.287  -7.175  0.00  0.00     0.050 C 
ENDBRANCH  10  11
ENDBRANCH   9  10
ENDBRANCH   6   9
ENDBRANCH   1   5
BRANCH   2  20
ATOM     20  C   UNL d   1      25.608 -15.879  -2.779  0.00  0.00     0.105 C 
BRANCH  20  21
ATOM     21  C   UNL d   1      25.905 -15.514  -1.312  0.00  0.00     0.019 C 
BRANCH  21  22
ATOM     22  C   UNL d   1      26.799 -16.511  -0.549  0.00  0.00     0.111 C 
BRANCH  22  23
ATOM     23  C   UNL d   1      25.962 -17.660  -0.001  0.00  0.00     0.258 C 
ATOM     24  O   UNL d   1      26.132 -18.179   1.100  0.00  0.00    -0.265 OA
BRANCH  23  25
ATOM     25  O   UNL d   1      24.994 -18.053  -0.878  0.00  0.00    -0.321 OA
BRANCH  25  26
ATOM     26  C   UNL d   1      23.858 -18.673  -0.234  0.00  0.00     0.179 C 
BRANCH  26  27
ATOM     27  C   UNL d   1      22.756 -18.864  -1.259  0.00  0.00     0.031 C 
BRANCH  27  28
ATOM     28  C   UNL d   1      21.441 -18.180  -0.867  0.00  0.00     0.041 C 
BRANCH  28  29
ATOM     29  C   UNL d   1      20.463 -19.101  -0.169  0.00  0.00    -0.058 A 
ATOM     30  C   UNL d   1      19.389 -19.702  -0.844  0.00  0.00     0.007 A 
ATOM     31  C   UNL d   1      18.414 -20.413  -0.154  0.00  0.00     0.001 A 
ATOM     32  C   UNL d   1      18.549 -20.623   1.212  0.00  0.00     0.000 A 
ATOM     33  C   UNL d   1      19.638 -20.083   1.894  0.00  0.00     0.001 A 
ATOM     34  C   UNL d   1      20.587 -19.317   1.211  0.00  0.00     0.007 A 
ENDBRANCH  28  29
ENDBRANCH  27  28
ENDBRANCH  26  27
ENDBRANCH  25  26
ENDBRANCH  23  25
ENDBRANCH  22  23
ENDBRANCH  21  22
ENDBRANCH  20  21
ENDBRANCH   2  20
TORSDOF 13
ENDMDL
MODEL 3
REMARK VINA RESULT:    -8.009      2.333      4.011
REMARK INTER + INTRA:         -15.600
REMARK INTER:                 -11.887
REMARK INTRA:                  -3.713
REMARK CONF_INDEPENDENT:        3.878
REMARK UNBOUND:                -3.713
REMARK  13 active torsions:
REMARK  status: ('A' for Active; 'I' for Inactive)
REMARK    1  A    between atoms: C_4  and  O_5 
REMARK    2  A    between atoms: O_5  and  C_6 
REMARK    3  A    between atoms: C_6  and  C_7 
REMARK       I    between atoms: C_7  and  N_9 
REMARK    4  A    between atoms: N_9  and  N_10 
REMARK       I    between atoms: N_10  and  C_11 
REMARK    5  A    between atoms: C_11  and  C_13 
REMARK    6  A    between atoms: C_13  and  C_14 
REMARK    7  A    between atoms: C_14  and  C_15 
REMARK    8  A    between atoms: C_15  and  C_16 
REMARK    9  A    between atoms: C_16  and  O_18 
REMARK   10  A    between atoms: O_18  and  C_19 
REMARK   11  A    between atoms: C_19  and  C_20 
REMARK   12  A    between atoms: C_20  and  C_21 
REMARK   13  A    between atoms: C_21  and  C_22 
ROOT
ATOM      1  N   UNL d   1      27.089 -16.000  -1.834  0.00  0.00    -0.267 N 
ATOM      2  C   UNL d   1      28.137 -16.422  -1.029  0.00  0.00     0.236 C 
ATOM      3  O   UNL d   1      29.299 -16.405  -1.435  0.00  0.00    -0.272 OA
ATOM      4  H   UNL d   1      26.110 -15.992  -1.552  0.00  0.00     0.190 HD
ENDROOT
BRANCH   1   5
ATOM      5  N   UNL d   1      27.367 -15.536  -3.160  0.00  0.00    -0.266 N 
ATOM      6  C   UNL d   1      26.307 -15.119  -3.964  0.00  0.00     0.260 C 
ATOM      7  O   UNL d   1      25.149 -15.151  -3.544  0.00  0.00    -0.269 OA
ATOM      8  H   UNL d   1      28.348 -15.539  -3.436  0.00  0.00     0.190 HD
BRANCH   6   9
ATOM      9  C   UNL d   1      26.680 -14.628  -5.387  0.00  0.00     0.280 C 
BRANCH   9  10
ATOM     10  O   UNL d   1      27.990 -14.037  -5.410  0.00  0.00    -0.342 OA
BRANCH  10  11
ATOM     11  C   UNL d   1      29.040 -14.779  -5.890  0.00  0.00     0.070 A 
ATOM     12  C   UNL d   1      29.302 -16.103  -5.551  0.00  0.00     0.045 A 
ATOM     13  C   UNL d   1      30.397 -16.794  -6.104  0.00  0.00    -0.037 A 
ATOM     14  C   UNL d   1      30.613 -18.231  -5.713  0.00  0.00     0.050 C 
ATOM     15  C   UNL d   1      31.250 -16.135  -7.006  0.00  0.00     0.046 A 
ATOM     16  C   UNL d   1      31.014 -14.795  -7.356  0.00  0.00    -0.037 A 
ATOM     17 CL   UNL d   1      32.601 -16.988  -7.690  0.00  0.00    -0.083 Cl
ATOM     18  C   UNL d   1      29.902 -14.133  -6.791  0.00  0.00     0.045 A 
ATOM     19  C   UNL d   1      31.923 -14.068  -8.312  0.00  0.00     0.050 C 
ENDBRANCH  10  11
ENDBRANCH   9  10
ENDBRANCH   6   9
ENDBRANCH   1   5
BRANCH   2  20
ATOM     20  C   UNL d   1      27.751 -16.906   0.383  0.00  0.00     0.105 C 
BRANCH  20  21
ATOM     21  C   UNL d   1      26.913 -18.198   0.333  0.00  0.00     0.019 C 
BRANCH  21  22
ATOM     22  C   UNL d   1      25.413 -18.028   0.647  0.00  0.00     0.111 C 
BRANCH  22  23
ATOM     23  C   UNL d   1      24.740 -17.184  -0.427  0.00  0.00     0.258 C 
ATOM     24  O   UNL d   1      24.371 -16.023  -0.268  0.00  0.00    -0.265 OA
BRANCH  23  25
ATOM     25  O   UNL d   1      24.589 -17.869  -1.597  0.00  0.00    -0.321 OA
BRANCH  25  26
ATOM     26  C   UNL d   1      23.230 -18.301  -1.835  0.00  0.00     0.179 C 
BRANCH  26  27
ATOM     27  C   UNL d   1      22.805 -19.229  -0.712  0.00  0.00     0.031 C 
BRANCH  27  28
ATOM     28  C   UNL d   1      21.832 -18.576   0.277  0.00  0.00     0.041 C 
BRANCH  28  29
ATOM     29  C   UNL d   1      20.606 -19.416   0.565  0.00  0.00    -0.058 A 
ATOM     30  C   UNL d   1      19.718 -19.814  -0.446  0.00  0.00     0.007 A 
ATOM     31  C   UNL d   1      18.518 -20.446  -0.141  0.00  0.00     0.001 A 
ATOM     32  C   UNL d   1      18.230 -20.783   1.175  0.00  0.00     0.000 A 
ATOM     33  C   UNL d   1      19.125 -20.449   2.190  0.00  0.00     0.001 A 
ATOM     34  C   UNL d   1      20.303 -19.759   1.890  0.00  0.00     0.007 A 
ENDBRANCH  28  29
ENDBRANCH  27  28
ENDBRANCH  26  27
ENDBRANCH  25  26
ENDBRANCH  23  25
ENDBRANCH  22  23
ENDBRANCH  21  22
ENDBRANCH  20  21
ENDBRANCH   2  20
TORSDOF 13
ENDMDL
MODEL 4
REMARK VINA RESULT:    -7.971      1.788      2.672
REMARK INTER + INTRA:         -15.095
REMARK INTER:                 -11.849
REMARK INTRA:                  -3.246
REMARK CONF_INDEPENDENT:        3.878
REMARK UNBOUND:                -3.246
REMARK  13 active torsions:
REMARK  status: ('A' for Active; 'I' for Inactive)
REMARK    1  A    between atoms: C_4  and  O_5 
REMARK    2  A    between atoms: O_5  and  C_6 
REMARK    3  A    between atoms: C_6  and  C_7 
REMARK       I    between atoms: C_7  and  N_9 
REMARK    4  A    between atoms: N_9  and  N_10 
REMARK       I    between atoms: N_10  and  C_11 
REMARK    5  A    between atoms: C_11  and  C_13 
REMARK    6  A    between atoms: C_13  and  C_14 
REMARK    7  A    between atoms: C_14  and  C_15 
REMARK    8  A    between atoms: C_15  and  C_16 
REMARK    9  A    between atoms: C_16  and  O_18 
REMARK   10  A    between atoms: O_18  and  C_19 
REMARK   11  A    between atoms: C_19  and  C_20 
REMARK   12  A    between atoms: C_20  and  C_21 
REMARK   13  A    between atoms: C_21  and  C_22 
ROOT
ATOM      1  N   UNL d   1      28.495 -16.326  -2.720  0.00  0.00    -0.267 N 
ATOM      2  C   UNL d   1      29.324 -16.425  -1.612  0.00  0.00     0.236 C 
ATOM      3  O   UNL d   1      30.540 -16.260  -1.710  0.00  0.00    -0.272 OA
ATOM      4  H   UNL d   1      27.484 -16.453  -2.699  0.00  0.00     0.190 HD
ENDROOT
BRANCH   1   5
ATOM      5  N   UNL d   1      29.067 -16.026  -3.998  0.00  0.00    -0.266 N 
ATOM      6  C   UNL d   1      28.237 -15.553  -5.013  0.00  0.00     0.260 C 
ATOM      7  O   UNL d   1      27.030 -15.399  -4.818  0.00  0.00    -0.269 OA
ATOM      8  H   UNL d   1      30.071 -16.178  -4.084  0.00  0.00     0.190 HD
BRANCH   6   9
ATOM      9  C   UNL d   1      28.923 -15.246  -6.371  0.00  0.00     0.280 C 
BRANCH   9  10
ATOM     10  O   UNL d   1      30.336 -15.495  -6.310  0.00  0.00    -0.342 OA
BRANCH  10  11
ATOM     11  C   UNL d   1      30.819 -16.682  -6.801  0.00  0.00     0.070 A 
ATOM     12  C   UNL d   1      31.647 -16.807  -7.913  0.00  0.00     0.045 A 
ATOM     13  C   UNL d   1      32.110 -18.067  -8.340  0.00  0.00    -0.037 A 
ATOM     14  C   UNL d   1      33.019 -18.132  -9.536  0.00  0.00     0.050 C 
ATOM     15  C   UNL d   1      31.720 -19.222  -7.641  0.00  0.00     0.046 A 
ATOM     16  C   UNL d   1      30.876 -19.124  -6.522  0.00  0.00    -0.037 A 
ATOM     17 CL   UNL d   1      32.291 -20.777  -8.166  0.00  0.00    -0.083 Cl
ATOM     18  C   UNL d   1      30.438 -17.845  -6.114  0.00  0.00     0.045 A 
ATOM     19  C   UNL d   1      30.439 -20.351  -5.765  0.00  0.00     0.050 C 
ENDBRANCH  10  11
ENDBRANCH   9  10
ENDBRANCH   6   9
ENDBRANCH   1   5
BRANCH   2  20
ATOM     20  C   UNL d   1      28.628 -16.752  -0.276  0.00  0.00     0.105 C 
BRANCH  20  21
ATOM     21  C   UNL d   1      27.243 -17.391  -0.495  0.00  0.00     0.019 C 
BRANCH  21  22
ATOM     22  C   UNL d   1      26.053 -16.411  -0.492  0.00  0.00     0.111 C 
BRANCH  22  23
ATOM     23  C   UNL d   1      25.145 -16.678  -1.686  0.00  0.00     0.258 C 
ATOM     24  O   UNL d   1      25.310 -16.198  -2.805  0.00  0.00    -0.265 OA
BRANCH  23  25
ATOM     25  O   UNL d   1      24.117 -17.517  -1.370  0.00  0.00    -0.321 OA
BRANCH  25  26
ATOM     26  C   UNL d   1      22.936 -16.824  -0.906  0.00  0.00     0.179 C 
BRANCH  26  27
ATOM     27  C   UNL d   1      21.771 -17.796  -0.887  0.00  0.00     0.031 C 
BRANCH  27  28
ATOM     28  C   UNL d   1      21.861 -18.825   0.246  0.00  0.00     0.041 C 
BRANCH  28  29
ATOM     29  C   UNL d   1      20.533 -19.464   0.592  0.00  0.00    -0.058 A 
ATOM     30  C   UNL d   1      20.192 -19.818   1.906  0.00  0.00     0.007 A 
ATOM     31  C   UNL d   1      19.040 -20.546   2.179  0.00  0.00     0.001 A 
ATOM     32  C   UNL d   1      18.153 -20.846   1.153  0.00  0.00     0.000 A 
ATOM     33  C   UNL d   1      18.444 -20.454  -0.153  0.00  0.00     0.001 A 
ATOM     34  C   UNL d   1      19.632 -19.775  -0.436  0.00  0.00     0.007 A 
ENDBRANCH  28  29
ENDBRANCH  27  28
ENDBRANCH  26  27
ENDBRANCH  25  26
ENDBRANCH  23  25
ENDBRANCH  22  23
ENDBRANCH  21  22
ENDBRANCH  20  21
ENDBRANCH   2  20
TORSDOF 13
ENDMDL
MODEL 5
REMARK VINA RESULT:    -7.570      2.271      3.540
REMARK INTER + INTRA:         -14.826
REMARK INTER:                 -11.447
REMARK INTRA:                  -3.379
REMARK CONF_INDEPENDENT:        3.878
REMARK UNBOUND:                -3.379
REMARK  13 active torsions:
REMARK  status: ('A' for Active; 'I' for Inactive)
REMARK    1  A    between atoms: C_4  and  O_5 
REMARK    2  A    between atoms: O_5  and  C_6 
REMARK    3  A    between atoms: C_6  and  C_7 
REMARK       I    between atoms: C_7  and  N_9 
REMARK    4  A    between atoms: N_9  and  N_10 
REMARK       I    between atoms: N_10  and  C_11 
REMARK    5  A    between atoms: C_11  and  C_13 
REMARK    6  A    between atoms: C_13  and  C_14 
REMARK    7  A    between atoms: C_14  and  C_15 
REMARK    8  A    between atoms: C_15  and  C_16 
REMARK    9  A    between atoms: C_16  and  O_18 
REMARK   10  A    between atoms: O_18  and  C_19 
REMARK   11  A    between atoms: C_19  and  C_20 
REMARK   12  A    between atoms: C_20  and  C_21 
REMARK   13  A    between atoms: C_21  and  C_22 
ROOT
ATOM      1  N   UNL d   1      27.752 -13.053  -5.300  0.00  0.00    -0.267 N 
ATOM      2  C   UNL d   1      27.466 -11.826  -4.721  0.00  0.00     0.236 C 
ATOM      3  O   UNL d   1      28.329 -10.953  -4.619  0.00  0.00    -0.272 OA
ATOM      4  H   UNL d   1      27.080 -13.811  -5.410  0.00  0.00     0.190 HD
ENDROOT
BRANCH   1   5
ATOM      5  N   UNL d   1      29.074 -13.307  -5.788  0.00  0.00    -0.266 N 
ATOM      6  C   UNL d   1      29.346 -14.533  -6.393  0.00  0.00     0.260 C 
ATOM      7  O   UNL d   1      28.465 -15.387  -6.506  0.00  0.00    -0.269 OA
ATOM      8  H   UNL d   1      29.748 -12.554  -5.659  0.00  0.00     0.190 HD
BRANCH   6   9
ATOM      9  C   UNL d   1      30.797 -14.740  -6.900  0.00  0.00     0.280 C 
BRANCH   9  10
ATOM     10  O   UNL d   1      30.920 -15.960  -7.649  0.00  0.00    -0.342 OA
BRANCH  10  11
ATOM     11  C   UNL d   1      30.910 -17.154  -6.973  0.00  0.00     0.070 A 
ATOM     12  C   UNL d   1      31.031 -18.407  -7.564  0.00  0.00     0.045 A 
ATOM     13  C   UNL d   1      31.024 -19.584  -6.791  0.00  0.00    -0.037 A 
ATOM     14  C   UNL d   1      31.181 -20.906  -7.490  0.00  0.00     0.050 C 
ATOM     15  C   UNL d   1      30.881 -19.495  -5.395  0.00  0.00     0.046 A 
ATOM     16  C   UNL d   1      30.746 -18.243  -4.774  0.00  0.00    -0.037 A 
ATOM     17 CL   UNL d   1      30.875 -20.946  -4.439  0.00  0.00    -0.083 Cl
ATOM     18  C   UNL d   1      30.765 -17.081  -5.578  0.00  0.00     0.045 A 
ATOM     19  C   UNL d   1      30.580 -18.127  -3.281  0.00  0.00     0.050 C 
ENDBRANCH  10  11
ENDBRANCH   9  10
ENDBRANCH   6   9
ENDBRANCH   1   5
BRANCH   2  20
ATOM     20  C   UNL d   1      26.020 -11.635  -4.222  0.00  0.00     0.105 C 
BRANCH  20  21
ATOM     21  C   UNL d   1      25.516 -12.870  -3.451  0.00  0.00     0.019 C 
BRANCH  21  22
ATOM     22  C   UNL d   1      24.750 -13.910  -4.292  0.00  0.00     0.111 C 
BRANCH  22  23
ATOM     23  C   UNL d   1      25.559 -15.195  -4.410  0.00  0.00     0.258 C 
ATOM     24  O   UNL d   1      26.121 -15.569  -5.437  0.00  0.00    -0.265 OA
BRANCH  23  25
ATOM     25  O   UNL d   1      25.588 -15.892  -3.238  0.00  0.00    -0.321 OA
BRANCH  25  26
ATOM     26  C   UNL d   1      26.883 -15.875  -2.596  0.00  0.00     0.179 C 
BRANCH  26  27
ATOM     27  C   UNL d   1      26.702 -15.524  -1.131  0.00  0.00     0.031 C 
BRANCH  27  28
ATOM     28  C   UNL d   1      26.328 -16.732  -0.263  0.00  0.00     0.041 C 
BRANCH  28  29
ATOM     29  C   UNL d   1      24.906 -17.208  -0.468  0.00  0.00    -0.058 A 
ATOM     30  C   UNL d   1      23.869 -16.334  -0.831  0.00  0.00     0.007 A 
ATOM     31  C   UNL d   1      22.546 -16.759  -0.858  0.00  0.00     0.001 A 
ATOM     32  C   UNL d   1      22.245 -18.094  -0.621  0.00  0.00     0.000 A 
ATOM     33  C   UNL d   1      23.265 -18.993  -0.314  0.00  0.00     0.001 A 
ATOM     34  C   UNL d   1      24.589 -18.553  -0.228  0.00  0.00     0.007 A 
ENDBRANCH  28  29
ENDBRANCH  27  28
ENDBRANCH  26  27
ENDBRANCH  25  26
ENDBRANCH  23  25
ENDBRANCH  22  23
ENDBRANCH  21  22
ENDBRANCH  20  21
ENDBRANCH   2  20
TORSDOF 13
ENDMDL
MODEL 6
REMARK VINA RESULT:    -7.171      2.211      3.296
REMARK INTER + INTRA:         -14.941
REMARK INTER:                 -11.049
REMARK INTRA:                  -3.892
REMARK CONF_INDEPENDENT:        3.878
REMARK UNBOUND:                -3.892
REMARK  13 active torsions:
REMARK  status: ('A' for Active; 'I' for Inactive)
REMARK    1  A    between atoms: C_4  and  O_5 
REMARK    2  A    between atoms: O_5  and  C_6 
REMARK    3  A    between atoms: C_6  and  C_7 
REMARK       I    between atoms: C_7  and  N_9 
REMARK    4  A    between atoms: N_9  and  N_10 
REMARK       I    between atoms: N_10  and  C_11 
REMARK    5  A    between atoms: C_11  and  C_13 
REMARK    6  A    between atoms: C_13  and  C_14 
REMARK    7  A    between atoms: C_14  and  C_15 
REMARK    8  A    between atoms: C_15  and  C_16 
REMARK    9  A    between atoms: C_16  and  O_18 
REMARK   10  A    between atoms: O_18  and  C_19 
REMARK   11  A    between atoms: C_19  and  C_20 
REMARK   12  A    between atoms: C_20  and  C_21 
REMARK   13  A    between atoms: C_21  and  C_22 
ROOT
ATOM      1  N   UNL d   1      28.126 -14.854  -4.290  0.00  0.00    -0.267 N 
ATOM      2  C   UNL d   1      27.488 -14.479  -5.464  0.00  0.00     0.236 C 
ATOM      3  O   UNL d   1      27.598 -15.151  -6.490  0.00  0.00    -0.272 OA
ATOM      4  H   UNL d   1      28.072 -14.338  -3.413  0.00  0.00     0.190 HD
ENDROOT
BRANCH   1   5
ATOM      5  N   UNL d   1      28.923 -16.043  -4.275  0.00  0.00    -0.266 N 
ATOM      6  C   UNL d   1      29.666 -16.342  -3.133  0.00  0.00     0.260 C 
ATOM      7  O   UNL d   1      29.641 -15.595  -2.154  0.00  0.00    -0.269 OA
ATOM      8  H   UNL d   1      28.892 -16.611  -5.120  0.00  0.00     0.190 HD
BRANCH   6   9
ATOM      9  C   UNL d   1      30.505 -17.646  -3.184  0.00  0.00     0.280 C 
BRANCH   9  10
ATOM     10  O   UNL d   1      30.030 -18.533  -4.210  0.00  0.00    -0.342 OA
BRANCH  10  11
ATOM     11  C   UNL d   1      30.628 -18.494  -5.445  0.00  0.00     0.070 A 
ATOM     12  C   UNL d   1      31.025 -17.334  -6.103  0.00  0.00     0.045 A 
ATOM     13  C   UNL d   1      31.647 -17.386  -7.365  0.00  0.00    -0.037 A 
ATOM     14  C   UNL d   1      32.071 -16.097  -8.013  0.00  0.00     0.050 C 
ATOM     15  C   UNL d   1      31.862 -18.631  -7.981  0.00  0.00     0.046 A 
ATOM     16  C   UNL d   1      31.461 -19.817  -7.343  0.00  0.00    -0.037 A 
ATOM     17 CL   UNL d   1      32.630 -18.698  -9.537  0.00  0.00    -0.083 Cl
ATOM     18  C   UNL d   1      30.848 -19.730  -6.073  0.00  0.00     0.045 A 
ATOM     19  C   UNL d   1      31.672 -21.160  -7.991  0.00  0.00     0.050 C 
ENDBRANCH  10  11
ENDBRANCH   9  10
ENDBRANCH   6   9
ENDBRANCH   1   5
BRANCH   2  20
ATOM     20  C   UNL d   1      26.652 -13.187  -5.395  0.00  0.00     0.105 C 
BRANCH  20  21
ATOM     21  C   UNL d   1      26.957 -12.377  -4.119  0.00  0.00     0.019 C 
BRANCH  21  22
ATOM     22  C   UNL d   1      26.009 -12.630  -2.930  0.00  0.00     0.111 C 
BRANCH  22  23
ATOM     23  C   UNL d   1      25.515 -14.071  -2.945  0.00  0.00     0.258 C 
ATOM     24  O   UNL d   1      24.509 -14.454  -3.539  0.00  0.00    -0.265 OA
BRANCH  23  25
ATOM     25  O   UNL d   1      26.320 -14.897  -2.217  0.00  0.00    -0.321 OA
BRANCH  25  26
ATOM     26  C   UNL d   1      25.966 -16.293  -2.339  0.00  0.00     0.179 C 
BRANCH  26  27
ATOM     27  C   UNL d   1      26.675 -17.077  -1.251  0.00  0.00     0.031 C 
BRANCH  27  28
ATOM     28  C   UNL d   1      25.856 -17.195   0.040  0.00  0.00     0.041 C 
BRANCH  28  29
ATOM     29  C   UNL d   1      24.418 -17.607  -0.191  0.00  0.00    -0.058 A 
ATOM     30  C   UNL d   1      24.007 -18.948  -0.148  0.00  0.00     0.007 A 
ATOM     31  C   UNL d   1      22.720 -19.319  -0.520  0.00  0.00     0.001 A 
ATOM     32  C   UNL d   1      21.787 -18.343  -0.844  0.00  0.00     0.000 A 
ATOM     33  C   UNL d   1      22.157 -16.999  -0.839  0.00  0.00     0.001 A 
ATOM     34  C   UNL d   1      23.468 -16.630  -0.524  0.00  0.00     0.007 A 
ENDBRANCH  28  29
ENDBRANCH  27  28
ENDBRANCH  26  27
ENDBRANCH  25  26
ENDBRANCH  23  25
ENDBRANCH  22  23
ENDBRANCH  21  22
ENDBRANCH  20  21
ENDBRANCH   2  20
TORSDOF 13
ENDMDL
MODEL 7
REMARK VINA RESULT:    -7.060      2.066      3.012
REMARK INTER + INTRA:         -14.913
REMARK INTER:                 -10.938
REMARK INTRA:                  -3.975
REMARK CONF_INDEPENDENT:        3.878
REMARK UNBOUND:                -3.975
REMARK  13 active torsions:
REMARK  status: ('A' for Active; 'I' for Inactive)
REMARK    1  A    between atoms: C_4  and  O_5 
REMARK    2  A    between atoms: O_5  and  C_6 
REMARK    3  A    between atoms: C_6  and  C_7 
REMARK       I    between atoms: C_7  and  N_9 
REMARK    4  A    between atoms: N_9  and  N_10 
REMARK       I    between atoms: N_10  and  C_11 
REMARK    5  A    between atoms: C_11  and  C_13 
REMARK    6  A    between atoms: C_13  and  C_14 
REMARK    7  A    between atoms: C_14  and  C_15 
REMARK    8  A    between atoms: C_15  and  C_16 
REMARK    9  A    between atoms: C_16  and  O_18 
REMARK   10  A    between atoms: O_18  and  C_19 
REMARK   11  A    between atoms: C_19  and  C_20 
REMARK   12  A    between atoms: C_20  and  C_21 
REMARK   13  A    between atoms: C_21  and  C_22 
ROOT
ATOM      1  N   UNL d   1      27.874 -14.191  -4.814  0.00  0.00    -0.267 N 
ATOM      2  C   UNL d   1      26.596 -14.718  -4.933  0.00  0.00     0.236 C 
ATOM      3  O   UNL d   1      26.341 -15.588  -5.767  0.00  0.00    -0.272 OA
ATOM      4  H   UNL d   1      28.143 -13.472  -4.145  0.00  0.00     0.190 HD
ENDROOT
BRANCH   1   5
ATOM      5  N   UNL d   1      28.912 -14.669  -5.677  0.00  0.00    -0.266 N 
ATOM      6  C   UNL d   1      30.190 -14.123  -5.560  0.00  0.00     0.260 C 
ATOM      7  O   UNL d   1      30.424 -13.242  -4.732  0.00  0.00    -0.269 OA
ATOM      8  H   UNL d   1      28.644 -15.398  -6.336  0.00  0.00     0.190 HD
BRANCH   6   9
ATOM      9  C   UNL d   1      31.266 -14.688  -6.524  0.00  0.00     0.280 C 
BRANCH   9  10
ATOM     10  O   UNL d   1      30.747 -15.773  -7.309  0.00  0.00    -0.342 OA
BRANCH  10  11
ATOM     11  C   UNL d   1      30.820 -17.047  -6.804  0.00  0.00     0.070 A 
ATOM     12  C   UNL d   1      30.929 -18.204  -7.569  0.00  0.00     0.045 A 
ATOM     13  C   UNL d   1      31.014 -19.474  -6.966  0.00  0.00    -0.037 A 
ATOM     14  C   UNL d   1      31.151 -20.683  -7.850  0.00  0.00     0.050 C 
ATOM     15  C   UNL d   1      30.976 -19.580  -5.565  0.00  0.00     0.046 A 
ATOM     16  C   UNL d   1      30.856 -18.428  -4.769  0.00  0.00    -0.037 A 
ATOM     17 CL   UNL d   1      31.082 -21.145  -4.819  0.00  0.00    -0.083 Cl
ATOM     18  C   UNL d   1      30.782 -17.169  -5.406  0.00  0.00     0.045 A 
ATOM     19  C   UNL d   1      30.802 -18.521  -3.267  0.00  0.00     0.050 C 
ENDBRANCH  10  11
ENDBRANCH   9  10
ENDBRANCH   6   9
ENDBRANCH   1   5
BRANCH   2  20
ATOM     20  C   UNL d   1      25.539 -14.149  -3.968  0.00  0.00     0.105 C 
BRANCH  20  21
ATOM     21  C   UNL d   1      25.314 -15.075  -2.757  0.00  0.00     0.019 C 
BRANCH  21  22
ATOM     22  C   UNL d   1      26.518 -15.951  -2.360  0.00  0.00     0.111 C 
BRANCH  22  23
ATOM     23  C   UNL d   1      27.551 -15.121  -1.608  0.00  0.00     0.258 C 
ATOM     24  O   UNL d   1      28.291 -14.292  -2.133  0.00  0.00    -0.265 OA
BRANCH  23  25
ATOM     25  O   UNL d   1      27.565 -15.406  -0.274  0.00  0.00    -0.321 OA
BRANCH  25  26
ATOM     26  C   UNL d   1      27.893 -16.784   0.012  0.00  0.00     0.179 C 
BRANCH  26  27
ATOM     27  C   UNL d   1      26.704 -17.443   0.688  0.00  0.00     0.031 C 
BRANCH  27  28
ATOM     28  C   UNL d   1      26.018 -18.496  -0.191  0.00  0.00     0.041 C 
BRANCH  28  29
ATOM     29  C   UNL d   1      24.546 -18.226  -0.421  0.00  0.00    -0.058 A 
ATOM     30  C   UNL d   1      24.023 -16.925  -0.478  0.00  0.00     0.007 A 
ATOM     31  C   UNL d   1      22.652 -16.702  -0.529  0.00  0.00     0.001 A 
ATOM     32  C   UNL d   1      21.781 -17.778  -0.628  0.00  0.00     0.000 A 
ATOM     33  C   UNL d   1      22.281 -19.079  -0.631  0.00  0.00     0.001 A 
ATOM     34  C   UNL d   1      23.656 -19.305  -0.518  0.00  0.00     0.007 A 
ENDBRANCH  28  29
ENDBRANCH  27  28
ENDBRANCH  26  27
ENDBRANCH  25  26
ENDBRANCH  23  25
ENDBRANCH  22  23
ENDBRANCH  21  22
ENDBRANCH  20  21
ENDBRANCH   2  20
TORSDOF 13
ENDMDL
MODEL 8
REMARK VINA RESULT:    -6.599      2.027      3.466
REMARK INTER + INTRA:         -14.834
REMARK INTER:                 -10.477
REMARK INTRA:                  -4.357
REMARK CONF_INDEPENDENT:        3.878
REMARK UNBOUND:                -4.357
REMARK  13 active torsions:
REMARK  status: ('A' for Active; 'I' for Inactive)
REMARK    1  A    between atoms: C_4  and  O_5 
REMARK    2  A    between atoms: O_5  and  C_6 
REMARK    3  A    between atoms: C_6  and  C_7 
REMARK       I    between atoms: C_7  and  N_9 
REMARK    4  A    between atoms: N_9  and  N_10 
REMARK       I    between atoms: N_10  and  C_11 
REMARK    5  A    between atoms: C_11  and  C_13 
REMARK    6  A    between atoms: C_13  and  C_14 
REMARK    7  A    between atoms: C_14  and  C_15 
REMARK    8  A    between atoms: C_15  and  C_16 
REMARK    9  A    between atoms: C_16  and  O_18 
REMARK   10  A    between atoms: O_18  and  C_19 
REMARK   11  A    between atoms: C_19  and  C_20 
REMARK   12  A    between atoms: C_20  and  C_21 
REMARK   13  A    between atoms: C_21  and  C_22 
ROOT
ATOM      1  N   UNL d   1      27.869 -14.930  -4.378  0.00  0.00    -0.267 N 
ATOM      2  C   UNL d   1      26.534 -15.136  -4.694  0.00  0.00     0.236 C 
ATOM      3  O   UNL d   1      26.205 -15.637  -5.770  0.00  0.00    -0.272 OA
ATOM      4  H   UNL d   1      28.200 -14.520  -3.506  0.00  0.00     0.190 HD
ENDROOT
BRANCH   1   5
ATOM      5  N   UNL d   1      28.878 -15.306  -5.321  0.00  0.00    -0.266 N 
ATOM      6  C   UNL d   1      30.211 -15.015  -5.033  0.00  0.00     0.260 C 
ATOM      7  O   UNL d   1      30.518 -14.441  -3.987  0.00  0.00    -0.269 OA
ATOM      8  H   UNL d   1      28.549 -15.777  -6.162  0.00  0.00     0.190 HD
BRANCH   6   9
ATOM      9  C   UNL d   1      31.252 -15.452  -6.097  0.00  0.00     0.280 C 
BRANCH   9  10
ATOM     10  O   UNL d   1      30.656 -16.293  -7.098  0.00  0.00    -0.342 OA
BRANCH  10  11
ATOM     11  C   UNL d   1      30.930 -17.638  -7.079  0.00  0.00     0.070 A 
ATOM     12  C   UNL d   1      30.750 -18.473  -5.981  0.00  0.00     0.045 A 
ATOM     13  C   UNL d   1      31.044 -19.849  -6.054  0.00  0.00    -0.037 A 
ATOM     14  C   UNL d   1      30.808 -20.701  -4.838  0.00  0.00     0.050 C 
ATOM     15  C   UNL d   1      31.541 -20.389  -7.253  0.00  0.00     0.046 A 
ATOM     16  C   UNL d   1      31.742 -19.565  -8.373  0.00  0.00    -0.037 A 
ATOM     17 CL   UNL d   1      31.903 -22.085  -7.345  0.00  0.00    -0.083 Cl
ATOM     18  C   UNL d   1      31.428 -18.191  -8.269  0.00  0.00     0.045 A 
ATOM     19  C   UNL d   1      32.283 -20.122  -9.663  0.00  0.00     0.050 C 
ENDBRANCH  10  11
ENDBRANCH   9  10
ENDBRANCH   6   9
ENDBRANCH   1   5
BRANCH   2  20
ATOM     20  C   UNL d   1      25.512 -14.703  -3.625  0.00  0.00     0.105 C 
BRANCH  20  21
ATOM     21  C   UNL d   1      25.624 -13.199  -3.306  0.00  0.00     0.019 C 
BRANCH  21  22
ATOM     22  C   UNL d   1      26.272 -12.856  -1.950  0.00  0.00     0.111 C 
BRANCH  22  23
ATOM     23  C   UNL d   1      27.624 -13.546  -1.819  0.00  0.00     0.258 C 
ATOM     24  O   UNL d   1      28.706 -12.992  -2.000  0.00  0.00    -0.265 OA
BRANCH  23  25
ATOM     25  O   UNL d   1      27.497 -14.860  -1.477  0.00  0.00    -0.321 OA
BRANCH  25  26
ATOM     26  C   UNL d   1      27.671 -15.101  -0.062  0.00  0.00     0.179 C 
BRANCH  26  27
ATOM     27  C   UNL d   1      27.106 -16.467   0.278  0.00  0.00     0.031 C 
BRANCH  27  28
ATOM     28  C   UNL d   1      26.407 -17.144  -0.908  0.00  0.00     0.041 C 
BRANCH  28  29
ATOM     29  C   UNL d   1      24.925 -17.364  -0.693  0.00  0.00    -0.058 A 
ATOM     30  C   UNL d   1      24.405 -18.598  -0.274  0.00  0.00     0.007 A 
ATOM     31  C   UNL d   1      23.034 -18.826  -0.237  0.00  0.00     0.001 A 
ATOM     32  C   UNL d   1      22.154 -17.790  -0.521  0.00  0.00     0.000 A 
ATOM     33  C   UNL d   1      22.649 -16.538  -0.884  0.00  0.00     0.001 A 
ATOM     34  C   UNL d   1      24.027 -16.326  -0.980  0.00  0.00     0.007 A 
ENDBRANCH  28  29
ENDBRANCH  27  28
ENDBRANCH  26  27
ENDBRANCH  25  26
ENDBRANCH  23  25
ENDBRANCH  22  23
ENDBRANCH  21  22
ENDBRANCH  20  21
ENDBRANCH   2  20
TORSDOF 13
ENDMDL
MODEL 9
REMARK VINA RESULT:    -6.502      5.134      8.649
REMARK INTER + INTRA:         -14.810
REMARK INTER:                 -10.380
REMARK INTRA:                  -4.430
REMARK CONF_INDEPENDENT:        3.878
REMARK UNBOUND:                -4.430
REMARK  13 active torsions:
REMARK  status: ('A' for Active; 'I' for Inactive)
REMARK    1  A    between atoms: C_4  and  O_5 
REMARK    2  A    between atoms: O_5  and  C_6 
REMARK    3  A    between atoms: C_6  and  C_7 
REMARK       I    between atoms: C_7  and  N_9 
REMARK    4  A    between atoms: N_9  and  N_10 
REMARK       I    between atoms: N_10  and  C_11 
REMARK    5  A    between atoms: C_11  and  C_13 
REMARK    6  A    between atoms: C_13  and  C_14 
REMARK    7  A    between atoms: C_14  and  C_15 
REMARK    8  A    between atoms: C_15  and  C_16 
REMARK    9  A    between atoms: C_16  and  O_18 
REMARK   10  A    between atoms: O_18  and  C_19 
REMARK   11  A    between atoms: C_19  and  C_20 
REMARK   12  A    between atoms: C_20  and  C_21 
REMARK   13  A    between atoms: C_21  and  C_22 
ROOT
ATOM      1  N   UNL d   1      28.642 -13.658  -2.978  0.00  0.00    -0.267 N 
ATOM      2  C   UNL d   1      28.293 -12.421  -3.499  0.00  0.00     0.236 C 
ATOM      3  O   UNL d   1      27.600 -11.631  -2.856  0.00  0.00    -0.272 OA
ATOM      4  H   UNL d   1      29.211 -14.350  -3.462  0.00  0.00     0.190 HD
ENDROOT
BRANCH   1   5
ATOM      5  N   UNL d   1      28.187 -14.020  -1.669  0.00  0.00    -0.266 N 
ATOM      6  C   UNL d   1      28.566 -15.254  -1.141  0.00  0.00     0.260 C 
ATOM      7  O   UNL d   1      29.279 -16.023  -1.789  0.00  0.00    -0.269 OA
ATOM      8  H   UNL d   1      27.602 -13.334  -1.194  0.00  0.00     0.190 HD
BRANCH   6   9
ATOM      9  C   UNL d   1      28.040 -15.581   0.281  0.00  0.00     0.280 C 
BRANCH   9  10
ATOM     10  O   UNL d   1      27.064 -14.619   0.711  0.00  0.00    -0.342 OA
BRANCH  10  11
ATOM     11  C   UNL d   1      27.301 -13.906   1.860  0.00  0.00     0.070 A 
ATOM     12  C   UNL d   1      27.086 -12.540   2.011  0.00  0.00     0.045 A 
ATOM     13  C   UNL d   1      27.344 -11.890   3.233  0.00  0.00    -0.037 A 
ATOM     14  C   UNL d   1      27.069 -10.415   3.336  0.00  0.00     0.050 C 
ATOM     15  C   UNL d   1      27.840 -12.630   4.320  0.00  0.00     0.046 A 
ATOM     16  C   UNL d   1      28.077 -14.009   4.191  0.00  0.00    -0.037 A 
ATOM     17 CL   UNL d   1      28.158 -11.830   5.829  0.00  0.00    -0.083 Cl
ATOM     18  C   UNL d   1      27.799 -14.632   2.954  0.00  0.00     0.045 A 
ATOM     19  C   UNL d   1      28.619 -14.817   5.341  0.00  0.00     0.050 C 
ENDBRANCH  10  11
ENDBRANCH   9  10
ENDBRANCH   6   9
ENDBRANCH   1   5
BRANCH   2  20
ATOM     20  C   UNL d   1      28.823 -12.110  -4.912  0.00  0.00     0.105 C 
BRANCH  20  21
ATOM     21  C   UNL d   1      27.923 -12.720  -6.005  0.00  0.00     0.019 C 
BRANCH  21  22
ATOM     22  C   UNL d   1      28.366 -14.099  -6.534  0.00  0.00     0.111 C 
BRANCH  22  23
ATOM     23  C   UNL d   1      27.914 -15.200  -5.585  0.00  0.00     0.258 C 
ATOM     24  O   UNL d   1      28.673 -15.884  -4.903  0.00  0.00    -0.265 OA
BRANCH  23  25
ATOM     25  O   UNL d   1      26.557 -15.345  -5.577  0.00  0.00    -0.321 OA
BRANCH  25  26
ATOM     26  C   UNL d   1      25.926 -14.747  -4.422  0.00  0.00     0.179 C 
BRANCH  26  27
ATOM     27  C   UNL d   1      25.863 -15.775  -3.308  0.00  0.00     0.031 C 
BRANCH  27  28
ATOM     28  C   UNL d   1      25.171 -15.253  -2.043  0.00  0.00     0.041 C 
BRANCH  28  29
ATOM     29  C   UNL d   1      24.572 -16.347  -1.185  0.00  0.00    -0.058 A 
ATOM     30  C   UNL d   1      25.358 -17.344  -0.587  0.00  0.00     0.007 A 
ATOM     31  C   UNL d   1      24.775 -18.426   0.061  0.00  0.00     0.001 A 
ATOM     32  C   UNL d   1      23.396 -18.480   0.213  0.00  0.00     0.000 A 
ATOM     33  C   UNL d   1      22.599 -17.470  -0.323  0.00  0.00     0.001 A 
ATOM     34  C   UNL d   1      23.180 -16.413  -1.028  0.00  0.00     0.007 A 
ENDBRANCH  28  29
ENDBRANCH  27  28
ENDBRANCH  26  27
ENDBRANCH  25  26
ENDBRANCH  23  25
ENDBRANCH  22  23
ENDBRANCH  21  22
ENDBRANCH  20  21
ENDBRANCH   2  20
TORSDOF 13
ENDMDL
