MODEL 1
REMARK VINA RESULT:   -11.516      0.000      0.000
REMARK INTER + INTRA:         -16.177
REMARK INTER:                 -14.499
REMARK INTRA:                  -1.677
REMARK CONF_INDEPENDENT:        2.983
REMARK UNBOUND:                -1.677
REMARK  10 active torsions:
REMARK  status: ('A' for Active; 'I' for Inactive)
REMARK    1  A    between atoms: O_2  and  C_3 
REMARK    2  A    between atoms: C_3  and  C_5 
REMARK    3  A    between atoms: N_7  and  C_8 
REMARK    4  A    between atoms: C_10  and  C_11 
REMARK       I    between atoms: C_11  and  N_13 
REMARK    5  A    between atoms: N_13  and  C_14 
REMARK    6  A    between atoms: C_14  and  C_15 
REMARK    7  A    between atoms: C_15  and  C_16 
REMARK    8  A    between atoms: N_25  and  C_26 
REMARK    9  A    between atoms: C_26  and  C_27 
REMARK   10  A    between atoms: C_29  and  C_30 
ROOT
ATOM      1  C   UNL d   1      29.829 -16.715  -0.986  0.00  0.00     0.132 C 
ATOM      2  C   UNL d   1      28.597 -17.636  -0.918  0.00  0.00     0.072 C 
ATOM      3  C   UNL d   1      27.482 -16.906  -0.173  0.00  0.00     0.281 C 
ATOM      4  N   UNL d   1      28.284 -16.046   0.897  0.00  0.00    -0.053 N 
ATOM      5  C   UNL d   1      29.727 -15.826   0.295  0.00  0.00     0.263 C 
ATOM      6  H   UNL d   1      28.363 -16.652   1.730  0.00  0.00     0.281 HD
ENDROOT
BRANCH   3   7
ATOM      7  C   UNL d   1      26.366 -17.818   0.377  0.00  0.00     0.248 C 
ATOM      8  O   UNL d   1      26.554 -18.473   1.401  0.00  0.00    -0.271 OA
ATOM      9  N   UNL d   1      25.158 -17.791  -0.316  0.00  0.00    -0.359 N 
ATOM     10  H   UNL d   1      25.001 -17.175  -1.109  0.00  0.00     0.162 HD
BRANCH   9  11
ATOM     11  C   UNL d   1      24.025 -18.607   0.123  0.00  0.00     0.127 C 
BRANCH  11  12
ATOM     12  C   UNL d   1      22.678 -17.874   0.231  0.00  0.00     0.060 C 
BRANCH  12  13
ATOM     13  C   UNL d   1      21.520 -18.684  -0.289  0.00  0.00    -0.029 A 
ATOM     14  C   UNL d   1      21.155 -18.896  -1.606  0.00  0.00     0.096 A 
ATOM     15  N   UNL d   1      20.045 -19.699  -1.632  0.00  0.00    -0.365 N 
ATOM     16  C   UNL d   1      19.632 -19.975  -0.351  0.00  0.00     0.042 A 
ATOM     17  H   UNL d   1      19.576 -20.018  -2.469  0.00  0.00     0.165 HD
ATOM     18  C   UNL d   1      18.527 -20.702   0.108  0.00  0.00     0.030 A 
ATOM     19  C   UNL d   1      20.545 -19.364   0.512  0.00  0.00    -0.002 A 
ATOM     20  C   UNL d   1      18.340 -20.789   1.491  0.00  0.00     0.002 A 
ATOM     21  C   UNL d   1      19.240 -20.200   2.377  0.00  0.00     0.001 A 
ATOM     22  C   UNL d   1      20.351 -19.497   1.901  0.00  0.00     0.014 A 
ENDBRANCH  12  13
ENDBRANCH  11  12
ENDBRANCH   9  11
ENDBRANCH   3   7
BRANCH   4  23
ATOM     23  C   UNL d   1      27.596 -14.765   1.434  0.00  0.00     0.270 C 
BRANCH  23  24
ATOM     24  C   UNL d   1      28.083 -14.249   2.766  0.00  0.00    -0.058 C 
ATOM     25  C   UNL d   1      29.092 -13.184   2.736  0.00  0.00     0.045 C 
ATOM     26  C   UNL d   1      27.780 -14.709   3.996  0.00  0.00     0.015 C 
BRANCH  26  27
ATOM     27  C   UNL d   1      28.322 -14.046   5.214  0.00  0.00    -0.036 A 
ATOM     28  C   UNL d   1      27.770 -12.856   5.673  0.00  0.00     0.011 A 
ATOM     29  C   UNL d   1      28.343 -12.209   6.773  0.00  0.00     0.001 A 
ATOM     30  C   UNL d   1      29.362 -12.811   7.515  0.00  0.00     0.000 A 
ATOM     31  C   UNL d   1      29.872 -14.034   7.119  0.00  0.00     0.001 A 
ATOM     32  C   UNL d   1      29.403 -14.598   5.940  0.00  0.00     0.011 A 
ENDBRANCH  26  27
ENDBRANCH  23  24
ENDBRANCH   4  23
BRANCH   1  33
ATOM     33  N   UNL d   1      29.978 -15.994  -2.293  0.00  0.00    -0.297 N 
ATOM     34  C   UNL d   1      29.144 -16.048  -3.412  0.00  0.00     0.143 C 
ATOM     35  C   UNL d   1      29.373 -14.989  -4.214  0.00  0.00     0.137 C 
ATOM     36  N   UNL d   1      30.282 -14.174  -3.578  0.00  0.00    -0.297 N 
ATOM     37  N   UNL d   1      30.855 -14.875  -2.532  0.00  0.00    -0.146 NA
ATOM     38  H   UNL d   1      30.656 -13.323  -3.996  0.00  0.00     0.183 HD
ATOM     39  H   UNL d   1      31.707 -15.275  -2.961  0.00  0.00     0.173 HD
BRANCH  35  40
ATOM     40  C   UNL d   1      28.857 -14.702  -5.564  0.00  0.00     0.312 C 
ATOM     41  O   UNL d   1      29.452 -13.979  -6.367  0.00  0.00    -0.258 OA
BRANCH  40  42
ATOM     42  O   UNL d   1      27.661 -15.297  -5.751  0.00  0.00    -0.321 OA
ATOM     43  C   UNL d   1      26.562 -14.605  -5.151  0.00  0.00     0.213 C 
ENDBRANCH  40  42
ENDBRANCH  35  40
ENDBRANCH   1  33
TORSDOF 10
ENDMDL
MODEL 2
REMARK VINA RESULT:   -10.739      3.912      6.288
REMARK INTER + INTRA:         -15.579
REMARK INTER:                 -13.722
REMARK INTRA:                  -1.857
REMARK CONF_INDEPENDENT:        2.983
REMARK UNBOUND:                -1.857
REMARK  10 active torsions:
REMARK  status: ('A' for Active; 'I' for Inactive)
REMARK    1  A    between atoms: O_2  and  C_3 
REMARK    2  A    between atoms: C_3  and  C_5 
REMARK    3  A    between atoms: N_7  and  C_8 
REMARK    4  A    between atoms: C_10  and  C_11 
REMARK       I    between atoms: C_11  and  N_13 
REMARK    5  A    between atoms: N_13  and  C_14 
REMARK    6  A    between atoms: C_14  and  C_15 
REMARK    7  A    between atoms: C_15  and  C_16 
REMARK    8  A    between atoms: N_25  and  C_26 
REMARK    9  A    between atoms: C_26  and  C_27 
REMARK   10  A    between atoms: C_29  and  C_30 
ROOT
ATOM      1  C   UNL d   1      29.544 -12.056   2.429  0.00  0.00     0.132 C 
ATOM      2  C   UNL d   1      28.716 -12.797   1.364  0.00  0.00     0.072 C 
ATOM      3  C   UNL d   1      27.997 -13.967   2.031  0.00  0.00     0.281 C 
ATOM      4  N   UNL d   1      29.036 -14.424   3.144  0.00  0.00    -0.053 N 
ATOM      5  C   UNL d   1      29.916 -13.156   3.475  0.00  0.00     0.263 C 
ATOM      6  H   UNL d   1      29.634 -15.131   2.685  0.00  0.00     0.281 HD
ENDROOT
BRANCH   3   7
ATOM      7  C   UNL d   1      27.504 -15.062   1.062  0.00  0.00     0.248 C 
ATOM      8  O   UNL d   1      26.373 -14.998   0.584  0.00  0.00    -0.271 OA
ATOM      9  N   UNL d   1      28.429 -16.052   0.738  0.00  0.00    -0.359 N 
ATOM     10  H   UNL d   1      29.386 -16.033   1.080  0.00  0.00     0.162 HD
BRANCH   9  11
ATOM     11  C   UNL d   1      28.076 -17.134  -0.182  0.00  0.00     0.127 C 
BRANCH  11  12
ATOM     12  C   UNL d   1      27.657 -16.698  -1.595  0.00  0.00     0.060 C 
BRANCH  12  13
ATOM     13  C   UNL d   1      26.197 -16.347  -1.696  0.00  0.00    -0.029 A 
ATOM     14  C   UNL d   1      25.623 -15.289  -2.378  0.00  0.00     0.096 A 
ATOM     15  N   UNL d   1      24.264 -15.344  -2.213  0.00  0.00    -0.365 N 
ATOM     16  C   UNL d   1      23.931 -16.387  -1.383  0.00  0.00     0.042 A 
ATOM     17  H   UNL d   1      23.602 -14.694  -2.616  0.00  0.00     0.165 HD
ATOM     18  C   UNL d   1      22.683 -16.793  -0.894  0.00  0.00     0.030 A 
ATOM     19  C   UNL d   1      25.119 -17.042  -1.055  0.00  0.00    -0.002 A 
ATOM     20  C   UNL d   1      22.655 -17.889  -0.026  0.00  0.00     0.002 A 
ATOM     21  C   UNL d   1      23.823 -18.569   0.311  0.00  0.00     0.001 A 
ATOM     22  C   UNL d   1      25.057 -18.164  -0.206  0.00  0.00     0.014 A 
ENDBRANCH  12  13
ENDBRANCH  11  12
ENDBRANCH   9  11
ENDBRANCH   3   7
BRANCH   4  23
ATOM     23  C   UNL d   1      28.467 -15.167   4.380  0.00  0.00     0.270 C 
BRANCH  23  24
ATOM     24  C   UNL d   1      28.463 -14.402   5.681  0.00  0.00    -0.058 C 
ATOM     25  C   UNL d   1      27.407 -13.398   5.857  0.00  0.00     0.045 C 
ATOM     26  C   UNL d   1      29.370 -14.451   6.676  0.00  0.00     0.015 C 
BRANCH  26  27
ATOM     27  C   UNL d   1      29.184 -13.652   7.919  0.00  0.00    -0.036 A 
ATOM     28  C   UNL d   1      28.846 -14.277   9.113  0.00  0.00     0.011 A 
ATOM     29  C   UNL d   1      28.600 -13.501  10.252  0.00  0.00     0.001 A 
ATOM     30  C   UNL d   1      28.836 -12.124  10.253  0.00  0.00     0.000 A 
ATOM     31  C   UNL d   1      29.249 -11.496   9.093  0.00  0.00     0.001 A 
ATOM     32  C   UNL d   1      29.345 -12.247   7.929  0.00  0.00     0.011 A 
ENDBRANCH  26  27
ENDBRANCH  23  24
ENDBRANCH   4  23
BRANCH   1  33
ATOM     33  N   UNL d   1      28.882 -10.820   2.963  0.00  0.00    -0.297 N 
ATOM     34  C   UNL d   1      28.205  -9.825   2.254  0.00  0.00     0.143 C 
ATOM     35  C   UNL d   1      27.424  -9.111   3.088  0.00  0.00     0.137 C 
ATOM     36  N   UNL d   1      27.497  -9.695   4.332  0.00  0.00    -0.297 N 
ATOM     37  N   UNL d   1      28.563 -10.578   4.348  0.00  0.00    -0.146 NA
ATOM     38  H   UNL d   1      27.028  -9.318   5.154  0.00  0.00     0.183 HD
ATOM     39  H   UNL d   1      29.337  -9.998   4.716  0.00  0.00     0.173 HD
BRANCH  35  40
ATOM     40  C   UNL d   1      26.655  -7.879   2.833  0.00  0.00     0.312 C 
ATOM     41  O   UNL d   1      25.845  -7.776   1.909  0.00  0.00    -0.258 OA
BRANCH  40  42
ATOM     42  O   UNL d   1      27.000  -6.915   3.711  0.00  0.00    -0.321 OA
ATOM     43  C   UNL d   1      28.410  -6.783   3.913  0.00  0.00     0.213 C 
ENDBRANCH  40  42
ENDBRANCH  35  40
ENDBRANCH   1  33
TORSDOF 10
ENDMDL
MODEL 3
REMARK VINA RESULT:   -10.716      2.834     10.025
REMARK INTER + INTRA:         -15.584
REMARK INTER:                 -13.699
REMARK INTRA:                  -1.885
REMARK CONF_INDEPENDENT:        2.983
REMARK UNBOUND:                -1.885
REMARK  10 active torsions:
REMARK  status: ('A' for Active; 'I' for Inactive)
REMARK    1  A    between atoms: O_2  and  C_3 
REMARK    2  A    between atoms: C_3  and  C_5 
REMARK    3  A    between atoms: N_7  and  C_8 
REMARK    4  A    between atoms: C_10  and  C_11 
REMARK       I    between atoms: C_11  and  N_13 
REMARK    5  A    between atoms: N_13  and  C_14 
REMARK    6  A    between atoms: C_14  and  C_15 
REMARK    7  A    between atoms: C_15  and  C_16 
REMARK    8  A    between atoms: N_25  and  C_26 
REMARK    9  A    between atoms: C_26  and  C_27 
REMARK   10  A    between atoms: C_29  and  C_30 
ROOT
ATOM      1  C   UNL d   1      25.886 -17.205  -0.896  0.00  0.00     0.132 C 
ATOM      2  C   UNL d   1      26.495 -16.339   0.222  0.00  0.00     0.072 C 
ATOM      3  C   UNL d   1      26.259 -14.869  -0.116  0.00  0.00     0.281 C 
ATOM      4  N   UNL d   1      26.354 -14.858  -1.704  0.00  0.00    -0.053 N 
ATOM      5  C   UNL d   1      25.981 -16.317  -2.178  0.00  0.00     0.263 C 
ATOM      6  H   UNL d   1      27.350 -14.685  -1.916  0.00  0.00     0.281 HD
ENDROOT
BRANCH   3   7
ATOM      7  C   UNL d   1      27.175 -13.878   0.632  0.00  0.00     0.248 C 
ATOM      8  O   UNL d   1      28.263 -13.563   0.153  0.00  0.00    -0.271 OA
ATOM      9  N   UNL d   1      26.663 -13.344   1.812  0.00  0.00    -0.359 N 
ATOM     10  H   UNL d   1      25.725 -13.555   2.140  0.00  0.00     0.162 HD
BRANCH   9  11
ATOM     11  C   UNL d   1      27.438 -12.384   2.598  0.00  0.00     0.127 C 
BRANCH  11  12
ATOM     12  C   UNL d   1      28.803 -12.881   3.101  0.00  0.00     0.060 C 
BRANCH  12  13
ATOM     13  C   UNL d   1      28.731 -13.543   4.451  0.00  0.00    -0.029 A 
ATOM     14  C   UNL d   1      28.514 -14.880   4.731  0.00  0.00     0.096 A 
ATOM     15  N   UNL d   1      28.530 -15.055   6.090  0.00  0.00    -0.365 N 
ATOM     16  C   UNL d   1      28.695 -13.844   6.718  0.00  0.00     0.042 A 
ATOM     17  H   UNL d   1      28.407 -15.939   6.565  0.00  0.00     0.165 HD
ATOM     18  C   UNL d   1      28.719 -13.528   8.083  0.00  0.00     0.030 A 
ATOM     19  C   UNL d   1      28.837 -12.881   5.718  0.00  0.00    -0.002 A 
ATOM     20  C   UNL d   1      28.872 -12.182   8.431  0.00  0.00     0.002 A 
ATOM     21  C   UNL d   1      29.028 -11.200   7.455  0.00  0.00     0.001 A 
ATOM     22  C   UNL d   1      29.025 -11.538   6.098  0.00  0.00     0.014 A 
ENDBRANCH  12  13
ENDBRANCH  11  12
ENDBRANCH   9  11
ENDBRANCH   3   7
BRANCH   4  23
ATOM     23  C   UNL d   1      25.613 -13.717  -2.448  0.00  0.00     0.270 C 
BRANCH  23  24
ATOM     24  C   UNL d   1      26.105 -13.391  -3.837  0.00  0.00    -0.058 C 
ATOM     25  C   UNL d   1      25.878 -14.403  -4.875  0.00  0.00     0.045 C 
ATOM     26  C   UNL d   1      26.819 -12.321  -4.235  0.00  0.00     0.015 C 
BRANCH  26  27
ATOM     27  C   UNL d   1      27.185 -12.136  -5.666  0.00  0.00    -0.036 A 
ATOM     28  C   UNL d   1      28.211 -12.882  -6.233  0.00  0.00     0.011 A 
ATOM     29  C   UNL d   1      28.591 -12.638  -7.558  0.00  0.00     0.001 A 
ATOM     30  C   UNL d   1      27.859 -11.769  -8.370  0.00  0.00     0.000 A 
ATOM     31  C   UNL d   1      26.785 -11.075  -7.845  0.00  0.00     0.001 A 
ATOM     32  C   UNL d   1      26.508 -11.208  -6.491  0.00  0.00     0.011 A 
ENDBRANCH  26  27
ENDBRANCH  23  24
ENDBRANCH   4  23
BRANCH   1  33
ATOM     33  N   UNL d   1      24.534 -17.763  -0.565  0.00  0.00    -0.297 N 
ATOM     34  C   UNL d   1      23.304 -17.460  -1.154  0.00  0.00     0.143 C 
ATOM     35  C   UNL d   1      22.406 -18.425  -0.877  0.00  0.00     0.137 C 
ATOM     36  N   UNL d   1      23.063 -19.423  -0.194  0.00  0.00    -0.297 N 
ATOM     37  N   UNL d   1      24.290 -18.941   0.228  0.00  0.00    -0.146 NA
ATOM     38  H   UNL d   1      22.596 -20.252   0.171  0.00  0.00     0.183 HD
ATOM     39  H   UNL d   1      24.086 -18.598   1.183  0.00  0.00     0.173 HD
BRANCH  35  40
ATOM     40  C   UNL d   1      20.957 -18.468  -1.144  0.00  0.00     0.312 C 
ATOM     41  O   UNL d   1      20.271 -17.450  -1.269  0.00  0.00    -0.258 OA
BRANCH  40  42
ATOM     42  O   UNL d   1      20.519 -19.742  -1.184  0.00  0.00    -0.321 OA
ATOM     43  C   UNL d   1      19.614 -20.084  -0.129  0.00  0.00     0.213 C 
ENDBRANCH  40  42
ENDBRANCH  35  40
ENDBRANCH   1  33
TORSDOF 10
ENDMDL
MODEL 4
REMARK VINA RESULT:   -10.657      2.279      8.683
REMARK INTER + INTRA:         -15.212
REMARK INTER:                 -13.640
REMARK INTRA:                  -1.573
REMARK CONF_INDEPENDENT:        2.983
REMARK UNBOUND:                -1.573
REMARK  10 active torsions:
REMARK  status: ('A' for Active; 'I' for Inactive)
REMARK    1  A    between atoms: O_2  and  C_3 
REMARK    2  A    between atoms: C_3  and  C_5 
REMARK    3  A    between atoms: N_7  and  C_8 
REMARK    4  A    between atoms: C_10  and  C_11 
REMARK       I    between atoms: C_11  and  N_13 
REMARK    5  A    between atoms: N_13  and  C_14 
REMARK    6  A    between atoms: C_14  and  C_15 
REMARK    7  A    between atoms: C_15  and  C_16 
REMARK    8  A    between atoms: N_25  and  C_26 
REMARK    9  A    between atoms: C_26  and  C_27 
REMARK   10  A    between atoms: C_29  and  C_30 
ROOT
ATOM      1  C   UNL d   1      25.902 -13.904  -3.320  0.00  0.00     0.132 C 
ATOM      2  C   UNL d   1      26.818 -13.877  -2.083  0.00  0.00     0.072 C 
ATOM      3  C   UNL d   1      26.751 -15.239  -1.395  0.00  0.00     0.281 C 
ATOM      4  N   UNL d   1      25.246 -15.684  -1.652  0.00  0.00    -0.053 N 
ATOM      5  C   UNL d   1      24.778 -14.926  -2.955  0.00  0.00     0.263 C 
ATOM      6  H   UNL d   1      24.713 -15.318  -0.847  0.00  0.00     0.281 HD
ENDROOT
BRANCH   3   7
ATOM      7  C   UNL d   1      27.228 -15.248   0.072  0.00  0.00     0.248 C 
ATOM      8  O   UNL d   1      26.915 -16.176   0.816  0.00  0.00    -0.271 OA
ATOM      9  N   UNL d   1      28.058 -14.195   0.451  0.00  0.00    -0.359 N 
ATOM     10  H   UNL d   1      28.371 -13.487  -0.208  0.00  0.00     0.162 HD
BRANCH   9  11
ATOM     11  C   UNL d   1      28.581 -14.108   1.815  0.00  0.00     0.127 C 
BRANCH  11  12
ATOM     12  C   UNL d   1      27.614 -13.537   2.865  0.00  0.00     0.060 C 
BRANCH  12  13
ATOM     13  C   UNL d   1      27.972 -13.930   4.274  0.00  0.00    -0.029 A 
ATOM     14  C   UNL d   1      28.041 -15.203   4.810  0.00  0.00     0.096 A 
ATOM     15  N   UNL d   1      28.409 -15.108   6.126  0.00  0.00    -0.365 N 
ATOM     16  C   UNL d   1      28.529 -13.787   6.488  0.00  0.00     0.042 A 
ATOM     17  H   UNL d   1      28.544 -15.891   6.751  0.00  0.00     0.165 HD
ATOM     18  C   UNL d   1      28.829 -13.213   7.729  0.00  0.00     0.030 A 
ATOM     19  C   UNL d   1      28.274 -13.027   5.346  0.00  0.00    -0.002 A 
ATOM     20  C   UNL d   1      28.849 -11.816   7.806  0.00  0.00     0.002 A 
ATOM     21  C   UNL d   1      28.610 -11.031   6.681  0.00  0.00     0.001 A 
ATOM     22  C   UNL d   1      28.335 -11.623   5.444  0.00  0.00     0.014 A 
ENDBRANCH  12  13
ENDBRANCH  11  12
ENDBRANCH   9  11
ENDBRANCH   3   7
BRANCH   4  23
ATOM     23  C   UNL d   1      24.946 -17.204  -1.635  0.00  0.00     0.270 C 
BRANCH  23  24
ATOM     24  C   UNL d   1      23.593 -17.616  -1.107  0.00  0.00    -0.058 C 
ATOM     25  C   UNL d   1      22.764 -16.561  -0.512  0.00  0.00     0.045 C 
ATOM     26  C   UNL d   1      23.078 -18.858  -1.022  0.00  0.00     0.015 C 
BRANCH  26  27
ATOM     27  C   UNL d   1      21.697 -19.079  -0.511  0.00  0.00    -0.036 A 
ATOM     28  C   UNL d   1      20.651 -19.326  -1.391  0.00  0.00     0.011 A 
ATOM     29  C   UNL d   1      19.348 -19.453  -0.896  0.00  0.00     0.001 A 
ATOM     30  C   UNL d   1      19.098 -19.491   0.478  0.00  0.00     0.000 A 
ATOM     31  C   UNL d   1      20.139 -19.325   1.372  0.00  0.00     0.001 A 
ATOM     32  C   UNL d   1      21.405 -19.047   0.873  0.00  0.00     0.011 A 
ENDBRANCH  26  27
ENDBRANCH  23  24
ENDBRANCH   4  23
BRANCH   1  33
ATOM     33  N   UNL d   1      26.630 -14.141  -4.610  0.00  0.00    -0.297 N 
ATOM     34  C   UNL d   1      27.319 -13.215  -5.398  0.00  0.00     0.143 C 
ATOM     35  C   UNL d   1      28.157 -13.854  -6.239  0.00  0.00     0.137 C 
ATOM     36  N   UNL d   1      28.107 -15.196  -5.938  0.00  0.00    -0.297 N 
ATOM     37  N   UNL d   1      27.009 -15.431  -5.128  0.00  0.00    -0.146 NA
ATOM     38  H   UNL d   1      28.619 -15.905  -6.461  0.00  0.00     0.183 HD
ATOM     39  H   UNL d   1      26.272 -15.686  -5.808  0.00  0.00     0.173 HD
BRANCH  35  40
ATOM     40  C   UNL d   1      28.962 -13.319  -7.351  0.00  0.00     0.312 C 
ATOM     41  O   UNL d   1      28.555 -12.430  -8.104  0.00  0.00    -0.258 OA
BRANCH  40  42
ATOM     42  O   UNL d   1      30.145 -13.961  -7.432  0.00  0.00    -0.321 OA
ATOM     43  C   UNL d   1      31.123 -13.289  -8.232  0.00  0.00     0.213 C 
ENDBRANCH  40  42
ENDBRANCH  35  40
ENDBRANCH   1  33
TORSDOF 10
ENDMDL
MODEL 5
REMARK VINA RESULT:   -10.379      2.513      9.529
REMARK INTER + INTRA:         -15.299
REMARK INTER:                 -13.362
REMARK INTRA:                  -1.937
REMARK CONF_INDEPENDENT:        2.983
REMARK UNBOUND:                -1.937
REMARK  10 active torsions:
REMARK  status: ('A' for Active; 'I' for Inactive)
REMARK    1  A    between atoms: O_2  and  C_3 
REMARK    2  A    between atoms: C_3  and  C_5 
REMARK    3  A    between atoms: N_7  and  C_8 
REMARK    4  A    between atoms: C_10  and  C_11 
REMARK       I    between atoms: C_11  and  N_13 
REMARK    5  A    between atoms: N_13  and  C_14 
REMARK    6  A    between atoms: C_14  and  C_15 
REMARK    7  A    between atoms: C_15  and  C_16 
REMARK    8  A    between atoms: N_25  and  C_26 
REMARK    9  A    between atoms: C_26  and  C_27 
REMARK   10  A    between atoms: C_29  and  C_30 
ROOT
ATOM      1  C   UNL d   1      26.563 -17.493   0.621  0.00  0.00     0.132 C 
ATOM      2  C   UNL d   1      27.121 -16.113   1.015  0.00  0.00     0.072 C 
ATOM      3  C   UNL d   1      28.238 -15.743   0.043  0.00  0.00     0.281 C 
ATOM      4  N   UNL d   1      28.896 -17.153  -0.284  0.00  0.00    -0.053 N 
ATOM      5  C   UNL d   1      27.771 -18.233  -0.039  0.00  0.00     0.263 C 
ATOM      6  H   UNL d   1      29.636 -17.280   0.425  0.00  0.00     0.281 HD
ENDROOT
BRANCH   3   7
ATOM      7  C   UNL d   1      29.194 -14.641   0.545  0.00  0.00     0.248 C 
ATOM      8  O   UNL d   1      29.441 -13.668  -0.166  0.00  0.00    -0.271 OA
ATOM      9  N   UNL d   1      29.684 -14.800   1.840  0.00  0.00    -0.359 N 
ATOM     10  H   UNL d   1      29.395 -15.569   2.438  0.00  0.00     0.162 HD
BRANCH   9  11
ATOM     11  C   UNL d   1      30.588 -13.810   2.425  0.00  0.00     0.127 C 
BRANCH  11  12
ATOM     12  C   UNL d   1      29.937 -12.790   3.373  0.00  0.00     0.060 C 
BRANCH  12  13
ATOM     13  C   UNL d   1      29.499 -13.394   4.681  0.00  0.00    -0.029 A 
ATOM     14  C   UNL d   1      29.154 -14.709   4.936  0.00  0.00     0.096 A 
ATOM     15  N   UNL d   1      28.822 -14.829   6.260  0.00  0.00    -0.365 N 
ATOM     16  C   UNL d   1      28.883 -13.601   6.875  0.00  0.00     0.042 A 
ATOM     17  H   UNL d   1      28.542 -15.687   6.715  0.00  0.00     0.165 HD
ATOM     18  C   UNL d   1      28.581 -13.231   8.191  0.00  0.00     0.030 A 
ATOM     19  C   UNL d   1      29.317 -12.685   5.914  0.00  0.00    -0.002 A 
ATOM     20  C   UNL d   1      28.707 -11.880   8.527  0.00  0.00     0.002 A 
ATOM     21  C   UNL d   1      29.149 -10.944   7.593  0.00  0.00     0.001 A 
ATOM     22  C   UNL d   1      29.469 -11.336   6.290  0.00  0.00     0.014 A 
ENDBRANCH  12  13
ENDBRANCH  11  12
ENDBRANCH   9  11
ENDBRANCH   3   7
BRANCH   4  23
ATOM     23  C   UNL d   1      29.648 -17.286  -1.633  0.00  0.00     0.270 C 
BRANCH  23  24
ATOM     24  C   UNL d   1      29.332 -16.249  -2.683  0.00  0.00    -0.058 C 
ATOM     25  C   UNL d   1      30.437 -15.387  -3.119  0.00  0.00     0.045 C 
ATOM     26  C   UNL d   1      28.131 -15.943  -3.212  0.00  0.00     0.015 C 
BRANCH  26  27
ATOM     27  C   UNL d   1      28.007 -14.913  -4.280  0.00  0.00    -0.036 A 
ATOM     28  C   UNL d   1      28.472 -15.170  -5.564  0.00  0.00     0.011 A 
ATOM     29  C   UNL d   1      28.417 -14.162  -6.533  0.00  0.00     0.001 A 
ATOM     30  C   UNL d   1      27.764 -12.953  -6.280  0.00  0.00     0.000 A 
ATOM     31  C   UNL d   1      27.225 -12.709  -5.031  0.00  0.00     0.001 A 
ATOM     32  C   UNL d   1      27.417 -13.652  -4.030  0.00  0.00     0.011 A 
ENDBRANCH  26  27
ENDBRANCH  23  24
ENDBRANCH   4  23
BRANCH   1  33
ATOM     33  N   UNL d   1      25.296 -17.431  -0.180  0.00  0.00    -0.297 N 
ATOM     34  C   UNL d   1      24.138 -18.198  -0.032  0.00  0.00     0.143 C 
ATOM     35  C   UNL d   1      23.101 -17.598  -0.648  0.00  0.00     0.137 C 
ATOM     36  N   UNL d   1      23.541 -16.380  -1.114  0.00  0.00    -0.297 N 
ATOM     37  N   UNL d   1      24.924 -16.358  -1.067  0.00  0.00    -0.146 NA
ATOM     38  H   UNL d   1      22.956 -15.747  -1.658  0.00  0.00     0.183 HD
ATOM     39  H   UNL d   1      25.192 -16.674  -2.015  0.00  0.00     0.173 HD
BRANCH  35  40
ATOM     40  C   UNL d   1      21.736 -18.097  -0.894  0.00  0.00     0.312 C 
ATOM     41  O   UNL d   1      20.816 -17.367  -1.270  0.00  0.00    -0.258 OA
BRANCH  40  42
ATOM     42  O   UNL d   1      21.654 -19.413  -0.612  0.00  0.00    -0.321 OA
ATOM     43  C   UNL d   1      20.316 -19.900  -0.472  0.00  0.00     0.213 C 
ENDBRANCH  40  42
ENDBRANCH  35  40
ENDBRANCH   1  33
TORSDOF 10
ENDMDL
MODEL 6
REMARK VINA RESULT:   -10.190      4.377      9.355
REMARK INTER + INTRA:         -15.163
REMARK INTER:                 -13.173
REMARK INTRA:                  -1.990
REMARK CONF_INDEPENDENT:        2.983
REMARK UNBOUND:                -1.990
REMARK  10 active torsions:
REMARK  status: ('A' for Active; 'I' for Inactive)
REMARK    1  A    between atoms: O_2  and  C_3 
REMARK    2  A    between atoms: C_3  and  C_5 
REMARK    3  A    between atoms: N_7  and  C_8 
REMARK    4  A    between atoms: C_10  and  C_11 
REMARK       I    between atoms: C_11  and  N_13 
REMARK    5  A    between atoms: N_13  and  C_14 
REMARK    6  A    between atoms: C_14  and  C_15 
REMARK    7  A    between atoms: C_15  and  C_16 
REMARK    8  A    between atoms: N_25  and  C_26 
REMARK    9  A    between atoms: C_26  and  C_27 
REMARK   10  A    between atoms: C_29  and  C_30 
ROOT
ATOM      1  C   UNL d   1      27.381 -16.610   0.300  0.00  0.00     0.132 C 
ATOM      2  C   UNL d   1      27.405 -15.474   1.339  0.00  0.00     0.072 C 
ATOM      3  C   UNL d   1      28.686 -14.665   1.148  0.00  0.00     0.281 C 
ATOM      4  N   UNL d   1      29.731 -15.773   0.691  0.00  0.00    -0.053 N 
ATOM      5  C   UNL d   1      28.887 -16.933   0.035  0.00  0.00     0.263 C 
ATOM      6  H   UNL d   1      30.155 -16.125   1.565  0.00  0.00     0.281 HD
ENDROOT
BRANCH   3   7
ATOM      7  C   UNL d   1      29.090 -13.799   2.359  0.00  0.00     0.248 C 
ATOM      8  O   UNL d   1      29.268 -12.590   2.220  0.00  0.00    -0.271 OA
ATOM      9  N   UNL d   1      29.173 -14.460   3.583  0.00  0.00    -0.359 N 
ATOM     10  H   UNL d   1      28.937 -15.443   3.685  0.00  0.00     0.162 HD
BRANCH   9  11
ATOM     11  C   UNL d   1      29.536 -13.736   4.802  0.00  0.00     0.127 C 
BRANCH  11  12
ATOM     12  C   UNL d   1      29.058 -14.367   6.120  0.00  0.00     0.060 C 
BRANCH  12  13
ATOM     13  C   UNL d   1      28.848 -13.357   7.216  0.00  0.00    -0.029 A 
ATOM     14  C   UNL d   1      28.707 -11.986   7.094  0.00  0.00     0.096 A 
ATOM     15  N   UNL d   1      28.530 -11.448   8.342  0.00  0.00    -0.365 N 
ATOM     16  C   UNL d   1      28.611 -12.434   9.296  0.00  0.00     0.042 A 
ATOM     17  H   UNL d   1      28.391 -10.466   8.538  0.00  0.00     0.165 HD
ATOM     18  C   UNL d   1      28.545 -12.349  10.692  0.00  0.00     0.030 A 
ATOM     19  C   UNL d   1      28.795 -13.641   8.621  0.00  0.00    -0.002 A 
ATOM     20  C   UNL d   1      28.694 -13.535  11.419  0.00  0.00     0.002 A 
ATOM     21  C   UNL d   1      28.869 -14.757  10.772  0.00  0.00     0.001 A 
ATOM     22  C   UNL d   1      28.909 -14.825   9.376  0.00  0.00     0.014 A 
ENDBRANCH  12  13
ENDBRANCH  11  12
ENDBRANCH   9  11
ENDBRANCH   3   7
BRANCH   4  23
ATOM     23  C   UNL d   1      30.947 -15.295  -0.143  0.00  0.00     0.270 C 
BRANCH  23  24
ATOM     24  C   UNL d   1      30.957 -15.686  -1.601  0.00  0.00    -0.058 C 
ATOM     25  C   UNL d   1      32.238 -16.137  -2.158  0.00  0.00     0.045 C 
ATOM     26  C   UNL d   1      29.954 -15.584  -2.494  0.00  0.00     0.015 C 
BRANCH  26  27
ATOM     27  C   UNL d   1      30.127 -16.063  -3.894  0.00  0.00    -0.036 A 
ATOM     28  C   UNL d   1      30.253 -15.156  -4.938  0.00  0.00     0.011 A 
ATOM     29  C   UNL d   1      30.336 -15.625  -6.254  0.00  0.00     0.001 A 
ATOM     30  C   UNL d   1      30.449 -16.990  -6.528  0.00  0.00     0.000 A 
ATOM     31  C   UNL d   1      30.405 -17.906  -5.493  0.00  0.00     0.001 A 
ATOM     32  C   UNL d   1      30.170 -17.442  -4.206  0.00  0.00     0.011 A 
ENDBRANCH  26  27
ENDBRANCH  23  24
ENDBRANCH   4  23
BRANCH   1  33
ATOM     33  N   UNL d   1      26.537 -16.315  -0.904  0.00  0.00    -0.297 N 
ATOM     34  C   UNL d   1      26.898 -15.635  -2.070  0.00  0.00     0.143 C 
ATOM     35  C   UNL d   1      26.025 -15.913  -3.059  0.00  0.00     0.137 C 
ATOM     36  N   UNL d   1      25.145 -16.859  -2.585  0.00  0.00    -0.297 N 
ATOM     37  N   UNL d   1      25.273 -16.938  -1.210  0.00  0.00    -0.146 NA
ATOM     38  H   UNL d   1      24.357 -17.209  -3.128  0.00  0.00     0.183 HD
ATOM     39  H   UNL d   1      24.549 -16.281  -0.873  0.00  0.00     0.173 HD
BRANCH  35  40
ATOM     40  C   UNL d   1      25.905 -15.319  -4.402  0.00  0.00     0.312 C 
ATOM     41  O   UNL d   1      26.700 -15.562  -5.314  0.00  0.00    -0.258 OA
BRANCH  40  42
ATOM     42  O   UNL d   1      24.858 -14.471  -4.454  0.00  0.00    -0.321 OA
ATOM     43  C   UNL d   1      25.161 -13.138  -4.031  0.00  0.00     0.213 C 
ENDBRANCH  40  42
ENDBRANCH  35  40
ENDBRANCH   1  33
TORSDOF 10
ENDMDL
MODEL 7
REMARK VINA RESULT:    -9.869      2.919      8.561
REMARK INTER + INTRA:         -15.546
REMARK INTER:                 -12.852
REMARK INTRA:                  -2.694
REMARK CONF_INDEPENDENT:        2.983
REMARK UNBOUND:                -2.694
REMARK  10 active torsions:
REMARK  status: ('A' for Active; 'I' for Inactive)
REMARK    1  A    between atoms: O_2  and  C_3 
REMARK    2  A    between atoms: C_3  and  C_5 
REMARK    3  A    between atoms: N_7  and  C_8 
REMARK    4  A    between atoms: C_10  and  C_11 
REMARK       I    between atoms: C_11  and  N_13 
REMARK    5  A    between atoms: N_13  and  C_14 
REMARK    6  A    between atoms: C_14  and  C_15 
REMARK    7  A    between atoms: C_15  and  C_16 
REMARK    8  A    between atoms: N_25  and  C_26 
REMARK    9  A    between atoms: C_26  and  C_27 
REMARK   10  A    between atoms: C_29  and  C_30 
ROOT
ATOM      1  C   UNL d   1      26.281 -17.160  -0.996  0.00  0.00     0.132 C 
ATOM      2  C   UNL d   1      27.222 -16.912   0.197  0.00  0.00     0.072 C 
ATOM      3  C   UNL d   1      27.288 -15.411   0.464  0.00  0.00     0.281 C 
ATOM      4  N   UNL d   1      27.161 -14.792  -0.995  0.00  0.00    -0.053 N 
ATOM      5  C   UNL d   1      26.400 -15.867  -1.866  0.00  0.00     0.263 C 
ATOM      6  H   UNL d   1      28.131 -14.713  -1.342  0.00  0.00     0.281 HD
ENDROOT
BRANCH   3   7
ATOM      7  C   UNL d   1      28.502 -14.954   1.300  0.00  0.00     0.248 C 
ATOM      8  O   UNL d   1      29.562 -14.674   0.744  0.00  0.00    -0.271 OA
ATOM      9  N   UNL d   1      28.288 -14.830   2.671  0.00  0.00    -0.359 N 
ATOM     10  H   UNL d   1      27.377 -14.985   3.094  0.00  0.00     0.162 HD
BRANCH   9  11
ATOM     11  C   UNL d   1      29.365 -14.392   3.560  0.00  0.00     0.127 C 
BRANCH  11  12
ATOM     12  C   UNL d   1      29.210 -14.784   5.038  0.00  0.00     0.060 C 
BRANCH  12  13
ATOM     13  C   UNL d   1      28.675 -13.667   5.893  0.00  0.00    -0.029 A 
ATOM     14  C   UNL d   1      27.808 -12.654   5.523  0.00  0.00     0.096 A 
ATOM     15  N   UNL d   1      27.575 -11.854   6.611  0.00  0.00    -0.365 N 
ATOM     16  C   UNL d   1      28.320 -12.285   7.682  0.00  0.00     0.042 A 
ATOM     17  H   UNL d   1      26.969 -11.045   6.620  0.00  0.00     0.165 HD
ATOM     18  C   UNL d   1      28.445 -11.752   8.971  0.00  0.00     0.030 A 
ATOM     19  C   UNL d   1      29.008 -13.427   7.267  0.00  0.00    -0.002 A 
ATOM     20  C   UNL d   1      29.317 -12.397   9.854  0.00  0.00     0.002 A 
ATOM     21  C   UNL d   1      30.009 -13.544   9.472  0.00  0.00     0.001 A 
ATOM     22  C   UNL d   1      29.854 -14.075   8.188  0.00  0.00     0.014 A 
ENDBRANCH  12  13
ENDBRANCH  11  12
ENDBRANCH   9  11
ENDBRANCH   3   7
BRANCH   4  23
ATOM     23  C   UNL d   1      26.609 -13.348  -1.106  0.00  0.00     0.270 C 
BRANCH  23  24
ATOM     24  C   UNL d   1      27.032 -12.383  -0.026  0.00  0.00    -0.058 C 
ATOM     25  C   UNL d   1      28.090 -11.425  -0.370  0.00  0.00     0.045 C 
ATOM     26  C   UNL d   1      26.630 -12.346   1.259  0.00  0.00     0.015 C 
BRANCH  26  27
ATOM     27  C   UNL d   1      27.122 -11.287   2.183  0.00  0.00    -0.036 A 
ATOM     28  C   UNL d   1      28.441 -11.291   2.620  0.00  0.00     0.011 A 
ATOM     29  C   UNL d   1      28.864 -10.334   3.548  0.00  0.00     0.001 A 
ATOM     30  C   UNL d   1      28.029  -9.280   3.930  0.00  0.00     0.000 A 
ATOM     31  C   UNL d   1      26.737  -9.215   3.445  0.00  0.00     0.001 A 
ATOM     32  C   UNL d   1      26.276 -10.252   2.643  0.00  0.00     0.011 A 
ENDBRANCH  26  27
ENDBRANCH  23  24
ENDBRANCH   4  23
BRANCH   1  33
ATOM     33  N   UNL d   1      24.896 -17.577  -0.602  0.00  0.00    -0.297 N 
ATOM     34  C   UNL d   1      23.700 -17.375  -1.295  0.00  0.00     0.143 C 
ATOM     35  C   UNL d   1      22.751 -18.218  -0.840  0.00  0.00     0.137 C 
ATOM     36  N   UNL d   1      23.342 -19.054   0.080  0.00  0.00    -0.297 N 
ATOM     37  N   UNL d   1      24.575 -18.531   0.430  0.00  0.00    -0.146 NA
ATOM     38  H   UNL d   1      22.827 -19.759   0.605  0.00  0.00     0.183 HD
ATOM     39  H   UNL d   1      24.356 -17.970   1.272  0.00  0.00     0.173 HD
BRANCH  35  40
ATOM     40  C   UNL d   1      21.311 -18.270  -1.150  0.00  0.00     0.312 C 
ATOM     41  O   UNL d   1      20.617 -17.257  -1.270  0.00  0.00    -0.258 OA
BRANCH  40  42
ATOM     42  O   UNL d   1      20.889 -19.548  -1.234  0.00  0.00    -0.321 OA
ATOM     43  C   UNL d   1      20.255 -20.035  -0.047  0.00  0.00     0.213 C 
ENDBRANCH  40  42
ENDBRANCH  35  40
ENDBRANCH   1  33
TORSDOF 10
ENDMDL
MODEL 8
REMARK VINA RESULT:    -9.728      3.104      9.167
REMARK INTER + INTRA:         -15.224
REMARK INTER:                 -12.711
REMARK INTRA:                  -2.512
REMARK CONF_INDEPENDENT:        2.983
REMARK UNBOUND:                -2.512
REMARK  10 active torsions:
REMARK  status: ('A' for Active; 'I' for Inactive)
REMARK    1  A    between atoms: O_2  and  C_3 
REMARK    2  A    between atoms: C_3  and  C_5 
REMARK    3  A    between atoms: N_7  and  C_8 
REMARK    4  A    between atoms: C_10  and  C_11 
REMARK       I    between atoms: C_11  and  N_13 
REMARK    5  A    between atoms: N_13  and  C_14 
REMARK    6  A    between atoms: C_14  and  C_15 
REMARK    7  A    between atoms: C_15  and  C_16 
REMARK    8  A    between atoms: N_25  and  C_26 
REMARK    9  A    between atoms: C_26  and  C_27 
REMARK   10  A    between atoms: C_29  and  C_30 
ROOT
ATOM      1  C   UNL d   1      29.793 -14.075   1.830  0.00  0.00     0.132 C 
ATOM      2  C   UNL d   1      28.726 -13.358   0.983  0.00  0.00     0.072 C 
ATOM      3  C   UNL d   1      27.990 -14.399   0.142  0.00  0.00     0.281 C 
ATOM      4  N   UNL d   1      29.132 -15.458  -0.177  0.00  0.00    -0.053 N 
ATOM      5  C   UNL d   1      30.195 -15.325   0.982  0.00  0.00     0.263 C 
ATOM      6  H   UNL d   1      29.563 -15.137  -1.059  0.00  0.00     0.281 HD
ENDROOT
BRANCH   3   7
ATOM      7  C   UNL d   1      27.226 -13.828  -1.071  0.00  0.00     0.248 C 
ATOM      8  O   UNL d   1      26.005 -13.947  -1.142  0.00  0.00    -0.271 OA
ATOM      9  N   UNL d   1      27.995 -13.141  -2.008  0.00  0.00    -0.359 N 
ATOM     10  H   UNL d   1      28.990 -12.982  -1.882  0.00  0.00     0.162 HD
BRANCH   9  11
ATOM     11  C   UNL d   1      27.375 -12.546  -3.193  0.00  0.00     0.127 C 
BRANCH  11  12
ATOM     12  C   UNL d   1      26.710 -13.534  -4.166  0.00  0.00     0.060 C 
BRANCH  12  13
ATOM     13  C   UNL d   1      27.669 -14.104  -5.176  0.00  0.00    -0.029 A 
ATOM     14  C   UNL d   1      27.813 -13.751  -6.506  0.00  0.00     0.096 A 
ATOM     15  N   UNL d   1      28.805 -14.515  -7.061  0.00  0.00    -0.365 N 
ATOM     16  C   UNL d   1      29.282 -15.413  -6.136  0.00  0.00     0.042 A 
ATOM     17  H   UNL d   1      29.121 -14.452  -8.019  0.00  0.00     0.165 HD
ATOM     18  C   UNL d   1      30.248 -16.418  -6.265  0.00  0.00     0.030 A 
ATOM     19  C   UNL d   1      28.599 -15.170  -4.943  0.00  0.00    -0.002 A 
ATOM     20  C   UNL d   1      30.507 -17.212  -5.143  0.00  0.00     0.002 A 
ATOM     21  C   UNL d   1      29.850 -16.987  -3.935  0.00  0.00     0.001 A 
ATOM     22  C   UNL d   1      28.905 -15.963  -3.819  0.00  0.00     0.014 A 
ENDBRANCH  12  13
ENDBRANCH  11  12
ENDBRANCH   9  11
ENDBRANCH   3   7
BRANCH   4  23
ATOM     23  C   UNL d   1      28.683 -16.908  -0.491  0.00  0.00     0.270 C 
BRANCH  23  24
ATOM     24  C   UNL d   1      27.212 -17.206  -0.327  0.00  0.00    -0.058 C 
ATOM     25  C   UNL d   1      26.796 -17.817   0.941  0.00  0.00     0.045 C 
ATOM     26  C   UNL d   1      26.231 -17.071  -1.241  0.00  0.00     0.015 C 
BRANCH  26  27
ATOM     27  C   UNL d   1      24.816 -17.372  -0.892  0.00  0.00    -0.036 A 
ATOM     28  C   UNL d   1      23.853 -16.371  -0.926  0.00  0.00     0.011 A 
ATOM     29  C   UNL d   1      22.545 -16.657  -0.520  0.00  0.00     0.001 A 
ATOM     30  C   UNL d   1      22.149 -17.964  -0.227  0.00  0.00     0.000 A 
ATOM     31  C   UNL d   1      23.076 -18.989  -0.264  0.00  0.00     0.001 A 
ATOM     32  C   UNL d   1      24.404 -18.673  -0.520  0.00  0.00     0.011 A 
ENDBRANCH  26  27
ENDBRANCH  23  24
ENDBRANCH   4  23
BRANCH   1  33
ATOM     33  N   UNL d   1      29.372 -14.333   3.246  0.00  0.00    -0.297 N 
ATOM     34  C   UNL d   1      29.910 -13.799   4.421  0.00  0.00     0.143 C 
ATOM     35  C   UNL d   1      29.037 -13.944   5.438  0.00  0.00     0.137 C 
ATOM     36  N   UNL d   1      27.878 -14.476   4.921  0.00  0.00    -0.297 N 
ATOM     37  N   UNL d   1      28.136 -14.955   3.649  0.00  0.00    -0.146 NA
ATOM     38  H   UNL d   1      27.073 -14.724   5.495  0.00  0.00     0.183 HD
ATOM     39  H   UNL d   1      28.365 -15.949   3.818  0.00  0.00     0.173 HD
BRANCH  35  40
ATOM     40  C   UNL d   1      29.219 -13.682   6.877  0.00  0.00     0.312 C 
ATOM     41  O   UNL d   1      30.172 -14.126   7.522  0.00  0.00    -0.258 OA
BRANCH  40  42
ATOM     42  O   UNL d   1      28.195 -12.947   7.358  0.00  0.00    -0.321 OA
ATOM     43  C   UNL d   1      28.533 -11.586   7.640  0.00  0.00     0.213 C 
ENDBRANCH  40  42
ENDBRANCH  35  40
ENDBRANCH   1  33
TORSDOF 10
ENDMDL
MODEL 9
REMARK VINA RESULT:    -9.644      4.666      8.038
REMARK INTER + INTRA:         -15.382
REMARK INTER:                 -12.627
REMARK INTRA:                  -2.755
REMARK CONF_INDEPENDENT:        2.983
REMARK UNBOUND:                -2.755
REMARK  10 active torsions:
REMARK  status: ('A' for Active; 'I' for Inactive)
REMARK    1  A    between atoms: O_2  and  C_3 
REMARK    2  A    between atoms: C_3  and  C_5 
REMARK    3  A    between atoms: N_7  and  C_8 
REMARK    4  A    between atoms: C_10  and  C_11 
REMARK       I    between atoms: C_11  and  N_13 
REMARK    5  A    between atoms: N_13  and  C_14 
REMARK    6  A    between atoms: C_14  and  C_15 
REMARK    7  A    between atoms: C_15  and  C_16 
REMARK    8  A    between atoms: N_25  and  C_26 
REMARK    9  A    between atoms: C_26  and  C_27 
REMARK   10  A    between atoms: C_29  and  C_30 
ROOT
ATOM      1  C   UNL d   1      28.034 -16.044   0.104  0.00  0.00     0.132 C 
ATOM      2  C   UNL d   1      27.406 -15.696   1.466  0.00  0.00     0.072 C 
ATOM      3  C   UNL d   1      28.164 -14.514   2.065  0.00  0.00     0.281 C 
ATOM      4  N   UNL d   1      29.651 -14.763   1.560  0.00  0.00    -0.053 N 
ATOM      5  C   UNL d   1      29.532 -15.622   0.241  0.00  0.00     0.263 C 
ATOM      6  H   UNL d   1      30.094 -15.342   2.292  0.00  0.00     0.281 HD
ENDROOT
BRANCH   3   7
ATOM      7  C   UNL d   1      27.978 -14.329   3.586  0.00  0.00     0.248 C 
ATOM      8  O   UNL d   1      27.000 -13.723   4.018  0.00  0.00    -0.271 OA
ATOM      9  N   UNL d   1      28.937 -14.934   4.396  0.00  0.00    -0.359 N 
ATOM     10  H   UNL d   1      29.688 -15.503   4.015  0.00  0.00     0.162 HD
BRANCH   9  11
ATOM     11  C   UNL d   1      28.855 -14.836   5.854  0.00  0.00     0.127 C 
BRANCH  11  12
ATOM     12  C   UNL d   1      29.820 -13.835   6.510  0.00  0.00     0.060 C 
BRANCH  12  13
ATOM     13  C   UNL d   1      29.204 -13.091   7.665  0.00  0.00    -0.029 A 
ATOM     14  C   UNL d   1      28.729 -11.792   7.683  0.00  0.00     0.096 A 
ATOM     15  N   UNL d   1      28.246 -11.516   8.935  0.00  0.00    -0.365 N 
ATOM     16  C   UNL d   1      28.448 -12.592   9.766  0.00  0.00     0.042 A 
ATOM     17  H   UNL d   1      27.830 -10.639   9.219  0.00  0.00     0.165 HD
ATOM     18  C   UNL d   1      28.170 -12.747  11.130  0.00  0.00     0.030 A 
ATOM     19  C   UNL d   1      29.034 -13.598   8.995  0.00  0.00    -0.002 A 
ATOM     20  C   UNL d   1      28.522 -13.962  11.726  0.00  0.00     0.002 A 
ATOM     21  C   UNL d   1      29.097 -14.989  10.980  0.00  0.00     0.001 A 
ATOM     22  C   UNL d   1      29.346 -14.824   9.614  0.00  0.00     0.014 A 
ENDBRANCH  12  13
ENDBRANCH  11  12
ENDBRANCH   9  11
ENDBRANCH   3   7
BRANCH   4  23
ATOM     23  C   UNL d   1      30.578 -13.525   1.455  0.00  0.00     0.270 C 
BRANCH  23  24
ATOM     24  C   UNL d   1      30.240 -12.355   2.346  0.00  0.00    -0.058 C 
ATOM     25  C   UNL d   1      29.848 -11.107   1.682  0.00  0.00     0.045 C 
ATOM     26  C   UNL d   1      30.344 -12.276   3.687  0.00  0.00     0.015 C 
BRANCH  26  27
ATOM     27  C   UNL d   1      29.921 -11.047   4.414  0.00  0.00    -0.036 A 
ATOM     28  C   UNL d   1      30.862 -10.244   5.046  0.00  0.00     0.011 A 
ATOM     29  C   UNL d   1      30.437  -9.137   5.790  0.00  0.00     0.001 A 
ATOM     30  C   UNL d   1      29.099  -8.734   5.783  0.00  0.00     0.000 A 
ATOM     31  C   UNL d   1      28.159  -9.477   5.094  0.00  0.00     0.001 A 
ATOM     32  C   UNL d   1      28.564 -10.658   4.485  0.00  0.00     0.011 A 
ENDBRANCH  26  27
ENDBRANCH  23  24
ENDBRANCH   4  23
BRANCH   1  33
ATOM     33  N   UNL d   1      27.285 -15.487  -1.071  0.00  0.00    -0.297 N 
ATOM     34  C   UNL d   1      27.573 -15.633  -2.430  0.00  0.00     0.143 C 
ATOM     35  C   UNL d   1      26.484 -15.343  -3.169  0.00  0.00     0.137 C 
ATOM     36  N   UNL d   1      25.442 -15.106  -2.302  0.00  0.00    -0.297 N 
ATOM     37  N   UNL d   1      25.952 -14.940  -1.026  0.00  0.00    -0.146 NA
ATOM     38  H   UNL d   1      24.513 -14.821  -2.609  0.00  0.00     0.183 HD
ATOM     39  H   UNL d   1      26.073 -13.915  -0.958  0.00  0.00     0.173 HD
BRANCH  35  40
ATOM     40  C   UNL d   1      26.348 -15.204  -4.630  0.00  0.00     0.312 C 
ATOM     41  O   UNL d   1      27.220 -15.575  -5.420  0.00  0.00    -0.258 OA
BRANCH  40  42
ATOM     42  O   UNL d   1      25.186 -14.596  -4.943  0.00  0.00    -0.321 OA
ATOM     43  C   UNL d   1      25.153 -13.200  -4.632  0.00  0.00     0.213 C 
ENDBRANCH  40  42
ENDBRANCH  35  40
ENDBRANCH   1  33
TORSDOF 10
ENDMDL
