MODEL 1
REMARK VINA RESULT:    -8.407      0.000      0.000
REMARK INTER + INTRA:         -11.236
REMARK INTER:                  -9.899
REMARK INTRA:                  -1.337
REMARK CONF_INDEPENDENT:        1.492
REMARK UNBOUND:                -1.337
REMARK  5 active torsions:
REMARK  status: ('A' for Active; 'I' for Inactive)
REMARK    1  A    between atoms: C_2  and  C_4 
REMARK    2  A    between atoms: C_4  and  C_5 
REMARK    3  A    between atoms: C_5  and  C_6 
REMARK       I    between atoms: C_6  and  N_8 
REMARK    4  A    between atoms: N_8  and  N_9 
REMARK       I    between atoms: N_9  and  C_10 
REMARK    5  A    between atoms: C_10  and  C_12 
ROOT
ATOM      1  N   UNL d   1      23.173 -17.779  -0.550  0.00  0.00    -0.263 N 
ATOM      2  C   UNL d   1      24.552 -17.823  -0.448  0.00  0.00     0.270 C 
ATOM      3  O   UNL d   1      25.168 -18.814  -0.053  0.00  0.00    -0.266 OA
ATOM      4  H   UNL d   1      22.666 -17.017  -1.002  0.00  0.00     0.190 HD
ENDROOT
BRANCH   2   5
ATOM      5  C   UNL d   1      25.296 -16.610  -0.908  0.00  0.00     0.035 A 
ATOM      6  C   UNL d   1      26.386 -16.172  -0.143  0.00  0.00     0.018 A 
ATOM      7  C   UNL d   1      27.146 -15.072  -0.552  0.00  0.00     0.022 A 
ATOM      8  C   UNL d   1      26.807 -14.379  -1.715  0.00  0.00     0.027 A 
ATOM      9  C   UNL d   1      25.696 -14.791  -2.473  0.00  0.00     0.052 A 
ATOM     10  S   UNL d   1      27.834 -13.013  -2.223  0.00  0.00    -0.118 SA
ATOM     11  C   UNL d   1      24.936 -15.902  -2.067  0.00  0.00     0.048 A 
ATOM     12  N   UNL d   1      25.349 -14.129  -3.669  0.00  0.00    -0.325 N 
ATOM     13  C   UNL d   1      25.805 -12.887  -4.052  0.00  0.00     0.231 C 
ATOM     14  H   UNL d   1      24.757 -14.591  -4.347  0.00  0.00     0.169 HD
ATOM     15  O   UNL d   1      25.523 -12.439  -5.164  0.00  0.00    -0.272 OA
ATOM     16  C   UNL d   1      26.520 -12.057  -3.007  0.00  0.00     0.182 C 
ENDBRANCH   2   5
BRANCH   1  17
ATOM     17  N   UNL d   1      22.403 -18.933  -0.256  0.00  0.00    -0.267 N 
ATOM     18  C   UNL d   1      21.069 -18.942  -0.631  0.00  0.00     0.236 C 
ATOM     19  O   UNL d   1      20.565 -17.999  -1.240  0.00  0.00    -0.272 OA
ATOM     20  H   UNL d   1      22.876 -19.697   0.226  0.00  0.00     0.190 HD
BRANCH  18  21
ATOM     21  C   UNL d   1      20.291 -20.196  -0.242  0.00  0.00     0.105 C 
BRANCH  21  22
ATOM     22  C   UNL d   1      18.836 -19.876   0.149  0.00  0.00     0.013 C 
BRANCH  22  23
ATOM     23  C   UNL d   1      18.394 -20.486   1.494  0.00  0.00    -0.022 C 
ATOM     24  C   UNL d   1      17.941 -21.938   1.300  0.00  0.00     0.009 C 
ATOM     25  C   UNL d   1      19.522 -20.447   2.525  0.00  0.00     0.009 C 
ENDBRANCH  22  23
ENDBRANCH  21  22
ENDBRANCH  18  21
ENDBRANCH   1  17
TORSDOF 5
ENDMDL
MODEL 2
REMARK VINA RESULT:    -8.153      2.682      3.632
REMARK INTER + INTRA:         -10.386
REMARK INTER:                  -9.644
REMARK INTRA:                  -0.742
REMARK CONF_INDEPENDENT:        1.492
REMARK UNBOUND:                -0.742
REMARK  5 active torsions:
REMARK  status: ('A' for Active; 'I' for Inactive)
REMARK    1  A    between atoms: C_2  and  C_4 
REMARK    2  A    between atoms: C_4  and  C_5 
REMARK    3  A    between atoms: C_5  and  C_6 
REMARK       I    between atoms: C_6  and  N_8 
REMARK    4  A    between atoms: N_8  and  N_9 
REMARK       I    between atoms: N_9  and  C_10 
REMARK    5  A    between atoms: C_10  and  C_12 
ROOT
ATOM      1  N   UNL d   1      23.365 -17.198  -0.500  0.00  0.00    -0.263 N 
ATOM      2  C   UNL d   1      24.564 -17.680  -0.006  0.00  0.00     0.270 C 
ATOM      3  O   UNL d   1      24.638 -18.479   0.928  0.00  0.00    -0.266 OA
ATOM      4  H   UNL d   1      23.289 -16.647  -1.354  0.00  0.00     0.190 HD
ENDROOT
BRANCH   2   5
ATOM      5  C   UNL d   1      25.805 -17.231  -0.709  0.00  0.00     0.035 A 
ATOM      6  C   UNL d   1      25.667 -16.409  -1.837  0.00  0.00     0.018 A 
ATOM      7  C   UNL d   1      26.795 -15.921  -2.504  0.00  0.00     0.022 A 
ATOM      8  C   UNL d   1      28.073 -16.272  -2.069  0.00  0.00     0.027 A 
ATOM      9  C   UNL d   1      28.223 -17.122  -0.959  0.00  0.00     0.052 A 
ATOM     10  S   UNL d   1      29.481 -15.586  -2.921  0.00  0.00    -0.118 SA
ATOM     11  C   UNL d   1      27.090 -17.607  -0.282  0.00  0.00     0.048 A 
ATOM     12  N   UNL d   1      29.503 -17.468  -0.479  0.00  0.00    -0.325 N 
ATOM     13  C   UNL d   1      30.682 -17.311  -1.172  0.00  0.00     0.231 C 
ATOM     14  H   UNL d   1      29.610 -17.821   0.464  0.00  0.00     0.169 HD
ATOM     15  O   UNL d   1      31.759 -17.551  -0.626  0.00  0.00    -0.272 OA
ATOM     16  C   UNL d   1      30.582 -16.989  -2.649  0.00  0.00     0.182 C 
ENDBRANCH   2   5
BRANCH   1  17
ATOM     17  N   UNL d   1      22.138 -17.677   0.028  0.00  0.00    -0.267 N 
ATOM     18  C   UNL d   1      21.427 -18.608  -0.713  0.00  0.00     0.236 C 
ATOM     19  O   UNL d   1      21.857 -19.047  -1.780  0.00  0.00    -0.272 OA
ATOM     20  H   UNL d   1      21.841 -17.302   0.928  0.00  0.00     0.190 HD
BRANCH  18  21
ATOM     21  C   UNL d   1      20.096 -19.044  -0.106  0.00  0.00     0.105 C 
BRANCH  21  22
ATOM     22  C   UNL d   1      19.919 -20.574  -0.143  0.00  0.00     0.013 C 
BRANCH  22  23
ATOM     23  C   UNL d   1      19.102 -21.143   1.035  0.00  0.00    -0.022 C 
ATOM     24  C   UNL d   1      18.985 -20.105   2.157  0.00  0.00     0.009 C 
ATOM     25  C   UNL d   1      17.700 -21.563   0.594  0.00  0.00     0.009 C 
ENDBRANCH  22  23
ENDBRANCH  21  22
ENDBRANCH  18  21
ENDBRANCH   1  17
TORSDOF 5
ENDMDL
MODEL 3
REMARK VINA RESULT:    -8.050      2.011      2.354
REMARK INTER + INTRA:         -10.168
REMARK INTER:                  -9.541
REMARK INTRA:                  -0.627
REMARK CONF_INDEPENDENT:        1.492
REMARK UNBOUND:                -0.627
REMARK  5 active torsions:
REMARK  status: ('A' for Active; 'I' for Inactive)
REMARK    1  A    between atoms: C_2  and  C_4 
REMARK    2  A    between atoms: C_4  and  C_5 
REMARK    3  A    between atoms: C_5  and  C_6 
REMARK       I    between atoms: C_6  and  N_8 
REMARK    4  A    between atoms: N_8  and  N_9 
REMARK       I    between atoms: N_9  and  C_10 
REMARK    5  A    between atoms: C_10  and  C_12 
ROOT
ATOM      1  N   UNL d   1      23.360 -18.656   0.208  0.00  0.00    -0.263 N 
ATOM      2  C   UNL d   1      24.018 -18.042  -0.843  0.00  0.00     0.270 C 
ATOM      3  O   UNL d   1      23.649 -18.131  -2.015  0.00  0.00    -0.266 OA
ATOM      4  H   UNL d   1      23.577 -18.477   1.189  0.00  0.00     0.190 HD
ENDROOT
BRANCH   2   5
ATOM      5  C   UNL d   1      25.193 -17.188  -0.489  0.00  0.00     0.035 A 
ATOM      6  C   UNL d   1      26.220 -17.759   0.277  0.00  0.00     0.018 A 
ATOM      7  C   UNL d   1      27.364 -17.022   0.596  0.00  0.00     0.022 A 
ATOM      8  C   UNL d   1      27.481 -15.696   0.180  0.00  0.00     0.027 A 
ATOM      9  C   UNL d   1      26.444 -15.103  -0.562  0.00  0.00     0.052 A 
ATOM     10  S   UNL d   1      28.980 -14.810   0.569  0.00  0.00    -0.118 SA
ATOM     11  C   UNL d   1      25.297 -15.846  -0.891  0.00  0.00     0.048 A 
ATOM     12  N   UNL d   1      26.550 -13.774  -1.023  0.00  0.00    -0.325 N 
ATOM     13  C   UNL d   1      27.456 -12.843  -0.566  0.00  0.00     0.231 C 
ATOM     14  H   UNL d   1      25.961 -13.455  -1.782  0.00  0.00     0.169 HD
ATOM     15  O   UNL d   1      27.535 -11.739  -1.104  0.00  0.00    -0.272 OA
ATOM     16  C   UNL d   1      28.219 -13.179   0.698  0.00  0.00     0.182 C 
ENDBRANCH   2   5
BRANCH   1  17
ATOM     17  N   UNL d   1      22.162 -19.376  -0.030  0.00  0.00    -0.267 N 
ATOM     18  C   UNL d   1      21.090 -18.695  -0.586  0.00  0.00     0.236 C 
ATOM     19  O   UNL d   1      21.176 -17.510  -0.907  0.00  0.00    -0.272 OA
ATOM     20  H   UNL d   1      22.152 -20.362   0.229  0.00  0.00     0.190 HD
BRANCH  18  21
ATOM     21  C   UNL d   1      19.819 -19.520  -0.772  0.00  0.00     0.105 C 
BRANCH  21  22
ATOM     22  C   UNL d   1      19.872 -20.847   0.009  0.00  0.00     0.013 C 
BRANCH  22  23
ATOM     23  C   UNL d   1      18.990 -20.871   1.274  0.00  0.00    -0.022 C 
ATOM     24  C   UNL d   1      18.714 -19.444   1.762  0.00  0.00     0.009 C 
ATOM     25  C   UNL d   1      17.659 -21.577   1.015  0.00  0.00     0.009 C 
ENDBRANCH  22  23
ENDBRANCH  21  22
ENDBRANCH  18  21
ENDBRANCH   1  17
TORSDOF 5
ENDMDL
MODEL 4
REMARK VINA RESULT:    -7.936      1.786      2.167
REMARK INTER + INTRA:         -10.703
REMARK INTER:                  -9.427
REMARK INTRA:                  -1.276
REMARK CONF_INDEPENDENT:        1.492
REMARK UNBOUND:                -1.276
REMARK  5 active torsions:
REMARK  status: ('A' for Active; 'I' for Inactive)
REMARK    1  A    between atoms: C_2  and  C_4 
REMARK    2  A    between atoms: C_4  and  C_5 
REMARK    3  A    between atoms: C_5  and  C_6 
REMARK       I    between atoms: C_6  and  N_8 
REMARK    4  A    between atoms: N_8  and  N_9 
REMARK       I    between atoms: N_9  and  C_10 
REMARK    5  A    between atoms: C_10  and  C_12 
ROOT
ATOM      1  N   UNL d   1      23.780 -16.828  -1.535  0.00  0.00    -0.263 N 
ATOM      2  C   UNL d   1      24.763 -15.914  -1.196  0.00  0.00     0.270 C 
ATOM      3  O   UNL d   1      25.026 -15.606  -0.033  0.00  0.00    -0.266 OA
ATOM      4  H   UNL d   1      23.650 -17.188  -2.480  0.00  0.00     0.190 HD
ENDROOT
BRANCH   2   5
ATOM      5  C   UNL d   1      25.562 -15.342  -2.323  0.00  0.00     0.035 A 
ATOM      6  C   UNL d   1      26.782 -15.951  -2.646  0.00  0.00     0.018 A 
ATOM      7  C   UNL d   1      27.547 -15.486  -3.720  0.00  0.00     0.022 A 
ATOM      8  C   UNL d   1      27.115 -14.389  -4.465  0.00  0.00     0.027 A 
ATOM      9  C   UNL d   1      25.907 -13.750  -4.130  0.00  0.00     0.052 A 
ATOM     10  S   UNL d   1      28.098 -13.863  -5.857  0.00  0.00    -0.118 SA
ATOM     11  C   UNL d   1      25.134 -14.222  -3.055  0.00  0.00     0.048 A 
ATOM     12  N   UNL d   1      25.430 -12.659  -4.886  0.00  0.00    -0.325 N 
ATOM     13  C   UNL d   1      26.179 -11.917  -5.771  0.00  0.00     0.231 C 
ATOM     14  H   UNL d   1      24.454 -12.399  -4.834  0.00  0.00     0.169 HD
ATOM     15  O   UNL d   1      25.644 -11.047  -6.458  0.00  0.00    -0.272 OA
ATOM     16  C   UNL d   1      27.681 -12.112  -5.745  0.00  0.00     0.182 C 
ENDBRANCH   2   5
BRANCH   1  17
ATOM     17  N   UNL d   1      23.067 -17.511  -0.517  0.00  0.00    -0.267 N 
ATOM     18  C   UNL d   1      22.352 -18.645  -0.869  0.00  0.00     0.236 C 
ATOM     19  O   UNL d   1      22.362 -19.082  -2.021  0.00  0.00    -0.272 OA
ATOM     20  H   UNL d   1      23.113 -17.123   0.424  0.00  0.00     0.190 HD
BRANCH  18  21
ATOM     21  C   UNL d   1      21.572 -19.302   0.266  0.00  0.00     0.105 C 
BRANCH  21  22
ATOM     22  C   UNL d   1      20.189 -19.800  -0.196  0.00  0.00     0.013 C 
BRANCH  22  23
ATOM     23  C   UNL d   1      19.162 -19.957   0.943  0.00  0.00    -0.022 C 
ATOM     24  C   UNL d   1      18.290 -21.196   0.711  0.00  0.00     0.009 C 
ATOM     25  C   UNL d   1      19.847 -20.075   2.304  0.00  0.00     0.009 C 
ENDBRANCH  22  23
ENDBRANCH  21  22
ENDBRANCH  18  21
ENDBRANCH   1  17
TORSDOF 5
ENDMDL
MODEL 5
REMARK VINA RESULT:    -7.601      2.008      2.451
REMARK INTER + INTRA:         -10.414
REMARK INTER:                  -9.093
REMARK INTRA:                  -1.321
REMARK CONF_INDEPENDENT:        1.492
REMARK UNBOUND:                -1.321
REMARK  5 active torsions:
REMARK  status: ('A' for Active; 'I' for Inactive)
REMARK    1  A    between atoms: C_2  and  C_4 
REMARK    2  A    between atoms: C_4  and  C_5 
REMARK    3  A    between atoms: C_5  and  C_6 
REMARK       I    between atoms: C_6  and  N_8 
REMARK    4  A    between atoms: N_8  and  N_9 
REMARK       I    between atoms: N_9  and  C_10 
REMARK    5  A    between atoms: C_10  and  C_12 
ROOT
ATOM      1  N   UNL d   1      23.329 -17.854  -0.705  0.00  0.00    -0.263 N 
ATOM      2  C   UNL d   1      24.676 -17.832  -0.387  0.00  0.00     0.270 C 
ATOM      3  O   UNL d   1      25.222 -18.695   0.300  0.00  0.00    -0.266 OA
ATOM      4  H   UNL d   1      22.900 -17.223  -1.381  0.00  0.00     0.190 HD
ENDROOT
BRANCH   2   5
ATOM      5  C   UNL d   1      25.484 -16.720  -0.977  0.00  0.00     0.035 A 
ATOM      6  C   UNL d   1      24.929 -15.989  -2.037  0.00  0.00     0.018 A 
ATOM      7  C   UNL d   1      25.620 -14.909  -2.595  0.00  0.00     0.022 A 
ATOM      8  C   UNL d   1      26.886 -14.567  -2.120  0.00  0.00     0.027 A 
ATOM      9  C   UNL d   1      27.466 -15.314  -1.079  0.00  0.00     0.052 A 
ATOM     10  S   UNL d   1      27.709 -13.152  -2.829  0.00  0.00    -0.118 SA
ATOM     11  C   UNL d   1      26.768 -16.394  -0.512  0.00  0.00     0.048 A 
ATOM     12  N   UNL d   1      28.731 -14.971  -0.558  0.00  0.00    -0.325 N 
ATOM     13  C   UNL d   1      29.644 -14.139  -1.167  0.00  0.00     0.231 C 
ATOM     14  H   UNL d   1      29.008 -15.306   0.356  0.00  0.00     0.169 HD
ATOM     15  O   UNL d   1      30.680 -13.821  -0.583  0.00  0.00    -0.272 OA
ATOM     16  C   UNL d   1      29.390 -13.771  -2.614  0.00  0.00     0.182 C 
ENDBRANCH   2   5
BRANCH   1  17
ATOM     17  N   UNL d   1      22.522 -18.945  -0.291  0.00  0.00    -0.267 N 
ATOM     18  C   UNL d   1      21.174 -18.917  -0.610  0.00  0.00     0.236 C 
ATOM     19  O   UNL d   1      20.686 -18.000  -1.270  0.00  0.00    -0.272 OA
ATOM     20  H   UNL d   1      22.981 -19.692   0.229  0.00  0.00     0.190 HD
BRANCH  18  21
ATOM     21  C   UNL d   1      20.358 -20.100  -0.094  0.00  0.00     0.105 C 
BRANCH  21  22
ATOM     22  C   UNL d   1      18.902 -19.705   0.218  0.00  0.00     0.013 C 
BRANCH  22  23
ATOM     23  C   UNL d   1      18.271 -20.489   1.386  0.00  0.00    -0.022 C 
ATOM     24  C   UNL d   1      18.034 -21.949   0.985  0.00  0.00     0.009 C 
ATOM     25  C   UNL d   1      19.157 -20.450   2.631  0.00  0.00     0.009 C 
ENDBRANCH  22  23
ENDBRANCH  21  22
ENDBRANCH  18  21
ENDBRANCH   1  17
TORSDOF 5
ENDMDL
MODEL 6
REMARK VINA RESULT:    -7.584      1.936      2.346
REMARK INTER + INTRA:         -10.388
REMARK INTER:                  -9.075
REMARK INTRA:                  -1.313
REMARK CONF_INDEPENDENT:        1.492
REMARK UNBOUND:                -1.313
REMARK  5 active torsions:
REMARK  status: ('A' for Active; 'I' for Inactive)
REMARK    1  A    between atoms: C_2  and  C_4 
REMARK    2  A    between atoms: C_4  and  C_5 
REMARK    3  A    between atoms: C_5  and  C_6 
REMARK       I    between atoms: C_6  and  N_8 
REMARK    4  A    between atoms: N_8  and  N_9 
REMARK       I    between atoms: N_9  and  C_10 
REMARK    5  A    between atoms: C_10  and  C_12 
ROOT
ATOM      1  N   UNL d   1      23.499 -17.143  -1.289  0.00  0.00    -0.263 N 
ATOM      2  C   UNL d   1      24.862 -16.906  -1.301  0.00  0.00     0.270 C 
ATOM      3  O   UNL d   1      25.662 -17.526  -0.599  0.00  0.00    -0.266 OA
ATOM      4  H   UNL d   1      22.850 -16.733  -1.961  0.00  0.00     0.190 HD
ENDROOT
BRANCH   2   5
ATOM      5  C   UNL d   1      25.353 -15.880  -2.272  0.00  0.00     0.035 A 
ATOM      6  C   UNL d   1      24.499 -14.818  -2.603  0.00  0.00     0.018 A 
ATOM      7  C   UNL d   1      24.925 -13.806  -3.468  0.00  0.00     0.022 A 
ATOM      8  C   UNL d   1      26.198 -13.859  -4.036  0.00  0.00     0.027 A 
ATOM      9  C   UNL d   1      27.051 -14.936  -3.736  0.00  0.00     0.052 A 
ATOM     10  S   UNL d   1      26.715 -12.520  -5.095  0.00  0.00    -0.118 SA
ATOM     11  C   UNL d   1      26.628 -15.950  -2.860  0.00  0.00     0.048 A 
ATOM     12  N   UNL d   1      28.355 -14.998  -4.271  0.00  0.00    -0.325 N 
ATOM     13  C   UNL d   1      28.815 -14.255  -5.335  0.00  0.00     0.231 C 
ATOM     14  H   UNL d   1      29.050 -15.592  -3.837  0.00  0.00     0.169 HD
ATOM     15  O   UNL d   1      30.000 -14.309  -5.662  0.00  0.00    -0.272 OA
ATOM     16  C   UNL d   1      27.785 -13.509  -6.158  0.00  0.00     0.182 C 
ENDBRANCH   2   5
BRANCH   1  17
ATOM     17  N   UNL d   1      22.969 -18.190  -0.491  0.00  0.00    -0.267 N 
ATOM     18  C   UNL d   1      21.602 -18.415  -0.532  0.00  0.00     0.236 C 
ATOM     19  O   UNL d   1      20.863 -17.761  -1.269  0.00  0.00    -0.272 OA
ATOM     20  H   UNL d   1      23.628 -18.718   0.080  0.00  0.00     0.190 HD
BRANCH  18  21
ATOM     21  C   UNL d   1      21.097 -19.524   0.386  0.00  0.00     0.105 C 
BRANCH  21  22
ATOM     22  C   UNL d   1      19.683 -19.996  -0.003  0.00  0.00     0.013 C 
BRANCH  22  23
ATOM     23  C   UNL d   1      18.760 -20.283   1.198  0.00  0.00    -0.022 C 
ATOM     24  C   UNL d   1      18.003 -21.600   0.990  0.00  0.00     0.009 C 
ATOM     25  C   UNL d   1      19.548 -20.360   2.506  0.00  0.00     0.009 C 
ENDBRANCH  22  23
ENDBRANCH  21  22
ENDBRANCH  18  21
ENDBRANCH   1  17
TORSDOF 5
ENDMDL
MODEL 7
REMARK VINA RESULT:    -7.487      2.078      2.238
REMARK INTER + INTRA:          -9.685
REMARK INTER:                  -8.978
REMARK INTRA:                  -0.707
REMARK CONF_INDEPENDENT:        1.492
REMARK UNBOUND:                -0.707
REMARK  5 active torsions:
REMARK  status: ('A' for Active; 'I' for Inactive)
REMARK    1  A    between atoms: C_2  and  C_4 
REMARK    2  A    between atoms: C_4  and  C_5 
REMARK    3  A    between atoms: C_5  and  C_6 
REMARK       I    between atoms: C_6  and  N_8 
REMARK    4  A    between atoms: N_8  and  N_9 
REMARK       I    between atoms: N_9  and  C_10 
REMARK    5  A    between atoms: C_10  and  C_12 
ROOT
ATOM      1  N   UNL d   1      23.292 -17.076  -0.829  0.00  0.00    -0.263 N 
ATOM      2  C   UNL d   1      24.337 -17.698  -0.168  0.00  0.00     0.270 C 
ATOM      3  O   UNL d   1      24.170 -18.558   0.698  0.00  0.00    -0.266 OA
ATOM      4  H   UNL d   1      23.421 -16.467  -1.637  0.00  0.00     0.190 HD
ENDROOT
BRANCH   2   5
ATOM      5  C   UNL d   1      25.719 -17.323  -0.598  0.00  0.00     0.035 A 
ATOM      6  C   UNL d   1      26.795 -17.732   0.201  0.00  0.00     0.018 A 
ATOM      7  C   UNL d   1      28.111 -17.450  -0.178  0.00  0.00     0.022 A 
ATOM      8  C   UNL d   1      28.364 -16.729  -1.345  0.00  0.00     0.027 A 
ATOM      9  C   UNL d   1      27.291 -16.286  -2.139  0.00  0.00     0.052 A 
ATOM     10  S   UNL d   1      30.060 -16.436  -1.814  0.00  0.00    -0.118 SA
ATOM     11  C   UNL d   1      25.968 -16.577  -1.762  0.00  0.00     0.048 A 
ATOM     12  N   UNL d   1      27.519 -15.584  -3.340  0.00  0.00    -0.325 N 
ATOM     13  C   UNL d   1      28.707 -14.991  -3.702  0.00  0.00     0.231 C 
ATOM     14  H   UNL d   1      26.788 -15.529  -4.038  0.00  0.00     0.169 HD
ATOM     15  O   UNL d   1      28.835 -14.487  -4.818  0.00  0.00    -0.272 OA
ATOM     16  C   UNL d   1      29.769 -14.853  -2.630  0.00  0.00     0.182 C 
ENDBRANCH   2   5
BRANCH   1  17
ATOM     17  N   UNL d   1      21.955 -17.470  -0.570  0.00  0.00    -0.267 N 
ATOM     18  C   UNL d   1      21.484 -18.622  -1.180  0.00  0.00     0.236 C 
ATOM     19  O   UNL d   1      22.208 -19.316  -1.894  0.00  0.00    -0.272 OA
ATOM     20  H   UNL d   1      21.406 -16.875   0.050  0.00  0.00     0.190 HD
BRANCH  18  21
ATOM     21  C   UNL d   1      20.023 -18.961  -0.893  0.00  0.00     0.105 C 
BRANCH  21  22
ATOM     22  C   UNL d   1      19.881 -20.265  -0.086  0.00  0.00     0.013 C 
BRANCH  22  23
ATOM     23  C   UNL d   1      19.029 -20.127   1.192  0.00  0.00    -0.022 C 
ATOM     24  C   UNL d   1      18.049 -21.301   1.311  0.00  0.00     0.009 C 
ATOM     25  C   UNL d   1      19.902 -20.076   2.445  0.00  0.00     0.009 C 
ENDBRANCH  22  23
ENDBRANCH  21  22
ENDBRANCH  18  21
ENDBRANCH   1  17
TORSDOF 5
ENDMDL
MODEL 8
REMARK VINA RESULT:    -6.609      6.545      8.346
REMARK INTER + INTRA:          -9.465
REMARK INTER:                  -8.100
REMARK INTRA:                  -1.364
REMARK CONF_INDEPENDENT:        1.492
REMARK UNBOUND:                -1.364
REMARK  5 active torsions:
REMARK  status: ('A' for Active; 'I' for Inactive)
REMARK    1  A    between atoms: C_2  and  C_4 
REMARK    2  A    between atoms: C_4  and  C_5 
REMARK    3  A    between atoms: C_5  and  C_6 
REMARK       I    between atoms: C_6  and  N_8 
REMARK    4  A    between atoms: N_8  and  N_9 
REMARK       I    between atoms: N_9  and  C_10 
REMARK    5  A    between atoms: C_10  and  C_12 
ROOT
ATOM      1  N   UNL d   1      27.640 -15.051   1.853  0.00  0.00    -0.263 N 
ATOM      2  C   UNL d   1      27.386 -13.861   2.513  0.00  0.00     0.270 C 
ATOM      3  O   UNL d   1      26.758 -12.930   2.008  0.00  0.00    -0.266 OA
ATOM      4  H   UNL d   1      28.038 -15.873   2.308  0.00  0.00     0.190 HD
ENDROOT
BRANCH   2   5
ATOM      5  C   UNL d   1      27.863 -13.766   3.927  0.00  0.00     0.035 A 
ATOM      6  C   UNL d   1      28.251 -14.946   4.576  0.00  0.00     0.018 A 
ATOM      7  C   UNL d   1      28.750 -14.909   5.882  0.00  0.00     0.022 A 
ATOM      8  C   UNL d   1      28.838 -13.696   6.564  0.00  0.00     0.027 A 
ATOM      9  C   UNL d   1      28.421 -12.509   5.934  0.00  0.00     0.052 A 
ATOM     10  S   UNL d   1      29.526 -13.691   8.210  0.00  0.00    -0.118 SA
ATOM     11  C   UNL d   1      27.928 -12.544   4.618  0.00  0.00     0.048 A 
ATOM     12  N   UNL d   1      28.529 -11.265   6.589  0.00  0.00    -0.325 N 
ATOM     13  C   UNL d   1      28.724 -11.091   7.941  0.00  0.00     0.231 C 
ATOM     14  H   UNL d   1      28.512 -10.408   6.049  0.00  0.00     0.169 HD
ATOM     15  O   UNL d   1      28.906  -9.964   8.401  0.00  0.00    -0.272 OA
ATOM     16  C   UNL d   1      28.551 -12.305   8.829  0.00  0.00     0.182 C 
ENDBRANCH   2   5
BRANCH   1  17
ATOM     17  N   UNL d   1      27.109 -15.269   0.556  0.00  0.00    -0.267 N 
ATOM     18  C   UNL d   1      26.904 -16.577   0.145  0.00  0.00     0.236 C 
ATOM     19  O   UNL d   1      27.132 -17.530   0.891  0.00  0.00    -0.272 OA
ATOM     20  H   UNL d   1      26.912 -14.445  -0.010  0.00  0.00     0.190 HD
BRANCH  18  21
ATOM     21  C   UNL d   1      26.374 -16.737  -1.277  0.00  0.00     0.105 C 
BRANCH  21  22
ATOM     22  C   UNL d   1      24.884 -16.364  -1.384  0.00  0.00     0.013 C 
BRANCH  22  23
ATOM     23  C   UNL d   1      23.978 -17.077  -0.360  0.00  0.00    -0.022 C 
ATOM     24  C   UNL d   1      22.524 -16.619  -0.520  0.00  0.00     0.009 C 
ATOM     25  C   UNL d   1      24.044 -18.597  -0.517  0.00  0.00     0.009 C 
ENDBRANCH  22  23
ENDBRANCH  21  22
ENDBRANCH  18  21
ENDBRANCH   1  17
TORSDOF 5
ENDMDL
MODEL 9
REMARK VINA RESULT:    -6.593      3.177      5.092
REMARK INTER + INTRA:          -9.512
REMARK INTER:                  -8.084
REMARK INTRA:                  -1.428
REMARK CONF_INDEPENDENT:        1.492
REMARK UNBOUND:                -1.428
REMARK  5 active torsions:
REMARK  status: ('A' for Active; 'I' for Inactive)
REMARK    1  A    between atoms: C_2  and  C_4 
REMARK    2  A    between atoms: C_4  and  C_5 
REMARK    3  A    between atoms: C_5  and  C_6 
REMARK       I    between atoms: C_6  and  N_8 
REMARK    4  A    between atoms: N_8  and  N_9 
REMARK       I    between atoms: N_9  and  C_10 
REMARK    5  A    between atoms: C_10  and  C_12 
ROOT
ATOM      1  N   UNL d   1      26.070 -15.297  -2.710  0.00  0.00    -0.263 N 
ATOM      2  C   UNL d   1      25.954 -15.123  -4.078  0.00  0.00     0.270 C 
ATOM      3  O   UNL d   1      25.530 -15.997  -4.836  0.00  0.00    -0.266 OA
ATOM      4  H   UNL d   1      26.289 -14.539  -2.063  0.00  0.00     0.190 HD
ENDROOT
BRANCH   2   5
ATOM      5  C   UNL d   1      26.316 -13.775  -4.614  0.00  0.00     0.035 A 
ATOM      6  C   UNL d   1      27.353 -13.692  -5.553  0.00  0.00     0.018 A 
ATOM      7  C   UNL d   1      27.701 -12.463  -6.122  0.00  0.00     0.022 A 
ATOM      8  C   UNL d   1      27.036 -11.299  -5.737  0.00  0.00     0.027 A 
ATOM      9  C   UNL d   1      26.015 -11.366  -4.772  0.00  0.00     0.052 A 
ATOM     10  S   UNL d   1      27.481  -9.763  -6.526  0.00  0.00    -0.118 SA
ATOM     11  C   UNL d   1      25.659 -12.602  -4.205  0.00  0.00     0.048 A 
ATOM     12  N   UNL d   1      25.305 -10.210  -4.386  0.00  0.00    -0.325 N 
ATOM     13  C   UNL d   1      25.703  -8.914  -4.630  0.00  0.00     0.231 C 
ATOM     14  H   UNL d   1      24.405 -10.299  -3.933  0.00  0.00     0.169 HD
ATOM     15  O   UNL d   1      24.962  -7.974  -4.342  0.00  0.00    -0.272 OA
ATOM     16  C   UNL d   1      27.122  -8.702  -5.111  0.00  0.00     0.182 C 
ENDBRANCH   2   5
BRANCH   1  17
ATOM     17  N   UNL d   1      25.625 -16.502  -2.109  0.00  0.00    -0.267 N 
ATOM     18  C   UNL d   1      25.726 -16.621  -0.731  0.00  0.00     0.236 C 
ATOM     19  O   UNL d   1      26.147 -15.698  -0.034  0.00  0.00    -0.272 OA
ATOM     20  H   UNL d   1      25.260 -17.224  -2.729  0.00  0.00     0.190 HD
BRANCH  18  21
ATOM     21  C   UNL d   1      25.272 -17.961  -0.158  0.00  0.00     0.105 C 
BRANCH  21  22
ATOM     22  C   UNL d   1      24.031 -18.510  -0.886  0.00  0.00     0.013 C 
BRANCH  22  23
ATOM     23  C   UNL d   1      22.689 -18.043  -0.288  0.00  0.00    -0.022 C 
ATOM     24  C   UNL d   1      22.493 -16.540  -0.520  0.00  0.00     0.009 C 
ATOM     25  C   UNL d   1      21.509 -18.801  -0.896  0.00  0.00     0.009 C 
ENDBRANCH  22  23
ENDBRANCH  21  22
ENDBRANCH  18  21
ENDBRANCH   1  17
TORSDOF 5
ENDMDL
