MODEL 1
REMARK VINA RESULT:    -9.251      0.000      0.000
REMARK INTER + INTRA:         -12.169
REMARK INTER:                 -11.041
REMARK INTRA:                  -1.128
REMARK CONF_INDEPENDENT:        1.790
REMARK UNBOUND:                -1.128
REMARK  6 active torsions:
REMARK  status: ('A' for Active; 'I' for Inactive)
REMARK    1  A    between atoms: C_2  and  C_3 
REMARK    2  A    between atoms: C_3  and  C_4 
REMARK    3  A    between atoms: C_4  and  N_5 
REMARK    4  A    between atoms: C_9  and  C_10 
REMARK    5  A    between atoms: C_10  and  C_11 
REMARK    6  A    between atoms: C_14  and  O_15 
ROOT
ATOM      1  N   UNL d   1      27.284 -14.346  -2.572  0.00  0.00    -0.288 N 
ATOM      2  C   UNL d   1      26.880 -15.161  -1.630  0.00  0.00     0.233 C 
ATOM      3  O   UNL d   1      26.197 -14.675  -0.730  0.00  0.00    -0.272 OA
ATOM      4  C   UNL d   1      27.587 -16.498  -1.746  0.00  0.00     0.128 A 
ATOM      5  C   UNL d   1      27.266 -17.406  -0.564  0.00  0.00     0.240 A 
ATOM      6  N   UNL d   1      28.477 -17.486   0.212  0.00  0.00     0.114 N 
ATOM      7  C   UNL d   1      29.547 -16.708  -0.473  0.00  0.00     0.279 A 
ATOM      8  C   UNL d   1      30.154 -15.754   0.605  0.00  0.00     0.267 A 
ATOM      9  O   UNL d   1      29.613 -14.820   1.142  0.00  0.00    -0.270 OA
ATOM     10  N   UNL d   1      31.439 -16.232   0.904  0.00  0.00    -0.324 N 
ATOM     11  C   UNL d   1      31.767 -17.369   0.184  0.00  0.00     0.044 A 
ATOM     12  C   UNL d   1      32.948 -18.094   0.258  0.00  0.00     0.031 A 
ATOM     13  C   UNL d   1      33.060 -19.251  -0.521  0.00  0.00     0.021 A 
ATOM     14  C   UNL d   1      31.974 -19.673  -1.302  0.00  0.00     0.011 A 
ATOM     15 BR   UNL d   1      32.150 -21.260  -2.326  0.00  0.00    -0.051 Br
ATOM     16  C   UNL d   1      30.780 -18.933  -1.355  0.00  0.00     0.031 A 
ATOM     17  C   UNL d   1      30.705 -17.729  -0.647  0.00  0.00     0.019 A 
ATOM     18  C   UNL d   1      29.030 -16.021  -1.811  0.00  0.00     0.147 A 
ATOM     19  C   UNL d   1      28.608 -14.653  -2.670  0.00  0.00     0.234 C 
ATOM     20  O   UNL d   1      29.312 -14.165  -3.552  0.00  0.00    -0.272 OA
ATOM     21  H   UNL d   1      28.728 -18.462   0.384  0.00  0.00     0.318 HD
ATOM     22  H   UNL d   1      32.016 -15.800   1.610  0.00  0.00     0.169 HD
ENDROOT
BRANCH   5  23
ATOM     23  C   UNL d   1      26.094 -16.946   0.329  0.00  0.00     0.075 C 
BRANCH  23  24
ATOM     24  C   UNL d   1      24.723 -17.260  -0.299  0.00  0.00    -0.056 C 
ATOM     25  C   UNL d   1      23.808 -16.256  -0.697  0.00  0.00     0.010 C 
ATOM     26  C   UNL d   1      22.456 -16.541  -0.895  0.00  0.00     0.037 C 
ATOM     27  C   UNL d   1      22.038 -17.861  -0.860  0.00  0.00     0.065 C 
ATOM     28  C   UNL d   1      22.932 -18.880  -0.557  0.00  0.00     0.037 C 
ATOM     29  C   UNL d   1      24.249 -18.575  -0.207  0.00  0.00     0.010 C 
BRANCH  27  30
ATOM     30  O   UNL d   1      20.739 -18.200  -1.098  0.00  0.00    -0.361 OA
ATOM     31  H   UNL d   1      20.330 -17.510  -1.645  0.00  0.00     0.217 HD
ENDBRANCH  27  30
ENDBRANCH  23  24
ENDBRANCH   5  23
BRANCH   1  32
ATOM     32  C   UNL d   1      26.468 -13.113  -2.675  0.00  0.00     0.135 C 
BRANCH  32  33
ATOM     33  C   UNL d   1      25.701 -12.885  -3.939  0.00  0.00     0.020 C 
BRANCH  33  34
ATOM     34  C   UNL d   1      24.794 -14.075  -4.270  0.00  0.00    -0.003 C 
ATOM     35  C   UNL d   1      25.640 -15.153  -4.919  0.00  0.00     0.005 C 
ENDBRANCH  33  34
ENDBRANCH  32  33
ENDBRANCH   1  32
TORSDOF 6
ENDMDL
MODEL 2
REMARK VINA RESULT:    -8.843      1.090      1.299
REMARK INTER + INTRA:         -11.776
REMARK INTER:                 -10.633
REMARK INTRA:                  -1.144
REMARK CONF_INDEPENDENT:        1.790
REMARK UNBOUND:                -1.144
REMARK  6 active torsions:
REMARK  status: ('A' for Active; 'I' for Inactive)
REMARK    1  A    between atoms: C_2  and  C_3 
REMARK    2  A    between atoms: C_3  and  C_4 
REMARK    3  A    between atoms: C_4  and  N_5 
REMARK    4  A    between atoms: C_9  and  C_10 
REMARK    5  A    between atoms: C_10  and  C_11 
REMARK    6  A    between atoms: C_14  and  O_15 
ROOT
ATOM      1  N   UNL d   1      27.885 -15.532  -3.687  0.00  0.00    -0.288 N 
ATOM      2  C   UNL d   1      27.488 -15.798  -2.467  0.00  0.00     0.233 C 
ATOM      3  O   UNL d   1      26.839 -14.925  -1.893  0.00  0.00    -0.272 OA
ATOM      4  C   UNL d   1      28.161 -17.054  -1.951  0.00  0.00     0.128 A 
ATOM      5  C   UNL d   1      27.851 -17.292  -0.477  0.00  0.00     0.240 A 
ATOM      6  N   UNL d   1      29.079 -17.037   0.230  0.00  0.00     0.114 N 
ATOM      7  C   UNL d   1      30.148 -16.705  -0.752  0.00  0.00     0.279 A 
ATOM      8  C   UNL d   1      30.804 -15.376  -0.256  0.00  0.00     0.267 A 
ATOM      9  O   UNL d   1      30.298 -14.283  -0.214  0.00  0.00    -0.270 OA
ATOM     10  N   UNL d   1      32.085 -15.699   0.217  0.00  0.00    -0.324 N 
ATOM     11  C   UNL d   1      32.369 -17.050   0.110  0.00  0.00     0.044 A 
ATOM     12  C   UNL d   1      33.536 -17.693   0.502  0.00  0.00     0.031 A 
ATOM     13  C   UNL d   1      33.601 -19.083   0.356  0.00  0.00     0.021 A 
ATOM     14  C   UNL d   1      32.487 -19.788  -0.123  0.00  0.00     0.011 A 
ATOM     15 BR   UNL d   1      32.601 -21.674  -0.283  0.00  0.00    -0.051 Br
ATOM     16  C   UNL d   1      31.308 -19.121  -0.502  0.00  0.00     0.031 A 
ATOM     17  C   UNL d   1      31.279 -17.725  -0.441  0.00  0.00     0.019 A 
ATOM     18  C   UNL d   1      29.613 -16.710  -2.250  0.00  0.00     0.147 A 
ATOM     19  C   UNL d   1      29.200 -15.892  -3.645  0.00  0.00     0.234 C 
ATOM     20  O   UNL d   1      29.891 -15.896  -4.662  0.00  0.00    -0.272 OA
ATOM     21  H   UNL d   1      29.313 -17.825   0.838  0.00  0.00     0.318 HD
ATOM     22  H   UNL d   1      32.690 -15.004   0.629  0.00  0.00     0.169 HD
ENDROOT
BRANCH   5  23
ATOM     23  C   UNL d   1      26.712 -16.429   0.110  0.00  0.00     0.075 C 
BRANCH  23  24
ATOM     24  C   UNL d   1      25.320 -16.929  -0.321  0.00  0.00    -0.056 C 
ATOM     25  C   UNL d   1      24.331 -16.079  -0.872  0.00  0.00     0.010 C 
ATOM     26  C   UNL d   1      22.986 -16.448  -0.894  0.00  0.00     0.037 C 
ATOM     27  C   UNL d   1      22.638 -17.735  -0.518  0.00  0.00     0.065 C 
ATOM     28  C   UNL d   1      23.601 -18.622  -0.054  0.00  0.00     0.037 C 
ATOM     29  C   UNL d   1      24.921 -18.199   0.114  0.00  0.00     0.010 C 
BRANCH  27  30
ATOM     30  O   UNL d   1      21.345 -18.164  -0.570  0.00  0.00    -0.361 OA
ATOM     31  H   UNL d   1      21.023 -18.299   0.336  0.00  0.00     0.217 HD
ENDBRANCH  27  30
ENDBRANCH  23  24
ENDBRANCH   5  23
BRANCH   1  32
ATOM     32  C   UNL d   1      27.094 -14.467  -4.347  0.00  0.00     0.135 C 
BRANCH  32  33
ATOM     33  C   UNL d   1      25.655 -14.744  -4.641  0.00  0.00     0.020 C 
BRANCH  33  34
ATOM     34  C   UNL d   1      24.730 -13.774  -3.898  0.00  0.00    -0.003 C 
ATOM     35  C   UNL d   1      25.532 -12.540  -3.529  0.00  0.00     0.005 C 
ENDBRANCH  33  34
ENDBRANCH  32  33
ENDBRANCH   1  32
TORSDOF 6
ENDMDL
MODEL 3
REMARK VINA RESULT:    -8.789      1.173      1.744
REMARK INTER + INTRA:         -11.856
REMARK INTER:                 -10.579
REMARK INTRA:                  -1.277
REMARK CONF_INDEPENDENT:        1.790
REMARK UNBOUND:                -1.277
REMARK  6 active torsions:
REMARK  status: ('A' for Active; 'I' for Inactive)
REMARK    1  A    between atoms: C_2  and  C_3 
REMARK    2  A    between atoms: C_3  and  C_4 
REMARK    3  A    between atoms: C_4  and  N_5 
REMARK    4  A    between atoms: C_9  and  C_10 
REMARK    5  A    between atoms: C_10  and  C_11 
REMARK    6  A    between atoms: C_14  and  O_15 
ROOT
ATOM      1  N   UNL d   1      26.195 -15.177  -3.640  0.00  0.00    -0.288 N 
ATOM      2  C   UNL d   1      25.943 -15.573  -2.417  0.00  0.00     0.233 C 
ATOM      3  O   UNL d   1      25.184 -14.872  -1.751  0.00  0.00    -0.272 OA
ATOM      4  C   UNL d   1      26.878 -16.701  -2.022  0.00  0.00     0.128 A 
ATOM      5  C   UNL d   1      26.724 -17.066  -0.549  0.00  0.00     0.240 A 
ATOM      6  N   UNL d   1      27.929 -16.614   0.097  0.00  0.00     0.114 N 
ATOM      7  C   UNL d   1      28.843 -16.034  -0.926  0.00  0.00     0.279 A 
ATOM      8  C   UNL d   1      29.269 -14.630  -0.389  0.00  0.00     0.267 A 
ATOM      9  O   UNL d   1      28.570 -13.658  -0.248  0.00  0.00    -0.270 OA
ATOM     10  N   UNL d   1      30.619 -14.722  -0.016  0.00  0.00    -0.324 N 
ATOM     11  C   UNL d   1      31.145 -15.986  -0.223  0.00  0.00     0.044 A 
ATOM     12  C   UNL d   1      32.437 -16.411   0.056  0.00  0.00     0.031 A 
ATOM     13  C   UNL d   1      32.754 -17.752  -0.179  0.00  0.00     0.021 A 
ATOM     14  C   UNL d   1      31.762 -18.635  -0.632  0.00  0.00     0.011 A 
ATOM     15 BR   UNL d   1      32.219 -20.453  -0.916  0.00  0.00    -0.051 Br
ATOM     16  C   UNL d   1      30.455 -18.190  -0.897  0.00  0.00     0.031 A 
ATOM     17  C   UNL d   1      30.165 -16.830  -0.748  0.00  0.00     0.019 A 
ATOM     18  C   UNL d   1      28.213 -16.068  -2.386  0.00  0.00     0.147 A 
ATOM     19  C   UNL d   1      27.554 -15.277  -3.700  0.00  0.00     0.234 C 
ATOM     20  O   UNL d   1      28.159 -15.098  -4.755  0.00  0.00    -0.272 OA
ATOM     21  H   UNL d   1      28.351 -17.371   0.639  0.00  0.00     0.318 HD
ATOM     22  H   UNL d   1      31.109 -13.945   0.402  0.00  0.00     0.169 HD
ENDROOT
BRANCH   5  23
ATOM     23  C   UNL d   1      25.488 -16.469   0.158  0.00  0.00     0.075 C 
BRANCH  23  24
ATOM     24  C   UNL d   1      24.217 -17.305  -0.084  0.00  0.00    -0.056 C 
ATOM     25  C   UNL d   1      24.234 -18.712  -0.237  0.00  0.00     0.010 C 
ATOM     26  C   UNL d   1      23.169 -19.393  -0.827  0.00  0.00     0.037 C 
ATOM     27  C   UNL d   1      22.007 -18.697  -1.115  0.00  0.00     0.065 C 
ATOM     28  C   UNL d   1      21.928 -17.328  -0.894  0.00  0.00     0.037 C 
ATOM     29  C   UNL d   1      23.049 -16.624  -0.451  0.00  0.00     0.010 C 
BRANCH  27  30
ATOM     30  O   UNL d   1      20.917 -19.324  -1.643  0.00  0.00    -0.361 OA
ATOM     31  H   UNL d   1      20.278 -18.652  -1.931  0.00  0.00     0.217 HD
ENDBRANCH  27  30
ENDBRANCH  23  24
ENDBRANCH   5  23
BRANCH   1  32
ATOM     32  C   UNL d   1      25.172 -14.252  -4.183  0.00  0.00     0.135 C 
BRANCH  32  33
ATOM     33  C   UNL d   1      25.624 -12.905  -4.648  0.00  0.00     0.020 C 
BRANCH  33  34
ATOM     34  C   UNL d   1      25.554 -11.867  -3.521  0.00  0.00    -0.003 C 
ATOM     35  C   UNL d   1      26.664 -12.165  -2.531  0.00  0.00     0.005 C 
ENDBRANCH  33  34
ENDBRANCH  32  33
ENDBRANCH   1  32
TORSDOF 6
ENDMDL
MODEL 4
REMARK VINA RESULT:    -8.484      2.970      5.854
REMARK INTER + INTRA:         -11.495
REMARK INTER:                 -10.274
REMARK INTRA:                  -1.221
REMARK CONF_INDEPENDENT:        1.790
REMARK UNBOUND:                -1.221
REMARK  6 active torsions:
REMARK  status: ('A' for Active; 'I' for Inactive)
REMARK    1  A    between atoms: C_2  and  C_3 
REMARK    2  A    between atoms: C_3  and  C_4 
REMARK    3  A    between atoms: C_4  and  N_5 
REMARK    4  A    between atoms: C_9  and  C_10 
REMARK    5  A    between atoms: C_10  and  C_11 
REMARK    6  A    between atoms: C_14  and  O_15 
ROOT
ATOM      1  N   UNL d   1      24.606 -17.451  -0.841  0.00  0.00    -0.288 N 
ATOM      2  C   UNL d   1      24.960 -16.361  -1.476  0.00  0.00     0.233 C 
ATOM      3  O   UNL d   1      24.809 -16.357  -2.697  0.00  0.00    -0.272 OA
ATOM      4  C   UNL d   1      25.730 -15.435  -0.554  0.00  0.00     0.128 A 
ATOM      5  C   UNL d   1      26.302 -14.241  -1.310  0.00  0.00     0.240 A 
ATOM      6  N   UNL d   1      27.727 -14.445  -1.349  0.00  0.00     0.114 N 
ATOM      7  C   UNL d   1      28.062 -15.689  -0.602  0.00  0.00     0.279 A 
ATOM      8  C   UNL d   1      28.963 -16.543  -1.551  0.00  0.00     0.267 A 
ATOM      9  O   UNL d   1      28.639 -17.073  -2.584  0.00  0.00    -0.270 OA
ATOM     10  N   UNL d   1      30.263 -16.516  -1.023  0.00  0.00    -0.324 N 
ATOM     11  C   UNL d   1      30.353 -15.763   0.136  0.00  0.00     0.044 A 
ATOM     12  C   UNL d   1      31.493 -15.523   0.892  0.00  0.00     0.031 A 
ATOM     13  C   UNL d   1      31.379 -14.686   2.006  0.00  0.00     0.021 A 
ATOM     14  C   UNL d   1      30.151 -14.074   2.297  0.00  0.00     0.011 A 
ATOM     15 BR   UNL d   1      30.038 -12.923   3.800  0.00  0.00    -0.051 Br
ATOM     16  C   UNL d   1      29.009 -14.318   1.513  0.00  0.00     0.031 A 
ATOM     17  C   UNL d   1      29.104 -15.227   0.455  0.00  0.00     0.019 A 
ATOM     18  C   UNL d   1      26.769 -16.410  -0.021  0.00  0.00     0.147 A 
ATOM     19  C   UNL d   1      25.685 -17.679  -0.039  0.00  0.00     0.234 C 
ATOM     20  O   UNL d   1      25.671 -18.569   0.809  0.00  0.00    -0.272 OA
ATOM     21  H   UNL d   1      28.217 -13.617  -1.004  0.00  0.00     0.318 HD
ATOM     22  H   UNL d   1      31.035 -16.967  -1.489  0.00  0.00     0.169 HD
ENDROOT
BRANCH   5  23
ATOM     23  C   UNL d   1      25.756 -14.035  -2.739  0.00  0.00     0.075 C 
BRANCH  23  24
ATOM     24  C   UNL d   1      26.871 -14.075  -3.801  0.00  0.00    -0.056 C 
ATOM     25  C   UNL d   1      27.639 -12.942  -4.159  0.00  0.00     0.010 C 
ATOM     26  C   UNL d   1      28.353 -12.895  -5.357  0.00  0.00     0.037 C 
ATOM     27  C   UNL d   1      28.442 -14.041  -6.128  0.00  0.00     0.065 C 
ATOM     28  C   UNL d   1      27.769 -15.199  -5.758  0.00  0.00     0.037 C 
ATOM     29  C   UNL d   1      26.930 -15.195  -4.642  0.00  0.00     0.010 C 
BRANCH  27  30
ATOM     30  O   UNL d   1      29.170 -14.066  -7.281  0.00  0.00    -0.361 OA
ATOM     31  H   UNL d   1      28.709 -14.620  -7.931  0.00  0.00     0.217 HD
ENDBRANCH  27  30
ENDBRANCH  23  24
ENDBRANCH   5  23
BRANCH   1  32
ATOM     32  C   UNL d   1      23.646 -18.290  -1.597  0.00  0.00     0.135 C 
BRANCH  32  33
ATOM     33  C   UNL d   1      22.680 -19.123  -0.817  0.00  0.00     0.020 C 
BRANCH  33  34
ATOM     34  C   UNL d   1      21.257 -18.558  -0.896  0.00  0.00    -0.003 C 
ATOM     35  C   UNL d   1      20.280 -19.690  -0.641  0.00  0.00     0.005 C 
ENDBRANCH  33  34
ENDBRANCH  32  33
ENDBRANCH   1  32
TORSDOF 6
ENDMDL
MODEL 5
REMARK VINA RESULT:    -8.298      3.315      4.862
REMARK INTER + INTRA:         -11.490
REMARK INTER:                 -10.088
REMARK INTRA:                  -1.403
REMARK CONF_INDEPENDENT:        1.790
REMARK UNBOUND:                -1.403
REMARK  6 active torsions:
REMARK  status: ('A' for Active; 'I' for Inactive)
REMARK    1  A    between atoms: C_2  and  C_3 
REMARK    2  A    between atoms: C_3  and  C_4 
REMARK    3  A    between atoms: C_4  and  N_5 
REMARK    4  A    between atoms: C_9  and  C_10 
REMARK    5  A    between atoms: C_10  and  C_11 
REMARK    6  A    between atoms: C_14  and  O_15 
ROOT
ATOM      1  N   UNL d   1      30.331 -16.053  -2.094  0.00  0.00    -0.288 N 
ATOM      2  C   UNL d   1      29.264 -16.646  -1.622  0.00  0.00     0.233 C 
ATOM      3  O   UNL d   1      28.422 -17.010  -2.442  0.00  0.00    -0.272 OA
ATOM      4  C   UNL d   1      29.204 -16.510  -0.112  0.00  0.00     0.128 A 
ATOM      5  C   UNL d   1      27.889 -17.040   0.447  0.00  0.00     0.240 A 
ATOM      6  N   UNL d   1      27.154 -15.883   0.891  0.00  0.00     0.114 N 
ATOM      7  C   UNL d   1      27.986 -14.666   0.678  0.00  0.00     0.279 A 
ATOM      8  C   UNL d   1      27.086 -13.649  -0.093  0.00  0.00     0.267 A 
ATOM      9  O   UNL d   1      26.675 -13.746  -1.222  0.00  0.00    -0.270 OA
ATOM     10  N   UNL d   1      26.766 -12.617   0.803  0.00  0.00    -0.324 N 
ATOM     11  C   UNL d   1      27.320 -12.809   2.058  0.00  0.00     0.044 A 
ATOM     12  C   UNL d   1      27.181 -11.987   3.168  0.00  0.00     0.031 A 
ATOM     13  C   UNL d   1      27.782 -12.391   4.365  0.00  0.00     0.021 A 
ATOM     14  C   UNL d   1      28.451 -13.622   4.429  0.00  0.00     0.011 A 
ATOM     15 BR   UNL d   1      29.231 -14.152   6.074  0.00  0.00    -0.051 Br
ATOM     16  C   UNL d   1      28.570 -14.449   3.297  0.00  0.00     0.031 A 
ATOM     17  C   UNL d   1      28.049 -13.999   2.081  0.00  0.00     0.019 A 
ATOM     18  C   UNL d   1      29.392 -15.006   0.017  0.00  0.00     0.147 A 
ATOM     19  C   UNL d   1      30.430 -14.956  -1.290  0.00  0.00     0.234 C 
ATOM     20  O   UNL d   1      31.400 -14.204  -1.355  0.00  0.00    -0.272 OA
ATOM     21  H   UNL d   1      26.847 -16.004   1.859  0.00  0.00     0.318 HD
ATOM     22  H   UNL d   1      26.155 -11.858   0.543  0.00  0.00     0.169 HD
ENDROOT
BRANCH   5  23
ATOM     23  C   UNL d   1      27.032 -17.866  -0.537  0.00  0.00     0.075 C 
BRANCH  23  24
ATOM     24  C   UNL d   1      25.528 -17.566  -0.396  0.00  0.00    -0.056 C 
ATOM     25  C   UNL d   1      24.616 -18.460   0.214  0.00  0.00     0.010 C 
ATOM     26  C   UNL d   1      23.242 -18.359  -0.005  0.00  0.00     0.037 C 
ATOM     27  C   UNL d   1      22.753 -17.266  -0.700  0.00  0.00     0.065 C 
ATOM     28  C   UNL d   1      23.620 -16.322  -1.237  0.00  0.00     0.037 C 
ATOM     29  C   UNL d   1      25.000 -16.509  -1.149  0.00  0.00     0.010 C 
BRANCH  27  30
ATOM     30  O   UNL d   1      21.415 -17.091  -0.897  0.00  0.00    -0.361 OA
ATOM     31  H   UNL d   1      21.064 -17.864  -1.366  0.00  0.00     0.217 HD
ENDBRANCH  27  30
ENDBRANCH  23  24
ENDBRANCH   5  23
BRANCH   1  32
ATOM     32  C   UNL d   1      30.588 -16.349  -3.524  0.00  0.00     0.135 C 
BRANCH  32  33
ATOM     33  C   UNL d   1      30.208 -15.312  -4.532  0.00  0.00     0.020 C 
BRANCH  33  34
ATOM     34  C   UNL d   1      29.021 -15.767  -5.389  0.00  0.00    -0.003 C 
ATOM     35  C   UNL d   1      27.763 -15.117  -4.845  0.00  0.00     0.005 C 
ENDBRANCH  33  34
ENDBRANCH  32  33
ENDBRANCH   1  32
TORSDOF 6
ENDMDL
MODEL 6
REMARK VINA RESULT:    -8.286      2.415      3.117
REMARK INTER + INTRA:         -11.100
REMARK INTER:                 -10.076
REMARK INTRA:                  -1.025
REMARK CONF_INDEPENDENT:        1.790
REMARK UNBOUND:                -1.025
REMARK  6 active torsions:
REMARK  status: ('A' for Active; 'I' for Inactive)
REMARK    1  A    between atoms: C_2  and  C_3 
REMARK    2  A    between atoms: C_3  and  C_4 
REMARK    3  A    between atoms: C_4  and  N_5 
REMARK    4  A    between atoms: C_9  and  C_10 
REMARK    5  A    between atoms: C_10  and  C_11 
REMARK    6  A    between atoms: C_14  and  O_15 
ROOT
ATOM      1  N   UNL d   1      29.871 -16.893  -3.686  0.00  0.00    -0.288 N 
ATOM      2  C   UNL d   1      29.159 -16.562  -2.638  0.00  0.00     0.233 C 
ATOM      3  O   UNL d   1      28.368 -15.631  -2.776  0.00  0.00    -0.272 OA
ATOM      4  C   UNL d   1      29.681 -17.263  -1.398  0.00  0.00     0.128 A 
ATOM      5  C   UNL d   1      28.982 -16.765  -0.137  0.00  0.00     0.240 A 
ATOM      6  N   UNL d   1      29.967 -16.001   0.584  0.00  0.00     0.114 N 
ATOM      7  C   UNL d   1      31.260 -16.052  -0.154  0.00  0.00     0.279 A 
ATOM      8  C   UNL d   1      31.739 -14.573  -0.304  0.00  0.00     0.267 A 
ATOM      9  O   UNL d   1      31.228 -13.702  -0.962  0.00  0.00    -0.270 OA
ATOM     10  N   UNL d   1      32.846 -14.409   0.544  0.00  0.00    -0.324 N 
ATOM     11  C   UNL d   1      33.164 -15.566   1.236  0.00  0.00     0.044 A 
ATOM     12  C   UNL d   1      34.187 -15.733   2.160  0.00  0.00     0.031 A 
ATOM     13  C   UNL d   1      34.307 -16.975   2.791  0.00  0.00     0.021 A 
ATOM     14  C   UNL d   1      33.374 -17.988   2.521  0.00  0.00     0.011 A 
ATOM     15 BR   UNL d   1      33.550 -19.652   3.414  0.00  0.00    -0.051 Br
ATOM     16  C   UNL d   1      32.336 -17.796   1.592  0.00  0.00     0.031 A 
ATOM     17  C   UNL d   1      32.274 -16.585   0.896  0.00  0.00     0.019 A 
ATOM     18  C   UNL d   1      31.154 -16.897  -1.497  0.00  0.00     0.147 A 
ATOM     19  C   UNL d   1      31.129 -16.974  -3.165  0.00  0.00     0.234 C 
ATOM     20  O   UNL d   1      32.072 -17.386  -3.837  0.00  0.00    -0.272 OA
ATOM     21  H   UNL d   1      30.036 -16.326   1.551  0.00  0.00     0.318 HD
ATOM     22  H   UNL d   1      33.307 -13.518   0.650  0.00  0.00     0.169 HD
ENDROOT
BRANCH   5  23
ATOM     23  C   UNL d   1      27.716 -15.913  -0.371  0.00  0.00     0.075 C 
BRANCH  23  24
ATOM     24  C   UNL d   1      26.464 -16.778  -0.603  0.00  0.00    -0.056 C 
ATOM     25  C   UNL d   1      25.375 -16.362  -1.405  0.00  0.00     0.010 C 
ATOM     26  C   UNL d   1      24.119 -16.962  -1.297  0.00  0.00     0.037 C 
ATOM     27  C   UNL d   1      23.984 -18.092  -0.508  0.00  0.00     0.065 C 
ATOM     28  C   UNL d   1      25.059 -18.578   0.225  0.00  0.00     0.037 C 
ATOM     29  C   UNL d   1      26.270 -17.884   0.236  0.00  0.00     0.010 C 
BRANCH  27  30
ATOM     30  O   UNL d   1      22.793 -18.748  -0.408  0.00  0.00    -0.361 OA
ATOM     31  H   UNL d   1      22.652 -19.002   0.518  0.00  0.00     0.217 HD
ENDBRANCH  27  30
ENDBRANCH  23  24
ENDBRANCH   5  23
BRANCH   1  32
ATOM     32  C   UNL d   1      29.279 -16.445  -4.968  0.00  0.00     0.135 C 
BRANCH  32  33
ATOM     33  C   UNL d   1      29.585 -15.058  -5.433  0.00  0.00     0.020 C 
BRANCH  33  34
ATOM     34  C   UNL d   1      28.379 -14.418  -6.130  0.00  0.00    -0.003 C 
ATOM     35  C   UNL d   1      27.126 -14.811  -5.371  0.00  0.00     0.005 C 
ENDBRANCH  33  34
ENDBRANCH  32  33
ENDBRANCH   1  32
TORSDOF 6
ENDMDL
MODEL 7
REMARK VINA RESULT:    -7.843      3.645      6.593
REMARK INTER + INTRA:         -10.638
REMARK INTER:                  -9.633
REMARK INTRA:                  -1.005
REMARK CONF_INDEPENDENT:        1.790
REMARK UNBOUND:                -1.005
REMARK  6 active torsions:
REMARK  status: ('A' for Active; 'I' for Inactive)
REMARK    1  A    between atoms: C_2  and  C_3 
REMARK    2  A    between atoms: C_3  and  C_4 
REMARK    3  A    between atoms: C_4  and  N_5 
REMARK    4  A    between atoms: C_9  and  C_10 
REMARK    5  A    between atoms: C_10  and  C_11 
REMARK    6  A    between atoms: C_14  and  O_15 
ROOT
ATOM      1  N   UNL d   1      27.293 -13.393  -5.670  0.00  0.00    -0.288 N 
ATOM      2  C   UNL d   1      27.248 -12.770  -4.519  0.00  0.00     0.233 C 
ATOM      3  O   UNL d   1      28.148 -11.965  -4.287  0.00  0.00    -0.272 OA
ATOM      4  C   UNL d   1      26.204 -13.398  -3.616  0.00  0.00     0.128 A 
ATOM      5  C   UNL d   1      26.248 -12.806  -2.211  0.00  0.00     0.240 A 
ATOM      6  N   UNL d   1      26.772 -13.845  -1.362  0.00  0.00     0.114 N 
ATOM      7  C   UNL d   1      27.001 -15.071  -2.176  0.00  0.00     0.279 A 
ATOM      8  C   UNL d   1      28.466 -15.528  -1.878  0.00  0.00     0.267 A 
ATOM      9  O   UNL d   1      29.485 -14.958  -2.178  0.00  0.00    -0.270 OA
ATOM     10  N   UNL d   1      28.385 -16.702  -1.113  0.00  0.00    -0.324 N 
ATOM     11  C   UNL d   1      27.078 -17.083  -0.857  0.00  0.00     0.044 A 
ATOM     12  C   UNL d   1      26.656 -18.182  -0.120  0.00  0.00     0.031 A 
ATOM     13  C   UNL d   1      25.282 -18.361   0.066  0.00  0.00     0.021 A 
ATOM     14  C   UNL d   1      24.380 -17.414  -0.442  0.00  0.00     0.011 A 
ATOM     15 BR   UNL d   1      22.524 -17.674  -0.149  0.00  0.00    -0.051 Br
ATOM     16  C   UNL d   1      24.826 -16.300  -1.175  0.00  0.00     0.031 A 
ATOM     17  C   UNL d   1      26.193 -16.173  -1.437  0.00  0.00     0.019 A 
ATOM     18  C   UNL d   1      26.629 -14.856  -3.707  0.00  0.00     0.147 A 
ATOM     19  C   UNL d   1      27.090 -14.690  -5.303  0.00  0.00     0.234 C 
ATOM     20  O   UNL d   1      26.946 -15.575  -6.144  0.00  0.00    -0.272 OA
ATOM     21  H   UNL d   1      26.156 -13.997  -0.560  0.00  0.00     0.318 HD
ATOM     22  H   UNL d   1      29.209 -17.165  -0.762  0.00  0.00     0.169 HD
ENDROOT
BRANCH   5  23
ATOM     23  C   UNL d   1      27.089 -11.521  -2.058  0.00  0.00     0.075 C 
BRANCH  23  24
ATOM     24  C   UNL d   1      26.288 -10.253  -2.407  0.00  0.00    -0.056 C 
ATOM     25  C   UNL d   1      25.574 -10.100  -3.620  0.00  0.00     0.010 C 
ATOM     26  C   UNL d   1      25.189  -8.841  -4.083  0.00  0.00     0.037 C 
ATOM     27  C   UNL d   1      25.365  -7.741  -3.260  0.00  0.00     0.065 C 
ATOM     28  C   UNL d   1      25.985  -7.874  -2.023  0.00  0.00     0.037 C 
ATOM     29  C   UNL d   1      26.509  -9.107  -1.631  0.00  0.00     0.010 C 
BRANCH  27  30
ATOM     30  O   UNL d   1      24.959  -6.497  -3.641  0.00  0.00    -0.361 OA
ATOM     31  H   UNL d   1      24.038  -6.369  -3.364  0.00  0.00     0.217 HD
ENDBRANCH  27  30
ENDBRANCH  23  24
ENDBRANCH   5  23
BRANCH   1  32
ATOM     32  C   UNL d   1      28.109 -12.691  -6.689  0.00  0.00     0.135 C 
BRANCH  32  33
ATOM     33  C   UNL d   1      28.940 -13.523  -7.613  0.00  0.00     0.020 C 
BRANCH  33  34
ATOM     34  C   UNL d   1      29.847 -14.488  -6.841  0.00  0.00    -0.003 C 
ATOM     35  C   UNL d   1      31.184 -13.809  -6.615  0.00  0.00     0.005 C 
ENDBRANCH  33  34
ENDBRANCH  32  33
ENDBRANCH   1  32
TORSDOF 6
ENDMDL
MODEL 8
REMARK VINA RESULT:    -7.429      3.537      5.860
REMARK INTER + INTRA:         -10.648
REMARK INTER:                  -9.219
REMARK INTRA:                  -1.430
REMARK CONF_INDEPENDENT:        1.790
REMARK UNBOUND:                -1.430
REMARK  6 active torsions:
REMARK  status: ('A' for Active; 'I' for Inactive)
REMARK    1  A    between atoms: C_2  and  C_3 
REMARK    2  A    between atoms: C_3  and  C_4 
REMARK    3  A    between atoms: C_4  and  N_5 
REMARK    4  A    between atoms: C_9  and  C_10 
REMARK    5  A    between atoms: C_10  and  C_11 
REMARK    6  A    between atoms: C_14  and  O_15 
ROOT
ATOM      1  N   UNL d   1      28.013 -13.530  -4.504  0.00  0.00    -0.288 N 
ATOM      2  C   UNL d   1      27.766 -13.064  -3.305  0.00  0.00     0.233 C 
ATOM      3  O   UNL d   1      28.657 -12.406  -2.770  0.00  0.00    -0.272 OA
ATOM      4  C   UNL d   1      26.498 -13.682  -2.747  0.00  0.00     0.128 A 
ATOM      5  C   UNL d   1      26.279 -13.290  -1.289  0.00  0.00     0.240 A 
ATOM      6  N   UNL d   1      26.512 -14.486  -0.521  0.00  0.00     0.114 N 
ATOM      7  C   UNL d   1      26.813 -15.612  -1.449  0.00  0.00     0.279 A 
ATOM      8  C   UNL d   1      28.130 -16.270  -0.928  0.00  0.00     0.267 A 
ATOM      9  O   UNL d   1      29.235 -15.787  -0.918  0.00  0.00    -0.270 OA
ATOM     10  N   UNL d   1      27.783 -17.518  -0.387  0.00  0.00    -0.324 N 
ATOM     11  C   UNL d   1      26.425 -17.777  -0.471  0.00  0.00     0.044 A 
ATOM     12  C   UNL d   1      25.759 -18.907  -0.015  0.00  0.00     0.031 A 
ATOM     13  C   UNL d   1      24.368 -18.949  -0.149  0.00  0.00     0.021 A 
ATOM     14  C   UNL d   1      23.684 -17.845  -0.680  0.00  0.00     0.011 A 
ATOM     15 BR   UNL d   1      21.794 -17.925  -0.823  0.00  0.00    -0.051 Br
ATOM     16  C   UNL d   1      24.373 -16.703  -1.124  0.00  0.00     0.031 A 
ATOM     17  C   UNL d   1      25.771 -16.701  -1.074  0.00  0.00     0.019 A 
ATOM     18  C   UNL d   1      26.809 -15.154  -2.972  0.00  0.00     0.147 A 
ATOM     19  C   UNL d   1      27.626 -14.832  -4.392  0.00  0.00     0.234 C 
ATOM     20  O   UNL d   1      27.599 -15.575  -5.371  0.00  0.00    -0.272 OA
ATOM     21  H   UNL d   1      25.723 -14.671   0.103  0.00  0.00     0.318 HD
ATOM     22  H   UNL d   1      28.467 -18.116   0.052  0.00  0.00     0.169 HD
ENDROOT
BRANCH   5  23
ATOM     23  C   UNL d   1      27.170 -12.143  -0.768  0.00  0.00     0.075 C 
BRANCH  23  24
ATOM     24  C   UNL d   1      27.920 -12.526   0.522  0.00  0.00    -0.056 C 
ATOM     25  C   UNL d   1      29.215 -13.097   0.523  0.00  0.00     0.010 C 
ATOM     26  C   UNL d   1      29.709 -13.779   1.635  0.00  0.00     0.037 C 
ATOM     27  C   UNL d   1      28.982 -13.753   2.813  0.00  0.00     0.065 C 
ATOM     28  C   UNL d   1      27.744 -13.125   2.869  0.00  0.00     0.037 C 
ATOM     29  C   UNL d   1      27.183 -12.579   1.713  0.00  0.00     0.010 C 
BRANCH  27  30
ATOM     30  O   UNL d   1      29.443 -14.359   3.944  0.00  0.00    -0.361 OA
ATOM     31  H   UNL d   1      29.659 -15.283   3.740  0.00  0.00     0.217 HD
ENDBRANCH  27  30
ENDBRANCH  23  24
ENDBRANCH   5  23
BRANCH   1  32
ATOM     32  C   UNL d   1      29.092 -12.798  -5.210  0.00  0.00     0.135 C 
BRANCH  32  33
ATOM     33  C   UNL d   1      28.717 -11.986  -6.409  0.00  0.00     0.020 C 
BRANCH  33  34
ATOM     34  C   UNL d   1      27.205 -11.746  -6.476  0.00  0.00    -0.003 C 
ATOM     35  C   UNL d   1      26.891 -11.050  -7.787  0.00  0.00     0.005 C 
ENDBRANCH  33  34
ENDBRANCH  32  33
ENDBRANCH   1  32
TORSDOF 6
ENDMDL
