MODEL 1
REMARK VINA RESULT:   -21.114      0.000      0.000
REMARK INTER + INTRA:         -23.102
REMARK INTER:                 -22.307
REMARK INTRA:                  -0.795
REMARK CONF_INDEPENDENT:        1.193
REMARK UNBOUND:                -0.795
REMARK  4 active torsions:
REMARK  status: ('A' for Active; 'I' for Inactive)
REMARK       I    between atoms: C_2  and  N_4 
REMARK    1  A    between atoms: N_4  and  C_5 
REMARK    2  A    between atoms: C_11  and  N_12 
REMARK    3  A    between atoms: N_12  and  C_13 
REMARK    4  A    between atoms: C_13  and  C_14 
ROOT
ATOM      1  C   UNL d   1      20.547 -19.582   1.978  0.00  0.00    -0.020 A 
ATOM      2  C   UNL d   1      20.522 -20.272   3.202  0.00  0.00     0.010 A 
ATOM      3  C   UNL d   1      19.501 -21.176   3.459  0.00  0.00     0.001 A 
ATOM      4  C   UNL d   1      18.540 -21.431   2.480  0.00  0.00     0.002 A 
ATOM      5  C   UNL d   1      18.605 -20.803   1.236  0.00  0.00     0.023 A 
ATOM      6  C   UNL d   1      19.608 -19.880   0.974  0.00  0.00     0.052 A 
ATOM      7  C   UNL d   1      19.624 -19.200  -0.298  0.00  0.00     0.100 C 
ATOM      8  N   UNL d   1      19.636 -18.575  -1.270  0.00  0.00    -0.191 NA
ENDROOT
BRANCH   1   9
ATOM      9  C   UNL d   1      21.619 -18.575   1.728  0.00  0.00     0.160 C 
BRANCH   9  10
ATOM     10  N   UNL d   1      22.457 -18.921   0.607  0.00  0.00    -0.384 N 
ATOM     11  H   UNL d   1      22.860 -19.852   0.568  0.00  0.00     0.160 HD
BRANCH  10  12
ATOM     12  C   UNL d   1      23.050 -17.967  -0.216  0.00  0.00     0.055 A 
ATOM     13  C   UNL d   1      22.212 -16.933  -0.701  0.00  0.00     0.033 A 
ATOM     14  C   UNL d   1      22.731 -15.839  -1.399  0.00  0.00     0.026 A 
ATOM     15  C   UNL d   1      24.100 -15.757  -1.609  0.00  0.00     0.036 A 
ATOM     16  C   UNL d   1      24.945 -16.759  -1.150  0.00  0.00     0.055 A 
ATOM     17 CL   UNL d   1      24.771 -14.417  -2.451  0.00  0.00    -0.084 Cl
ATOM     18  C   UNL d   1      24.443 -17.863  -0.460  0.00  0.00     0.062 A 
BRANCH  18  19
ATOM     19  N   UNL d   1      25.382 -18.853  -0.061  0.00  0.00    -0.325 N 
ATOM     20  C   UNL d   1      26.638 -18.542   0.425  0.00  0.00     0.218 C 
ATOM     21  C   UNL d   1      27.404 -19.722   0.981  0.00  0.00     0.117 C 
ATOM     22  O   UNL d   1      27.112 -17.412   0.469  0.00  0.00    -0.274 OA
ATOM     23  H   UNL d   1      25.056 -19.795   0.055  0.00  0.00     0.169 HD
ENDBRANCH  18  19
ENDBRANCH  10  12
ENDBRANCH   9  10
ENDBRANCH   1   9
TORSDOF 4
ENDMDL
MODEL 2
REMARK VINA RESULT:   -19.265      1.830      3.240
REMARK INTER + INTRA:         -20.305
REMARK INTER:                 -20.458
REMARK INTRA:                   0.153
REMARK CONF_INDEPENDENT:        1.193
REMARK UNBOUND:                 0.153
REMARK  4 active torsions:
REMARK  status: ('A' for Active; 'I' for Inactive)
REMARK       I    between atoms: C_2  and  N_4 
REMARK    1  A    between atoms: N_4  and  C_5 
REMARK    2  A    between atoms: C_11  and  N_12 
REMARK    3  A    between atoms: N_12  and  C_13 
REMARK    4  A    between atoms: C_13  and  C_14 
ROOT
ATOM      1  C   UNL d   1      20.465 -19.563   2.029  0.00  0.00    -0.020 A 
ATOM      2  C   UNL d   1      20.368 -20.237   3.258  0.00  0.00     0.010 A 
ATOM      3  C   UNL d   1      19.318 -21.119   3.475  0.00  0.00     0.001 A 
ATOM      4  C   UNL d   1      18.400 -21.366   2.454  0.00  0.00     0.002 A 
ATOM      5  C   UNL d   1      18.537 -20.754   1.208  0.00  0.00     0.023 A 
ATOM      6  C   UNL d   1      19.570 -19.854   0.984  0.00  0.00     0.052 A 
ATOM      7  C   UNL d   1      19.660 -19.190  -0.293  0.00  0.00     0.100 C 
ATOM      8  N   UNL d   1      19.731 -18.576  -1.269  0.00  0.00    -0.191 NA
ENDROOT
BRANCH   1   9
ATOM      9  C   UNL d   1      21.568 -18.579   1.820  0.00  0.00     0.160 C 
BRANCH   9  10
ATOM     10  N   UNL d   1      21.925 -18.430   0.432  0.00  0.00    -0.384 N 
ATOM     11  H   UNL d   1      21.450 -19.003  -0.258  0.00  0.00     0.160 HD
BRANCH  10  12
ATOM     12  C   UNL d   1      23.117 -17.841   0.017  0.00  0.00     0.055 A 
ATOM     13  C   UNL d   1      24.311 -18.545   0.307  0.00  0.00     0.033 A 
ATOM     14  C   UNL d   1      25.545 -18.129  -0.202  0.00  0.00     0.026 A 
ATOM     15  C   UNL d   1      25.599 -17.010  -1.018  0.00  0.00     0.036 A 
ATOM     16  C   UNL d   1      24.445 -16.296  -1.314  0.00  0.00     0.055 A 
ATOM     17 CL   UNL d   1      27.099 -16.482  -1.670  0.00  0.00    -0.084 Cl
ATOM     18  C   UNL d   1      23.206 -16.691  -0.807  0.00  0.00     0.062 A 
BRANCH  18  19
ATOM     19  N   UNL d   1      22.088 -15.876  -1.136  0.00  0.00    -0.325 N 
ATOM     20  C   UNL d   1      22.164 -14.825  -2.029  0.00  0.00     0.218 C 
ATOM     21  C   UNL d   1      20.829 -14.215  -2.393  0.00  0.00     0.117 C 
ATOM     22  O   UNL d   1      23.199 -14.419  -2.546  0.00  0.00    -0.274 OA
ATOM     23  H   UNL d   1      21.176 -16.192  -0.862  0.00  0.00     0.169 HD
ENDBRANCH  18  19
ENDBRANCH  10  12
ENDBRANCH   9  10
ENDBRANCH   1   9
TORSDOF 4
ENDMDL
