MODEL 1
REMARK VINA RESULT:    -7.345      0.000      0.000
REMARK INTER + INTRA:          -9.848
REMARK INTER:                  -8.538
REMARK INTRA:                  -1.310
REMARK CONF_INDEPENDENT:        1.193
REMARK UNBOUND:                -1.310
REMARK  4 active torsions:
REMARK  status: ('A' for Active; 'I' for Inactive)
REMARK       I    between atoms: N_1  and  C_2 
REMARK    1  A    between atoms: C_2  and  C_4 
REMARK    2  A    between atoms: N_7  and  C_8 
REMARK    3  A    between atoms: C_15  and  N_16 
REMARK       I    between atoms: N_16  and  C_17 
REMARK    4  A    between atoms: C_17  and  C_19 
ROOT
ATOM      1  C   UNL d   1      25.848 -17.033  -0.772  0.00  0.00     0.161 C 
ATOM      2  N   UNL d   1      26.516 -16.081  -1.525  0.00  0.00    -0.216 NA
ATOM      3  C   UNL d   1      25.699 -15.399  -2.289  0.00  0.00     0.174 C 
ATOM      4  N   UNL d   1      26.137 -14.453  -3.165  0.00  0.00    -0.335 N 
ATOM      5  S   UNL d   1      24.022 -15.793  -2.021  0.00  0.00    -0.032 SA
ATOM      6  C   UNL d   1      24.464 -16.955  -0.828  0.00  0.00     0.115 C 
ATOM      7  H   UNL d   1      25.496 -13.980  -3.788  0.00  0.00     0.168 HD
ENDROOT
BRANCH   6   8
ATOM      8  N   UNL d   1      23.435 -17.617  -0.147  0.00  0.00    -0.315 N 
ATOM      9  C   UNL d   1      22.528 -18.405  -0.851  0.00  0.00     0.259 C 
ATOM     10  O   UNL d   1      22.693 -18.766  -2.018  0.00  0.00    -0.267 OA
ATOM     11  H   UNL d   1      23.429 -17.609   0.866  0.00  0.00     0.170 HD
BRANCH   9  12
ATOM     12  C   UNL d   1      21.322 -18.965  -0.197  0.00  0.00     0.070 A 
ATOM     13  C   UNL d   1      21.307 -18.943   1.214  0.00  0.00     0.020 A 
ATOM     14  C   UNL d   1      20.283 -19.546   1.940  0.00  0.00     0.001 A 
ATOM     15  C   UNL d   1      19.231 -20.150   1.262  0.00  0.00     0.003 A 
ATOM     16  C   UNL d   1      19.234 -20.188  -0.137  0.00  0.00     0.043 A 
ATOM     17  C   UNL d   1      20.282 -19.605  -0.861  0.00  0.00     0.132 A 
ATOM     18  F   UNL d   1      20.272 -19.704  -2.198  0.00  0.00    -0.205 F 
ENDBRANCH   9  12
ENDBRANCH   6   8
BRANCH   1  19
ATOM     19  C   UNL d   1      26.648 -18.018  -0.059  0.00  0.00     0.271 C 
ATOM     20  N   UNL d   1      27.989 -17.745  -0.043  0.00  0.00    -0.365 N 
ATOM     21  H   UNL d   1      28.572 -18.321   0.541  0.00  0.00     0.159 HD
ATOM     22  H   UNL d   1      28.371 -16.957  -0.547  0.00  0.00     0.159 HD
ATOM     23  O   UNL d   1      26.185 -19.035   0.447  0.00  0.00    -0.266 OA
ENDBRANCH   1  19
BRANCH   4  24
ATOM     24  C   UNL d   1      27.504 -14.297  -3.506  0.00  0.00     0.034 A 
ATOM     25  C   UNL d   1      28.423 -13.835  -2.554  0.00  0.00     0.029 A 
ATOM     26  C   UNL d   1      29.778 -13.674  -2.877  0.00  0.00     0.002 A 
ATOM     27  C   UNL d   1      30.240 -13.992  -4.153  0.00  0.00     0.000 A 
ATOM     28  C   UNL d   1      29.341 -14.445  -5.113  0.00  0.00     0.002 A 
ATOM     29  C   UNL d   1      27.985 -14.587  -4.794  0.00  0.00     0.029 A 
ENDBRANCH   4  24
TORSDOF 4
ENDMDL
MODEL 2
REMARK VINA RESULT:    -7.266      4.363      6.018
REMARK INTER + INTRA:          -9.606
REMARK INTER:                  -8.459
REMARK INTRA:                  -1.147
REMARK CONF_INDEPENDENT:        1.193
REMARK UNBOUND:                -1.147
REMARK  4 active torsions:
REMARK  status: ('A' for Active; 'I' for Inactive)
REMARK       I    between atoms: N_1  and  C_2 
REMARK    1  A    between atoms: C_2  and  C_4 
REMARK    2  A    between atoms: N_7  and  C_8 
REMARK    3  A    between atoms: C_15  and  N_16 
REMARK       I    between atoms: N_16  and  C_17 
REMARK    4  A    between atoms: C_17  and  C_19 
ROOT
ATOM      1  C   UNL d   1      27.180 -13.868  -5.401  0.00  0.00     0.161 C 
ATOM      2  N   UNL d   1      27.021 -12.597  -5.929  0.00  0.00    -0.216 NA
ATOM      3  C   UNL d   1      25.998 -11.972  -5.401  0.00  0.00     0.174 C 
ATOM      4  N   UNL d   1      25.608 -10.733  -5.810  0.00  0.00    -0.335 N 
ATOM      5  S   UNL d   1      25.244 -12.864  -4.106  0.00  0.00    -0.032 SA
ATOM      6  C   UNL d   1      26.367 -14.154  -4.314  0.00  0.00     0.115 C 
ATOM      7  H   UNL d   1      24.780 -10.293  -5.431  0.00  0.00     0.168 HD
ENDROOT
BRANCH   6   8
ATOM      8  N   UNL d   1      26.291 -15.236  -3.428  0.00  0.00    -0.315 N 
ATOM      9  C   UNL d   1      25.155 -15.416  -2.644  0.00  0.00     0.259 C 
ATOM     10  O   UNL d   1      24.090 -14.825  -2.832  0.00  0.00    -0.267 OA
ATOM     11  H   UNL d   1      27.016 -15.943  -3.449  0.00  0.00     0.170 HD
BRANCH   9  12
ATOM     12  C   UNL d   1      25.115 -16.432  -1.566  0.00  0.00     0.070 A 
ATOM     13  C   UNL d   1      23.838 -16.916  -1.208  0.00  0.00     0.020 A 
ATOM     14  C   UNL d   1      23.663 -17.781  -0.131  0.00  0.00     0.001 A 
ATOM     15  C   UNL d   1      24.774 -18.211   0.585  0.00  0.00     0.003 A 
ATOM     16  C   UNL d   1      26.046 -17.735   0.249  0.00  0.00     0.043 A 
ATOM     17  C   UNL d   1      26.212 -16.841  -0.817  0.00  0.00     0.132 A 
ATOM     18  F   UNL d   1      27.441 -16.372  -1.077  0.00  0.00    -0.205 F 
ENDBRANCH   9  12
ENDBRANCH   6   8
BRANCH   1  19
ATOM     19  C   UNL d   1      28.123 -14.761  -6.056  0.00  0.00     0.271 C 
ATOM     20  N   UNL d   1      28.569 -14.313  -7.270  0.00  0.00    -0.365 N 
ATOM     21  H   UNL d   1      29.316 -14.826  -7.708  0.00  0.00     0.159 HD
ATOM     22  H   UNL d   1      28.207 -13.465  -7.682  0.00  0.00     0.159 HD
ATOM     23  O   UNL d   1      28.464 -15.848  -5.599  0.00  0.00    -0.266 OA
ENDBRANCH   1  19
BRANCH   4  24
ATOM     24  C   UNL d   1      26.106 -10.123  -6.989  0.00  0.00     0.034 A 
ATOM     25  C   UNL d   1      26.331  -8.740  -7.028  0.00  0.00     0.029 A 
ATOM     26  C   UNL d   1      26.821  -8.121  -8.188  0.00  0.00     0.002 A 
ATOM     27  C   UNL d   1      27.114  -8.879  -9.320  0.00  0.00     0.000 A 
ATOM     28  C   UNL d   1      26.889 -10.252  -9.302  0.00  0.00     0.002 A 
ATOM     29  C   UNL d   1      26.381 -10.865  -8.149  0.00  0.00     0.029 A 
ENDBRANCH   4  24
TORSDOF 4
ENDMDL
MODEL 3
REMARK VINA RESULT:    -7.051      3.796      9.410
REMARK INTER + INTRA:          -9.185
REMARK INTER:                  -8.244
REMARK INTRA:                  -0.940
REMARK CONF_INDEPENDENT:        1.193
REMARK UNBOUND:                -0.940
REMARK  4 active torsions:
REMARK  status: ('A' for Active; 'I' for Inactive)
REMARK       I    between atoms: N_1  and  C_2 
REMARK    1  A    between atoms: C_2  and  C_4 
REMARK    2  A    between atoms: N_7  and  C_8 
REMARK    3  A    between atoms: C_15  and  N_16 
REMARK       I    between atoms: N_16  and  C_17 
REMARK    4  A    between atoms: C_17  and  C_19 
ROOT
ATOM      1  C   UNL d   1      26.573 -15.428  -3.433  0.00  0.00     0.161 C 
ATOM      2  N   UNL d   1      25.761 -15.998  -2.467  0.00  0.00    -0.216 NA
ATOM      3  C   UNL d   1      26.456 -16.602  -1.536  0.00  0.00     0.174 C 
ATOM      4  N   UNL d   1      25.871 -17.289  -0.517  0.00  0.00    -0.335 N 
ATOM      5  S   UNL d   1      28.177 -16.384  -1.716  0.00  0.00    -0.032 SA
ATOM      6  C   UNL d   1      27.929 -15.443  -3.139  0.00  0.00     0.115 C 
ATOM      7  H   UNL d   1      26.426 -17.798   0.159  0.00  0.00     0.168 HD
ENDROOT
BRANCH   6   8
ATOM      8  N   UNL d   1      29.054 -14.883  -3.756  0.00  0.00    -0.315 N 
ATOM      9  C   UNL d   1      29.423 -15.291  -5.035  0.00  0.00     0.259 C 
ATOM     10  O   UNL d   1      28.696 -15.950  -5.782  0.00  0.00    -0.267 OA
ATOM     11  H   UNL d   1      29.522 -14.102  -3.312  0.00  0.00     0.170 HD
BRANCH   9  12
ATOM     12  C   UNL d   1      30.706 -14.863  -5.642  0.00  0.00     0.070 A 
ATOM     13  C   UNL d   1      30.664 -14.499  -7.005  0.00  0.00     0.020 A 
ATOM     14  C   UNL d   1      31.824 -14.195  -7.712  0.00  0.00     0.001 A 
ATOM     15  C   UNL d   1      33.048 -14.212  -7.054  0.00  0.00     0.003 A 
ATOM     16  C   UNL d   1      33.108 -14.578  -5.705  0.00  0.00     0.043 A 
ATOM     17  C   UNL d   1      31.941 -14.911  -5.006  0.00  0.00     0.132 A 
ATOM     18  F   UNL d   1      32.046 -15.303  -3.728  0.00  0.00    -0.205 F 
ENDBRANCH   9  12
ENDBRANCH   6   8
BRANCH   1  19
ATOM     19  C   UNL d   1      25.941 -14.932  -4.646  0.00  0.00     0.271 C 
ATOM     20  N   UNL d   1      24.822 -14.174  -4.424  0.00  0.00    -0.365 N 
ATOM     21  H   UNL d   1      24.419 -13.701  -5.215  0.00  0.00     0.159 HD
ATOM     22  H   UNL d   1      24.452 -14.043  -3.494  0.00  0.00     0.159 HD
ATOM     23  O   UNL d   1      26.331 -15.198  -5.778  0.00  0.00    -0.266 OA
ENDBRANCH   1  19
BRANCH   4  24
ATOM     24  C   UNL d   1      24.493 -17.619  -0.506  0.00  0.00     0.034 A 
ATOM     25  C   UNL d   1      23.522 -16.607  -0.532  0.00  0.00     0.029 A 
ATOM     26  C   UNL d   1      22.155 -16.919  -0.520  0.00  0.00     0.002 A 
ATOM     27  C   UNL d   1      21.735 -18.247  -0.503  0.00  0.00     0.000 A 
ATOM     28  C   UNL d   1      22.684 -19.265  -0.469  0.00  0.00     0.002 A 
ATOM     29  C   UNL d   1      24.049 -18.951  -0.461  0.00  0.00     0.029 A 
ENDBRANCH   4  24
TORSDOF 4
ENDMDL
MODEL 4
REMARK VINA RESULT:    -7.007      4.008      9.565
REMARK INTER + INTRA:          -9.445
REMARK INTER:                  -8.200
REMARK INTRA:                  -1.245
REMARK CONF_INDEPENDENT:        1.193
REMARK UNBOUND:                -1.245
REMARK  4 active torsions:
REMARK  status: ('A' for Active; 'I' for Inactive)
REMARK       I    between atoms: N_1  and  C_2 
REMARK    1  A    between atoms: C_2  and  C_4 
REMARK    2  A    between atoms: N_7  and  C_8 
REMARK    3  A    between atoms: C_15  and  N_16 
REMARK       I    between atoms: N_16  and  C_17 
REMARK    4  A    between atoms: C_17  and  C_19 
ROOT
ATOM      1  C   UNL d   1      26.202 -14.490  -3.731  0.00  0.00     0.161 C 
ATOM      2  N   UNL d   1      25.649 -15.260  -2.720  0.00  0.00    -0.216 NA
ATOM      3  C   UNL d   1      26.505 -16.127  -2.240  0.00  0.00     0.174 C 
ATOM      4  N   UNL d   1      26.167 -17.035  -1.283  0.00  0.00    -0.335 N 
ATOM      5  S   UNL d   1      28.105 -15.953  -2.910  0.00  0.00    -0.032 SA
ATOM      6  C   UNL d   1      27.569 -14.651  -3.904  0.00  0.00     0.115 C 
ATOM      7  H   UNL d   1      26.825 -17.735  -0.968  0.00  0.00     0.168 HD
ENDROOT
BRANCH   6   8
ATOM      8  N   UNL d   1      28.521 -14.001  -4.699  0.00  0.00    -0.315 N 
ATOM      9  C   UNL d   1      28.749 -14.428  -6.004  0.00  0.00     0.259 C 
ATOM     10  O   UNL d   1      28.006 -15.200  -6.614  0.00  0.00    -0.267 OA
ATOM     11  H   UNL d   1      28.953 -13.152  -4.355  0.00  0.00     0.170 HD
BRANCH   9  12
ATOM     12  C   UNL d   1      29.873 -13.892  -6.807  0.00  0.00     0.070 A 
ATOM     13  C   UNL d   1      29.573 -12.806  -7.658  0.00  0.00     0.020 A 
ATOM     14  C   UNL d   1      30.517 -12.296  -8.546  0.00  0.00     0.001 A 
ATOM     15  C   UNL d   1      31.796 -12.840  -8.568  0.00  0.00     0.003 A 
ATOM     16  C   UNL d   1      32.108 -13.921  -7.736  0.00  0.00     0.043 A 
ATOM     17  C   UNL d   1      31.145 -14.449  -6.866  0.00  0.00     0.132 A 
ATOM     18  F   UNL d   1      31.469 -15.515  -6.121  0.00  0.00    -0.205 F 
ENDBRANCH   9  12
ENDBRANCH   6   8
BRANCH   1  19
ATOM     19  C   UNL d   1      25.306 -13.654  -4.515  0.00  0.00     0.271 C 
ATOM     20  N   UNL d   1      23.980 -13.830  -4.227  0.00  0.00    -0.365 N 
ATOM     21  H   UNL d   1      23.326 -13.190  -4.645  0.00  0.00     0.159 HD
ATOM     22  H   UNL d   1      23.674 -14.534  -3.571  0.00  0.00     0.159 HD
ATOM     23  O   UNL d   1      25.684 -12.888  -5.395  0.00  0.00    -0.266 OA
ENDBRANCH   1  19
BRANCH   4  24
ATOM     24  C   UNL d   1      24.824 -17.287  -0.906  0.00  0.00     0.034 A 
ATOM     25  C   UNL d   1      24.427 -18.576  -0.520  0.00  0.00     0.029 A 
ATOM     26  C   UNL d   1      23.102 -18.841  -0.146  0.00  0.00     0.002 A 
ATOM     27  C   UNL d   1      22.156 -17.819  -0.132  0.00  0.00     0.000 A 
ATOM     28  C   UNL d   1      22.529 -16.536  -0.520  0.00  0.00     0.002 A 
ATOM     29  C   UNL d   1      23.848 -16.276  -0.912  0.00  0.00     0.029 A 
ENDBRANCH   4  24
TORSDOF 4
ENDMDL
MODEL 5
REMARK VINA RESULT:    -6.868      4.269      6.318
REMARK INTER + INTRA:          -9.393
REMARK INTER:                  -8.061
REMARK INTRA:                  -1.332
REMARK CONF_INDEPENDENT:        1.193
REMARK UNBOUND:                -1.332
REMARK  4 active torsions:
REMARK  status: ('A' for Active; 'I' for Inactive)
REMARK       I    between atoms: N_1  and  C_2 
REMARK    1  A    between atoms: C_2  and  C_4 
REMARK    2  A    between atoms: N_7  and  C_8 
REMARK    3  A    between atoms: C_15  and  N_16 
REMARK       I    between atoms: N_16  and  C_17 
REMARK    4  A    between atoms: C_17  and  C_19 
ROOT
ATOM      1  C   UNL d   1      26.919 -13.388  -4.974  0.00  0.00     0.161 C 
ATOM      2  N   UNL d   1      27.272 -12.871  -6.209  0.00  0.00    -0.216 NA
ATOM      3  C   UNL d   1      28.155 -13.621  -6.820  0.00  0.00     0.174 C 
ATOM      4  N   UNL d   1      28.699 -13.279  -8.021  0.00  0.00    -0.335 N 
ATOM      5  S   UNL d   1      28.506 -15.100  -5.966  0.00  0.00    -0.032 SA
ATOM      6  C   UNL d   1      27.410 -14.658  -4.711  0.00  0.00     0.115 C 
ATOM      7  H   UNL d   1      29.423 -13.842  -8.448  0.00  0.00     0.168 HD
ENDROOT
BRANCH   6   8
ATOM      8  N   UNL d   1      27.202 -15.575  -3.673  0.00  0.00    -0.315 N 
ATOM      9  C   UNL d   1      25.946 -15.686  -3.082  0.00  0.00     0.259 C 
ATOM     10  O   UNL d   1      24.918 -15.200  -3.559  0.00  0.00    -0.267 OA
ATOM     11  H   UNL d   1      27.938 -16.231  -3.439  0.00  0.00     0.170 HD
BRANCH   9  12
ATOM     12  C   UNL d   1      25.736 -16.503  -1.864  0.00  0.00     0.070 A 
ATOM     13  C   UNL d   1      24.404 -16.880  -1.585  0.00  0.00     0.020 A 
ATOM     14  C   UNL d   1      24.069 -17.546  -0.408  0.00  0.00     0.001 A 
ATOM     15  C   UNL d   1      25.070 -17.881   0.495  0.00  0.00     0.003 A 
ATOM     16  C   UNL d   1      26.394 -17.508   0.237  0.00  0.00     0.043 A 
ATOM     17  C   UNL d   1      26.721 -16.813  -0.934  0.00  0.00     0.132 A 
ATOM     18  F   UNL d   1      27.993 -16.432  -1.121  0.00  0.00    -0.205 F 
ENDBRANCH   9  12
ENDBRANCH   6   8
BRANCH   1  19
ATOM     19  C   UNL d   1      26.133 -12.546  -4.085  0.00  0.00     0.271 C 
ATOM     20  N   UNL d   1      25.530 -11.485  -4.706  0.00  0.00    -0.365 N 
ATOM     21  H   UNL d   1      24.873 -10.945  -4.168  0.00  0.00     0.159 HD
ATOM     22  H   UNL d   1      25.690 -11.289  -5.684  0.00  0.00     0.159 HD
ATOM     23  O   UNL d   1      26.044 -12.727  -2.875  0.00  0.00    -0.266 OA
ENDBRANCH   1  19
BRANCH   4  24
ATOM     24  C   UNL d   1      28.552 -11.989  -8.590  0.00  0.00     0.034 A 
ATOM     25  C   UNL d   1      27.554 -11.746  -9.545  0.00  0.00     0.029 A 
ATOM     26  C   UNL d   1      27.398 -10.476 -10.118  0.00  0.00     0.002 A 
ATOM     27  C   UNL d   1      28.223  -9.422  -9.731  0.00  0.00     0.000 A 
ATOM     28  C   UNL d   1      29.224  -9.646  -8.790  0.00  0.00     0.002 A 
ATOM     29  C   UNL d   1      29.391 -10.921  -8.233  0.00  0.00     0.029 A 
ENDBRANCH   4  24
TORSDOF 4
ENDMDL
MODEL 6
REMARK VINA RESULT:    -6.859      4.017      9.548
REMARK INTER + INTRA:          -9.312
REMARK INTER:                  -8.052
REMARK INTRA:                  -1.260
REMARK CONF_INDEPENDENT:        1.193
REMARK UNBOUND:                -1.260
REMARK  4 active torsions:
REMARK  status: ('A' for Active; 'I' for Inactive)
REMARK       I    between atoms: N_1  and  C_2 
REMARK    1  A    between atoms: C_2  and  C_4 
REMARK    2  A    between atoms: N_7  and  C_8 
REMARK    3  A    between atoms: C_15  and  N_16 
REMARK       I    between atoms: N_16  and  C_17 
REMARK    4  A    between atoms: C_17  and  C_19 
ROOT
ATOM      1  C   UNL d   1      26.433 -14.707  -3.649  0.00  0.00     0.161 C 
ATOM      2  N   UNL d   1      25.818 -15.439  -2.646  0.00  0.00    -0.216 NA
ATOM      3  C   UNL d   1      26.630 -16.319  -2.113  0.00  0.00     0.174 C 
ATOM      4  N   UNL d   1      26.229 -17.195  -1.152  0.00  0.00    -0.335 N 
ATOM      5  S   UNL d   1      28.260 -16.203  -2.723  0.00  0.00    -0.032 SA
ATOM      6  C   UNL d   1      27.800 -14.909  -3.764  0.00  0.00     0.115 C 
ATOM      7  H   UNL d   1      26.855 -17.906  -0.797  0.00  0.00     0.168 HD
ENDROOT
BRANCH   6   8
ATOM      8  N   UNL d   1      28.801 -14.303  -4.533  0.00  0.00    -0.315 N 
ATOM      9  C   UNL d   1      28.920 -14.606  -5.887  0.00  0.00     0.259 C 
ATOM     10  O   UNL d   1      28.057 -15.200  -6.536  0.00  0.00    -0.267 OA
ATOM     11  H   UNL d   1      29.356 -13.561  -4.124  0.00  0.00     0.170 HD
BRANCH   9  12
ATOM     12  C   UNL d   1      30.075 -14.133  -6.685  0.00  0.00     0.070 A 
ATOM     13  C   UNL d   1      31.021 -15.111  -7.059  0.00  0.00     0.020 A 
ATOM     14  C   UNL d   1      32.205 -14.768  -7.707  0.00  0.00     0.001 A 
ATOM     15  C   UNL d   1      32.446 -13.437  -8.028  0.00  0.00     0.003 A 
ATOM     16  C   UNL d   1      31.522 -12.454  -7.658  0.00  0.00     0.043 A 
ATOM     17  C   UNL d   1      30.346 -12.802  -6.980  0.00  0.00     0.132 A 
ATOM     18  F   UNL d   1      29.510 -11.825  -6.601  0.00  0.00    -0.205 F 
ENDBRANCH   9  12
ENDBRANCH   6   8
BRANCH   1  19
ATOM     19  C   UNL d   1      25.592 -13.865  -4.486  0.00  0.00     0.271 C 
ATOM     20  N   UNL d   1      24.255 -13.958  -4.211  0.00  0.00    -0.365 N 
ATOM     21  H   UNL d   1      23.641 -13.306  -4.669  0.00  0.00     0.159 HD
ATOM     22  H   UNL d   1      23.903 -14.613  -3.528  0.00  0.00     0.159 HD
ATOM     23  O   UNL d   1      26.021 -13.162  -5.395  0.00  0.00    -0.266 OA
ENDBRANCH   1  19
BRANCH   4  24
ATOM     24  C   UNL d   1      24.865 -17.403  -0.824  0.00  0.00     0.034 A 
ATOM     25  C   UNL d   1      24.409 -18.681  -0.471  0.00  0.00     0.029 A 
ATOM     26  C   UNL d   1      23.063 -18.903  -0.146  0.00  0.00     0.002 A 
ATOM     27  C   UNL d   1      22.155 -17.846  -0.149  0.00  0.00     0.000 A 
ATOM     28  C   UNL d   1      22.588 -16.572  -0.504  0.00  0.00     0.002 A 
ATOM     29  C   UNL d   1      23.929 -16.356  -0.847  0.00  0.00     0.029 A 
ENDBRANCH   4  24
TORSDOF 4
ENDMDL
MODEL 7
REMARK VINA RESULT:    -6.147      4.217      9.435
REMARK INTER + INTRA:          -8.792
REMARK INTER:                  -7.340
REMARK INTRA:                  -1.451
REMARK CONF_INDEPENDENT:        1.193
REMARK UNBOUND:                -1.451
REMARK  4 active torsions:
REMARK  status: ('A' for Active; 'I' for Inactive)
REMARK       I    between atoms: N_1  and  C_2 
REMARK    1  A    between atoms: C_2  and  C_4 
REMARK    2  A    between atoms: N_7  and  C_8 
REMARK    3  A    between atoms: C_15  and  N_16 
REMARK       I    between atoms: N_16  and  C_17 
REMARK    4  A    between atoms: C_17  and  C_19 
ROOT
ATOM      1  C   UNL d   1      25.854 -14.455  -3.111  0.00  0.00     0.161 C 
ATOM      2  N   UNL d   1      25.124 -15.265  -2.256  0.00  0.00    -0.216 NA
ATOM      3  C   UNL d   1      25.738 -15.450  -1.113  0.00  0.00     0.174 C 
ATOM      4  N   UNL d   1      25.241 -16.263  -0.140  0.00  0.00    -0.335 N 
ATOM      5  S   UNL d   1      27.203 -14.516  -0.964  0.00  0.00    -0.032 SA
ATOM      6  C   UNL d   1      26.971 -13.862  -2.542  0.00  0.00     0.115 C 
ATOM      7  H   UNL d   1      25.760 -16.440   0.710  0.00  0.00     0.168 HD
ENDROOT
BRANCH   6   8
ATOM      8  N   UNL d   1      27.887 -12.905  -2.993  0.00  0.00    -0.315 N 
ATOM      9  C   UNL d   1      27.434 -11.715  -3.556  0.00  0.00     0.259 C 
ATOM     10  O   UNL d   1      26.268 -11.321  -3.480  0.00  0.00    -0.267 OA
ATOM     11  H   UNL d   1      28.873 -13.038  -2.801  0.00  0.00     0.170 HD
BRANCH   9  12
ATOM     12  C   UNL d   1      28.364 -10.768  -4.214  0.00  0.00     0.070 A 
ATOM     13  C   UNL d   1      28.506 -10.899  -5.612  0.00  0.00     0.020 A 
ATOM     14  C   UNL d   1      29.439 -10.146  -6.322  0.00  0.00     0.001 A 
ATOM     15  C   UNL d   1      30.220  -9.215  -5.646  0.00  0.00     0.003 A 
ATOM     16  C   UNL d   1      30.096  -9.079  -4.259  0.00  0.00     0.043 A 
ATOM     17  C   UNL d   1      29.178  -9.860  -3.546  0.00  0.00     0.132 A 
ATOM     18  F   UNL d   1      29.124  -9.733  -2.213  0.00  0.00    -0.205 F 
ENDBRANCH   9  12
ENDBRANCH   6   8
BRANCH   1  19
ATOM     19  C   UNL d   1      25.411 -14.356  -4.493  0.00  0.00     0.271 C 
ATOM     20  N   UNL d   1      24.795 -13.173  -4.801  0.00  0.00    -0.365 N 
ATOM     21  H   UNL d   1      24.583 -12.998  -5.769  0.00  0.00     0.159 HD
ATOM     22  H   UNL d   1      24.615 -12.475  -4.093  0.00  0.00     0.159 HD
ATOM     23  O   UNL d   1      25.528 -15.260  -5.314  0.00  0.00    -0.266 OA
ENDBRANCH   1  19
BRANCH   4  24
ATOM     24  C   UNL d   1      24.166 -17.159  -0.364  0.00  0.00     0.034 A 
ATOM     25  C   UNL d   1      22.888 -16.669  -0.670  0.00  0.00     0.029 A 
ATOM     26  C   UNL d   1      21.814 -17.543  -0.892  0.00  0.00     0.002 A 
ATOM     27  C   UNL d   1      22.005 -18.922  -0.832  0.00  0.00     0.000 A 
ATOM     28  C   UNL d   1      23.264 -19.426  -0.522  0.00  0.00     0.002 A 
ATOM     29  C   UNL d   1      24.331 -18.551  -0.281  0.00  0.00     0.029 A 
ENDBRANCH   4  24
TORSDOF 4
ENDMDL
MODEL 8
REMARK VINA RESULT:    -6.112      4.314      9.506
REMARK INTER + INTRA:          -8.517
REMARK INTER:                  -7.306
REMARK INTRA:                  -1.212
REMARK CONF_INDEPENDENT:        1.193
REMARK UNBOUND:                -1.212
REMARK  4 active torsions:
REMARK  status: ('A' for Active; 'I' for Inactive)
REMARK       I    between atoms: N_1  and  C_2 
REMARK    1  A    between atoms: C_2  and  C_4 
REMARK    2  A    between atoms: N_7  and  C_8 
REMARK    3  A    between atoms: C_15  and  N_16 
REMARK       I    between atoms: N_16  and  C_17 
REMARK    4  A    between atoms: C_17  and  C_19 
ROOT
ATOM      1  C   UNL d   1      27.586 -15.244  -3.909  0.00  0.00     0.161 C 
ATOM      2  N   UNL d   1      26.573 -15.791  -3.139  0.00  0.00    -0.216 NA
ATOM      3  C   UNL d   1      25.499 -15.040  -3.136  0.00  0.00     0.174 C 
ATOM      4  N   UNL d   1      24.398 -15.343  -2.396  0.00  0.00    -0.335 N 
ATOM      5  S   UNL d   1      25.620 -13.669  -4.206  0.00  0.00    -0.032 SA
ATOM      6  C   UNL d   1      27.216 -14.136  -4.659  0.00  0.00     0.115 C 
ATOM      7  H   UNL d   1      23.602 -14.720  -2.360  0.00  0.00     0.168 HD
ENDROOT
BRANCH   6   8
ATOM      8  N   UNL d   1      27.867 -13.375  -5.637  0.00  0.00    -0.315 N 
ATOM      9  C   UNL d   1      28.526 -14.007  -6.688  0.00  0.00     0.259 C 
ATOM     10  O   UNL d   1      28.387 -15.200  -6.967  0.00  0.00    -0.267 OA
ATOM     11  H   UNL d   1      27.755 -12.368  -5.633  0.00  0.00     0.170 HD
BRANCH   9  12
ATOM     12  C   UNL d   1      29.380 -13.248  -7.631  0.00  0.00     0.070 A 
ATOM     13  C   UNL d   1      28.712 -12.549  -8.659  0.00  0.00     0.020 A 
ATOM     14  C   UNL d   1      29.413 -11.899  -9.672  0.00  0.00     0.001 A 
ATOM     15  C   UNL d   1      30.803 -11.904  -9.650  0.00  0.00     0.003 A 
ATOM     16  C   UNL d   1      31.481 -12.598  -8.642  0.00  0.00     0.043 A 
ATOM     17  C   UNL d   1      30.770 -13.275  -7.643  0.00  0.00     0.132 A 
ATOM     18  F   UNL d   1      31.456 -13.967  -6.723  0.00  0.00    -0.205 F 
ENDBRANCH   9  12
ENDBRANCH   6   8
BRANCH   1  19
ATOM     19  C   UNL d   1      28.909 -15.842  -3.815  0.00  0.00     0.271 C 
ATOM     20  N   UNL d   1      29.044 -16.745  -2.796  0.00  0.00    -0.365 N 
ATOM     21  H   UNL d   1      29.894 -17.282  -2.762  0.00  0.00     0.159 HD
ATOM     22  H   UNL d   1      28.295 -16.912  -2.139  0.00  0.00     0.159 HD
ATOM     23  O   UNL d   1      29.847 -15.541  -4.546  0.00  0.00    -0.266 OA
ENDBRANCH   1  19
BRANCH   4  24
ATOM     24  C   UNL d   1      24.401 -16.341  -1.389  0.00  0.00     0.034 A 
ATOM     25  C   UNL d   1      23.203 -16.957  -0.999  0.00  0.00     0.029 A 
ATOM     26  C   UNL d   1      23.190 -17.945  -0.003  0.00  0.00     0.002 A 
ATOM     27  C   UNL d   1      24.378 -18.347   0.605  0.00  0.00     0.000 A 
ATOM     28  C   UNL d   1      25.575 -17.742   0.236  0.00  0.00     0.002 A 
ATOM     29  C   UNL d   1      25.583 -16.742  -0.745  0.00  0.00     0.029 A 
ENDBRANCH   4  24
TORSDOF 4
ENDMDL
MODEL 9
REMARK VINA RESULT:    -5.933      6.434      8.780
REMARK INTER + INTRA:          -8.483
REMARK INTER:                  -7.126
REMARK INTRA:                  -1.357
REMARK CONF_INDEPENDENT:        1.193
REMARK UNBOUND:                -1.357
REMARK  4 active torsions:
REMARK  status: ('A' for Active; 'I' for Inactive)
REMARK       I    between atoms: N_1  and  C_2 
REMARK    1  A    between atoms: C_2  and  C_4 
REMARK    2  A    between atoms: N_7  and  C_8 
REMARK    3  A    between atoms: C_15  and  N_16 
REMARK       I    between atoms: N_16  and  C_17 
REMARK    4  A    between atoms: C_17  and  C_19 
ROOT
ATOM      1  C   UNL d   1      27.522 -14.640  -5.607  0.00  0.00     0.161 C 
ATOM      2  N   UNL d   1      28.520 -15.591  -5.741  0.00  0.00    -0.216 NA
ATOM      3  C   UNL d   1      29.489 -15.178  -6.519  0.00  0.00     0.174 C 
ATOM      4  N   UNL d   1      30.548 -15.967  -6.849  0.00  0.00    -0.335 N 
ATOM      5  S   UNL d   1      29.300 -13.521  -7.028  0.00  0.00    -0.032 SA
ATOM      6  C   UNL d   1      27.820 -13.400  -6.152  0.00  0.00     0.115 C 
ATOM      7  H   UNL d   1      31.256 -15.650  -7.499  0.00  0.00     0.168 HD
ENDROOT
BRANCH   6   8
ATOM      8  N   UNL d   1      27.172 -12.159  -6.133  0.00  0.00    -0.315 N 
ATOM      9  C   UNL d   1      26.895 -11.536  -4.919  0.00  0.00     0.259 C 
ATOM     10  O   UNL d   1      27.387 -11.880  -3.843  0.00  0.00    -0.267 OA
ATOM     11  H   UNL d   1      27.013 -11.672  -7.007  0.00  0.00     0.170 HD
BRANCH   9  12
ATOM     12  C   UNL d   1      26.048 -10.322  -4.850  0.00  0.00     0.070 A 
ATOM     13  C   UNL d   1      25.457  -9.900  -6.061  0.00  0.00     0.020 A 
ATOM     14  C   UNL d   1      24.740  -8.709  -6.145  0.00  0.00     0.001 A 
ATOM     15  C   UNL d   1      24.566  -7.937  -5.003  0.00  0.00     0.003 A 
ATOM     16  C   UNL d   1      25.151  -8.337  -3.796  0.00  0.00     0.043 A 
ATOM     17  C   UNL d   1      25.897  -9.521  -3.725  0.00  0.00     0.132 A 
ATOM     18  F   UNL d   1      26.481  -9.843  -2.562  0.00  0.00    -0.205 F 
ENDBRANCH   9  12
ENDBRANCH   6   8
BRANCH   1  19
ATOM     19  C   UNL d   1      26.279 -15.046  -4.969  0.00  0.00     0.271 C 
ATOM     20  N   UNL d   1      26.003 -14.380  -3.805  0.00  0.00    -0.365 N 
ATOM     21  H   UNL d   1      25.098 -14.528  -3.390  0.00  0.00     0.159 HD
ATOM     22  H   UNL d   1      26.656 -13.718  -3.411  0.00  0.00     0.159 HD
ATOM     23  O   UNL d   1      25.553 -15.938  -5.395  0.00  0.00    -0.266 OA
ENDBRANCH   1  19
BRANCH   4  24
ATOM     24  C   UNL d   1      30.576 -17.361  -6.592  0.00  0.00     0.034 A 
ATOM     25  C   UNL d   1      30.405 -17.843  -5.286  0.00  0.00     0.029 A 
ATOM     26  C   UNL d   1      30.432 -19.219  -5.016  0.00  0.00     0.002 A 
ATOM     27  C   UNL d   1      30.609 -20.136  -6.049  0.00  0.00     0.000 A 
ATOM     28  C   UNL d   1      30.788 -19.676  -7.350  0.00  0.00     0.002 A 
ATOM     29  C   UNL d   1      30.781 -18.301  -7.615  0.00  0.00     0.029 A 
ENDBRANCH   4  24
TORSDOF 4
ENDMDL
