MODEL 1
REMARK VINA RESULT:    -8.133      0.000      0.000
REMARK INTER + INTRA:         -11.616
REMARK INTER:                 -10.221
REMARK INTRA:                  -1.395
REMARK CONF_INDEPENDENT:        2.088
REMARK UNBOUND:                -1.395
REMARK  7 active torsions:
REMARK  status: ('A' for Active; 'I' for Inactive)
REMARK    1  A    between atoms: C_5  and  O_6 
REMARK    2  A    between atoms: O_6  and  C_7 
REMARK    3  A    between atoms: C_7  and  C_8 
REMARK    4  A    between atoms: C_8  and  C_9 
REMARK    5  A    between atoms: C_9  and  C_10 
REMARK       I    between atoms: C_10  and  N_12 
REMARK    6  A    between atoms: N_12  and  N_13 
REMARK       I    between atoms: N_13  and  C_14 
REMARK       I    between atoms: C_14  and  N_16 
REMARK    7  A    between atoms: N_16  and  C_17 
ROOT
ATOM      1  C   UNL d   1      25.180 -17.877  -0.381  0.00  0.00     0.236 C 
ATOM      2  O   UNL d   1      25.674 -18.567   0.512  0.00  0.00    -0.272 OA
ATOM      3  N   UNL d   1      23.831 -17.967  -0.700  0.00  0.00    -0.266 N 
ATOM      4  H   UNL d   1      23.369 -17.426  -1.431  0.00  0.00     0.190 HD
ENDROOT
BRANCH   1   5
ATOM      5  C   UNL d   1      26.009 -16.872  -1.202  0.00  0.00     0.106 C 
BRANCH   5   6
ATOM      6  C   UNL d   1      25.262 -16.392  -2.467  0.00  0.00     0.036 C 
BRANCH   6   7
ATOM      7  C   UNL d   1      24.957 -14.888  -2.472  0.00  0.00     0.176 C 
BRANCH   7   8
ATOM      8  O   UNL d   1      24.680 -14.447  -3.813  0.00  0.00    -0.351 OA
BRANCH   8   9
ATOM      9  C   UNL d   1      25.766 -14.075  -4.572  0.00  0.00     0.068 A 
ATOM     10  C   UNL d   1      26.623 -15.103  -4.983  0.00  0.00     0.037 A 
ATOM     11  C   UNL d   1      27.750 -14.826  -5.773  0.00  0.00     0.009 A 
ATOM     12  C   UNL d   1      28.035 -13.514  -6.165  0.00  0.00    -0.062 A 
ATOM     13  C   UNL d   1      29.219 -13.188  -7.027  0.00  0.00     0.048 C 
ATOM     14  C   UNL d   1      27.183 -12.488  -5.744  0.00  0.00     0.009 A 
ATOM     15  C   UNL d   1      26.062 -12.767  -4.956  0.00  0.00     0.037 A 
ENDBRANCH   8   9
ENDBRANCH   7   8
ENDBRANCH   6   7
ENDBRANCH   5   6
ENDBRANCH   1   5
BRANCH   3  16
ATOM     16  N   UNL d   1      22.992 -18.890   0.015  0.00  0.00    -0.249 N 
ATOM     17  C   UNL d   1      21.617 -18.781  -0.100  0.00  0.00     0.335 C 
ATOM     18  O   UNL d   1      21.101 -17.903  -0.793  0.00  0.00    -0.246 OA
ATOM     19  N   UNL d   1      20.888 -19.739   0.584  0.00  0.00    -0.338 N 
ATOM     20  H   UNL d   1      21.370 -20.390   1.188  0.00  0.00     0.164 HD
ATOM     21  H   UNL d   1      23.470 -19.563   0.607  0.00  0.00     0.192 HD
BRANCH  19  22
ATOM     22  C   UNL d   1      19.412 -19.786   0.542  0.00  0.00     0.078 C 
ATOM     23  C   UNL d   1      18.892 -19.700  -0.895  0.00  0.00     0.032 C 
ATOM     24  C   UNL d   1      18.828 -21.056   1.181  0.00  0.00     0.032 C 
ENDBRANCH  19  22
ENDBRANCH   3  16
TORSDOF 7
ENDMDL
MODEL 2
REMARK VINA RESULT:    -8.115      0.224      1.067
REMARK INTER + INTRA:         -11.492
REMARK INTER:                 -10.203
REMARK INTRA:                  -1.289
REMARK CONF_INDEPENDENT:        2.088
REMARK UNBOUND:                -1.289
REMARK  7 active torsions:
REMARK  status: ('A' for Active; 'I' for Inactive)
REMARK    1  A    between atoms: C_5  and  O_6 
REMARK    2  A    between atoms: O_6  and  C_7 
REMARK    3  A    between atoms: C_7  and  C_8 
REMARK    4  A    between atoms: C_8  and  C_9 
REMARK    5  A    between atoms: C_9  and  C_10 
REMARK       I    between atoms: C_10  and  N_12 
REMARK    6  A    between atoms: N_12  and  N_13 
REMARK       I    between atoms: N_13  and  C_14 
REMARK       I    between atoms: C_14  and  N_16 
REMARK    7  A    between atoms: N_16  and  C_17 
ROOT
ATOM      1  C   UNL d   1      25.005 -17.779  -0.349  0.00  0.00     0.236 C 
ATOM      2  O   UNL d   1      25.438 -18.254   0.703  0.00  0.00    -0.272 OA
ATOM      3  N   UNL d   1      23.722 -18.064  -0.796  0.00  0.00    -0.266 N 
ATOM      4  H   UNL d   1      23.313 -17.706  -1.658  0.00  0.00     0.190 HD
ENDROOT
BRANCH   1   5
ATOM      5  C   UNL d   1      25.844 -16.841  -1.237  0.00  0.00     0.106 C 
BRANCH   5   6
ATOM      6  C   UNL d   1      25.028 -16.272  -2.421  0.00  0.00     0.036 C 
BRANCH   6   7
ATOM      7  C   UNL d   1      25.118 -14.746  -2.558  0.00  0.00     0.176 C 
BRANCH   7   8
ATOM      8  O   UNL d   1      24.836 -14.357  -3.914  0.00  0.00    -0.351 OA
BRANCH   8   9
ATOM      9  C   UNL d   1      25.924 -14.141  -4.728  0.00  0.00     0.068 A 
ATOM     10  C   UNL d   1      26.272 -12.806  -4.965  0.00  0.00     0.037 A 
ATOM     11  C   UNL d   1      27.377 -12.484  -5.771  0.00  0.00     0.009 A 
ATOM     12  C   UNL d   1      28.149 -13.495  -6.351  0.00  0.00    -0.062 A 
ATOM     13  C   UNL d   1      29.347 -13.184  -7.199  0.00  0.00     0.048 C 
ATOM     14  C   UNL d   1      27.792 -14.827  -6.121  0.00  0.00     0.009 A 
ATOM     15  C   UNL d   1      26.691 -15.145  -5.320  0.00  0.00     0.037 A 
ENDBRANCH   8   9
ENDBRANCH   7   8
ENDBRANCH   6   7
ENDBRANCH   5   6
ENDBRANCH   1   5
BRANCH   3  16
ATOM     16  N   UNL d   1      22.880 -18.941  -0.027  0.00  0.00    -0.249 N 
ATOM     17  C   UNL d   1      21.506 -18.840  -0.153  0.00  0.00     0.335 C 
ATOM     18  O   UNL d   1      20.992 -18.008  -0.903  0.00  0.00    -0.246 OA
ATOM     19  N   UNL d   1      20.775 -19.753   0.588  0.00  0.00    -0.338 N 
ATOM     20  H   UNL d   1      21.255 -20.364   1.233  0.00  0.00     0.164 HD
ATOM     21  H   UNL d   1      23.357 -19.575   0.608  0.00  0.00     0.192 HD
BRANCH  19  22
ATOM     22  C   UNL d   1      19.299 -19.803   0.543  0.00  0.00     0.078 C 
ATOM     23  C   UNL d   1      18.780 -19.696  -0.893  0.00  0.00     0.032 C 
ATOM     24  C   UNL d   1      18.718 -21.086   1.161  0.00  0.00     0.032 C 
ENDBRANCH  19  22
ENDBRANCH   3  16
TORSDOF 7
ENDMDL
MODEL 3
REMARK VINA RESULT:    -7.685      0.771      1.376
REMARK INTER + INTRA:         -11.269
REMARK INTER:                  -9.773
REMARK INTRA:                  -1.495
REMARK CONF_INDEPENDENT:        2.088
REMARK UNBOUND:                -1.495
REMARK  7 active torsions:
REMARK  status: ('A' for Active; 'I' for Inactive)
REMARK    1  A    between atoms: C_5  and  O_6 
REMARK    2  A    between atoms: O_6  and  C_7 
REMARK    3  A    between atoms: C_7  and  C_8 
REMARK    4  A    between atoms: C_8  and  C_9 
REMARK    5  A    between atoms: C_9  and  C_10 
REMARK       I    between atoms: C_10  and  N_12 
REMARK    6  A    between atoms: N_12  and  N_13 
REMARK       I    between atoms: N_13  and  C_14 
REMARK       I    between atoms: C_14  and  N_16 
REMARK    7  A    between atoms: N_16  and  C_17 
ROOT
ATOM      1  C   UNL d   1      25.452 -17.882  -0.138  0.00  0.00     0.236 C 
ATOM      2  O   UNL d   1      25.848 -18.526   0.836  0.00  0.00    -0.272 OA
ATOM      3  N   UNL d   1      24.121 -17.918  -0.534  0.00  0.00    -0.266 N 
ATOM      4  H   UNL d   1      23.739 -17.413  -1.332  0.00  0.00     0.190 HD
ENDROOT
BRANCH   1   5
ATOM      5  C   UNL d   1      26.391 -16.998  -0.980  0.00  0.00     0.106 C 
BRANCH   5   6
ATOM      6  C   UNL d   1      25.799 -15.594  -1.235  0.00  0.00     0.036 C 
BRANCH   6   7
ATOM      7  C   UNL d   1      24.768 -15.554  -2.371  0.00  0.00     0.176 C 
BRANCH   7   8
ATOM      8  O   UNL d   1      25.408 -15.845  -3.627  0.00  0.00    -0.351 OA
BRANCH   8   9
ATOM      9  C   UNL d   1      25.973 -14.779  -4.288  0.00  0.00     0.068 A 
ATOM     10  C   UNL d   1      25.391 -13.525  -4.065  0.00  0.00     0.037 A 
ATOM     11  C   UNL d   1      25.906 -12.374  -4.683  0.00  0.00     0.009 A 
ATOM     12  C   UNL d   1      27.012 -12.461  -5.533  0.00  0.00    -0.062 A 
ATOM     13  C   UNL d   1      27.599 -11.247  -6.192  0.00  0.00     0.048 C 
ATOM     14  C   UNL d   1      27.584 -13.716  -5.763  0.00  0.00     0.009 A 
ATOM     15  C   UNL d   1      27.069 -14.861  -5.147  0.00  0.00     0.037 A 
ENDBRANCH   8   9
ENDBRANCH   7   8
ENDBRANCH   6   7
ENDBRANCH   5   6
ENDBRANCH   1   5
BRANCH   3  16
ATOM     16  N   UNL d   1      23.185 -18.729   0.196  0.00  0.00    -0.249 N 
ATOM     17  C   UNL d   1      21.832 -18.597  -0.063  0.00  0.00     0.335 C 
ATOM     18  O   UNL d   1      21.416 -17.791  -0.898  0.00  0.00    -0.246 OA
ATOM     19  N   UNL d   1      21.006 -19.448   0.651  0.00  0.00    -0.338 N 
ATOM     20  H   UNL d   1      21.405 -20.038   1.367  0.00  0.00     0.164 HD
ATOM     21  H   UNL d   1      23.580 -19.342   0.903  0.00  0.00     0.192 HD
BRANCH  19  22
ATOM     22  C   UNL d   1      19.540 -19.459   0.471  0.00  0.00     0.078 C 
ATOM     23  C   UNL d   1      19.157 -19.345  -1.007  0.00  0.00     0.032 C 
ATOM     24  C   UNL d   1      18.870 -20.723   1.036  0.00  0.00     0.032 C 
ENDBRANCH  19  22
ENDBRANCH   3  16
TORSDOF 7
ENDMDL
MODEL 4
REMARK VINA RESULT:    -7.051      4.516      9.074
REMARK INTER + INTRA:         -10.651
REMARK INTER:                  -9.139
REMARK INTRA:                  -1.512
REMARK CONF_INDEPENDENT:        2.088
REMARK UNBOUND:                -1.512
REMARK  7 active torsions:
REMARK  status: ('A' for Active; 'I' for Inactive)
REMARK    1  A    between atoms: C_5  and  O_6 
REMARK    2  A    between atoms: O_6  and  C_7 
REMARK    3  A    between atoms: C_7  and  C_8 
REMARK    4  A    between atoms: C_8  and  C_9 
REMARK    5  A    between atoms: C_9  and  C_10 
REMARK       I    between atoms: C_10  and  N_12 
REMARK    6  A    between atoms: N_12  and  N_13 
REMARK       I    between atoms: N_13  and  C_14 
REMARK       I    between atoms: C_14  and  N_16 
REMARK    7  A    between atoms: N_16  and  C_17 
ROOT
ATOM      1  C   UNL d   1      26.325 -17.805   0.252  0.00  0.00     0.236 C 
ATOM      2  O   UNL d   1      27.135 -18.662   0.613  0.00  0.00    -0.272 OA
ATOM      3  N   UNL d   1      26.529 -16.459   0.525  0.00  0.00    -0.266 N 
ATOM      4  H   UNL d   1      25.894 -15.709   0.256  0.00  0.00     0.190 HD
ENDROOT
BRANCH   1   5
ATOM      5  C   UNL d   1      25.042 -18.158  -0.523  0.00  0.00     0.106 C 
BRANCH   5   6
ATOM      6  C   UNL d   1      24.217 -16.903  -0.889  0.00  0.00     0.036 C 
BRANCH   6   7
ATOM      7  C   UNL d   1      22.719 -17.036  -0.583  0.00  0.00     0.176 C 
BRANCH   7   8
ATOM      8  O   UNL d   1      22.178 -18.182  -1.264  0.00  0.00    -0.351 OA
BRANCH   8   9
ATOM      9  C   UNL d   1      21.153 -18.844  -0.628  0.00  0.00     0.068 A 
ATOM     10  C   UNL d   1      21.282 -19.016   0.755  0.00  0.00     0.037 A 
ATOM     11  C   UNL d   1      20.281 -19.666   1.495  0.00  0.00     0.009 A 
ATOM     12  C   UNL d   1      19.135 -20.154   0.860  0.00  0.00    -0.062 A 
ATOM     13  C   UNL d   1      18.038 -20.834   1.625  0.00  0.00     0.048 C 
ATOM     14  C   UNL d   1      19.013 -19.991  -0.524  0.00  0.00     0.009 A 
ATOM     15  C   UNL d   1      20.012 -19.344  -1.258  0.00  0.00     0.037 A 
ENDBRANCH   8   9
ENDBRANCH   7   8
ENDBRANCH   6   7
ENDBRANCH   5   6
ENDBRANCH   1   5
BRANCH   3  16
ATOM     16  N   UNL d   1      27.700 -16.051   1.253  0.00  0.00    -0.249 N 
ATOM     17  C   UNL d   1      27.792 -14.748   1.709  0.00  0.00     0.335 C 
ATOM     18  O   UNL d   1      26.897 -13.930   1.492  0.00  0.00    -0.246 OA
ATOM     19  N   UNL d   1      28.930 -14.455   2.440  0.00  0.00    -0.338 N 
ATOM     20  H   UNL d   1      29.657 -15.152   2.525  0.00  0.00     0.164 HD
ATOM     21  H   UNL d   1      28.426 -16.753   1.363  0.00  0.00     0.192 HD
BRANCH  19  22
ATOM     22  C   UNL d   1      29.170 -13.120   3.026  0.00  0.00     0.078 C 
ATOM     23  C   UNL d   1      29.292 -12.048   1.940  0.00  0.00     0.032 C 
ATOM     24  C   UNL d   1      28.067 -12.680   4.002  0.00  0.00     0.032 C 
ENDBRANCH  19  22
ENDBRANCH   3  16
TORSDOF 7
ENDMDL
MODEL 5
REMARK VINA RESULT:    -7.017      3.727      8.796
REMARK INTER + INTRA:         -10.618
REMARK INTER:                  -9.105
REMARK INTRA:                  -1.514
REMARK CONF_INDEPENDENT:        2.088
REMARK UNBOUND:                -1.514
REMARK  7 active torsions:
REMARK  status: ('A' for Active; 'I' for Inactive)
REMARK    1  A    between atoms: C_5  and  O_6 
REMARK    2  A    between atoms: O_6  and  C_7 
REMARK    3  A    between atoms: C_7  and  C_8 
REMARK    4  A    between atoms: C_8  and  C_9 
REMARK    5  A    between atoms: C_9  and  C_10 
REMARK       I    between atoms: C_10  and  N_12 
REMARK    6  A    between atoms: N_12  and  N_13 
REMARK       I    between atoms: N_13  and  C_14 
REMARK       I    between atoms: C_14  and  N_16 
REMARK    7  A    between atoms: N_16  and  C_17 
ROOT
ATOM      1  C   UNL d   1      25.535 -14.550  -3.648  0.00  0.00     0.236 C 
ATOM      2  O   UNL d   1      24.811 -14.800  -4.614  0.00  0.00    -0.272 OA
ATOM      3  N   UNL d   1      25.863 -13.243  -3.311  0.00  0.00    -0.266 N 
ATOM      4  H   UNL d   1      26.459 -12.977  -2.529  0.00  0.00     0.190 HD
ENDROOT
BRANCH   1   5
ATOM      5  C   UNL d   1      26.122 -15.654  -2.749  0.00  0.00     0.106 C 
BRANCH   5   6
ATOM      6  C   UNL d   1      26.699 -15.090  -1.431  0.00  0.00     0.036 C 
BRANCH   6   7
ATOM      7  C   UNL d   1      26.040 -15.665  -0.170  0.00  0.00     0.176 C 
BRANCH   7   8
ATOM      8  O   UNL d   1      25.804 -17.075  -0.338  0.00  0.00    -0.351 OA
BRANCH   8   9
ATOM      9  C   UNL d   1      24.494 -17.462  -0.499  0.00  0.00     0.068 A 
ATOM     10  C   UNL d   1      24.230 -18.833  -0.391  0.00  0.00     0.037 A 
ATOM     11  C   UNL d   1      22.921 -19.325  -0.525  0.00  0.00     0.009 A 
ATOM     12  C   UNL d   1      21.857 -18.451  -0.769  0.00  0.00    -0.062 A 
ATOM     13  C   UNL d   1      20.446 -18.942  -0.896  0.00  0.00     0.048 C 
ATOM     14  C   UNL d   1      22.126 -17.084  -0.887  0.00  0.00     0.009 A 
ATOM     15  C   UNL d   1      23.430 -16.596  -0.754  0.00  0.00     0.037 A 
ENDBRANCH   8   9
ENDBRANCH   7   8
ENDBRANCH   6   7
ENDBRANCH   5   6
ENDBRANCH   1   5
BRANCH   3  16
ATOM     16  N   UNL d   1      25.361 -12.157  -4.109  0.00  0.00    -0.249 N 
ATOM     17  C   UNL d   1      25.670 -10.857  -3.750  0.00  0.00     0.335 C 
ATOM     18  O   UNL d   1      26.356 -10.614  -2.756  0.00  0.00    -0.246 OA
ATOM     19  N   UNL d   1      25.185  -9.877  -4.600  0.00  0.00    -0.338 N 
ATOM     20  H   UNL d   1      24.574 -10.140  -5.359  0.00  0.00     0.164 HD
ATOM     21  H   UNL d   1      24.764 -12.414  -4.889  0.00  0.00     0.192 HD
BRANCH  19  22
ATOM     22  C   UNL d   1      25.451  -8.441  -4.380  0.00  0.00     0.078 C 
ATOM     23  C   UNL d   1      24.376  -7.568  -5.031  0.00  0.00     0.032 C 
ATOM     24  C   UNL d   1      25.531  -8.060  -2.892  0.00  0.00     0.032 C 
ENDBRANCH  19  22
ENDBRANCH   3  16
TORSDOF 7
ENDMDL
MODEL 6
REMARK VINA RESULT:    -6.963      1.881      2.868
REMARK INTER + INTRA:         -10.218
REMARK INTER:                  -9.051
REMARK INTRA:                  -1.167
REMARK CONF_INDEPENDENT:        2.088
REMARK UNBOUND:                -1.167
REMARK  7 active torsions:
REMARK  status: ('A' for Active; 'I' for Inactive)
REMARK    1  A    between atoms: C_5  and  O_6 
REMARK    2  A    between atoms: O_6  and  C_7 
REMARK    3  A    between atoms: C_7  and  C_8 
REMARK    4  A    between atoms: C_8  and  C_9 
REMARK    5  A    between atoms: C_9  and  C_10 
REMARK       I    between atoms: C_10  and  N_12 
REMARK    6  A    between atoms: N_12  and  N_13 
REMARK       I    between atoms: N_13  and  C_14 
REMARK       I    between atoms: C_14  and  N_16 
REMARK    7  A    between atoms: N_16  and  C_17 
ROOT
ATOM      1  C   UNL d   1      24.834 -16.266  -1.834  0.00  0.00     0.236 C 
ATOM      2  O   UNL d   1      25.693 -17.149  -1.871  0.00  0.00    -0.272 OA
ATOM      3  N   UNL d   1      23.589 -16.493  -1.261  0.00  0.00    -0.266 N 
ATOM      4  H   UNL d   1      22.840 -15.805  -1.207  0.00  0.00     0.190 HD
ENDROOT
BRANCH   1   5
ATOM      5  C   UNL d   1      25.072 -14.858  -2.412  0.00  0.00     0.106 C 
BRANCH   5   6
ATOM      6  C   UNL d   1      25.478 -14.900  -3.903  0.00  0.00     0.036 C 
BRANCH   6   7
ATOM      7  C   UNL d   1      26.980 -15.120  -4.129  0.00  0.00     0.176 C 
BRANCH   7   8
ATOM      8  O   UNL d   1      27.259 -15.201  -5.538  0.00  0.00    -0.351 OA
BRANCH   8   9
ATOM      9  C   UNL d   1      28.586 -15.258  -5.898  0.00  0.00     0.068 A 
ATOM     10  C   UNL d   1      29.014 -14.331  -6.855  0.00  0.00     0.037 A 
ATOM     11  C   UNL d   1      30.354 -14.300  -7.277  0.00  0.00     0.009 A 
ATOM     12  C   UNL d   1      31.284 -15.198  -6.744  0.00  0.00    -0.062 A 
ATOM     13  C   UNL d   1      32.726 -15.176  -7.158  0.00  0.00     0.048 C 
ATOM     14  C   UNL d   1      30.851 -16.129  -5.796  0.00  0.00     0.009 A 
ATOM     15  C   UNL d   1      29.517 -16.159  -5.379  0.00  0.00     0.037 A 
ENDBRANCH   8   9
ENDBRANCH   7   8
ENDBRANCH   6   7
ENDBRANCH   5   6
ENDBRANCH   1   5
BRANCH   3  16
ATOM     16  N   UNL d   1      23.287 -17.786  -0.709  0.00  0.00    -0.249 N 
ATOM     17  C   UNL d   1      21.964 -18.168  -0.567  0.00  0.00     0.335 C 
ATOM     18  O   UNL d   1      21.044 -17.417  -0.894  0.00  0.00    -0.246 OA
ATOM     19  N   UNL d   1      21.767 -19.445  -0.071  0.00  0.00    -0.338 N 
ATOM     20  H   UNL d   1      22.562 -19.984   0.240  0.00  0.00     0.164 HD
ATOM     21  H   UNL d   1      24.083 -18.343  -0.414  0.00  0.00     0.192 HD
BRANCH  19  22
ATOM     22  C   UNL d   1      20.418 -20.020   0.112  0.00  0.00     0.078 C 
ATOM     23  C   UNL d   1      19.883 -19.752   1.520  0.00  0.00     0.032 C 
ATOM     24  C   UNL d   1      19.388 -19.481  -0.895  0.00  0.00     0.032 C 
ENDBRANCH  19  22
ENDBRANCH   3  16
TORSDOF 7
ENDMDL
MODEL 7
REMARK VINA RESULT:    -6.899      3.853      5.743
REMARK INTER + INTRA:         -10.504
REMARK INTER:                  -8.987
REMARK INTRA:                  -1.518
REMARK CONF_INDEPENDENT:        2.088
REMARK UNBOUND:                -1.518
REMARK  7 active torsions:
REMARK  status: ('A' for Active; 'I' for Inactive)
REMARK    1  A    between atoms: C_5  and  O_6 
REMARK    2  A    between atoms: O_6  and  C_7 
REMARK    3  A    between atoms: C_7  and  C_8 
REMARK    4  A    between atoms: C_8  and  C_9 
REMARK    5  A    between atoms: C_9  and  C_10 
REMARK       I    between atoms: C_10  and  N_12 
REMARK    6  A    between atoms: N_12  and  N_13 
REMARK       I    between atoms: N_13  and  C_14 
REMARK       I    between atoms: C_14  and  N_16 
REMARK    7  A    between atoms: N_16  and  C_17 
ROOT
ATOM      1  C   UNL d   1      25.392 -17.767  -0.056  0.00  0.00     0.236 C 
ATOM      2  O   UNL d   1      25.814 -18.522   0.822  0.00  0.00    -0.272 OA
ATOM      3  N   UNL d   1      24.051 -17.760  -0.419  0.00  0.00    -0.266 N 
ATOM      4  H   UNL d   1      23.647 -17.163  -1.139  0.00  0.00     0.190 HD
ENDROOT
BRANCH   1   5
ATOM      5  C   UNL d   1      26.308 -16.784  -0.810  0.00  0.00     0.106 C 
BRANCH   5   6
ATOM      6  C   UNL d   1      26.992 -15.777   0.142  0.00  0.00     0.036 C 
BRANCH   6   7
ATOM      7  C   UNL d   1      26.558 -14.322  -0.081  0.00  0.00     0.176 C 
BRANCH   7   8
ATOM      8  O   UNL d   1      27.541 -13.426   0.469  0.00  0.00    -0.351 OA
BRANCH   8   9
ATOM      9  C   UNL d   1      27.958 -13.687   1.754  0.00  0.00     0.068 A 
ATOM     10  C   UNL d   1      27.033 -13.436   2.774  0.00  0.00     0.037 A 
ATOM     11  C   UNL d   1      27.359 -13.685   4.117  0.00  0.00     0.009 A 
ATOM     12  C   UNL d   1      28.617 -14.191   4.458  0.00  0.00    -0.062 A 
ATOM     13  C   UNL d   1      28.989 -14.488   5.881  0.00  0.00     0.048 C 
ATOM     14  C   UNL d   1      29.543 -14.431   3.438  0.00  0.00     0.009 A 
ATOM     15  C   UNL d   1      29.216 -14.181   2.101  0.00  0.00     0.037 A 
ENDBRANCH   8   9
ENDBRANCH   7   8
ENDBRANCH   6   7
ENDBRANCH   5   6
ENDBRANCH   1   5
BRANCH   3  16
ATOM     16  N   UNL d   1      23.135 -18.657   0.233  0.00  0.00    -0.249 N 
ATOM     17  C   UNL d   1      21.786 -18.577  -0.065  0.00  0.00     0.335 C 
ATOM     18  O   UNL d   1      21.356 -17.746  -0.866  0.00  0.00    -0.246 OA
ATOM     19  N   UNL d   1      20.983 -19.508   0.572  0.00  0.00    -0.338 N 
ATOM     20  H   UNL d   1      21.389 -20.118   1.267  0.00  0.00     0.164 HD
ATOM     21  H   UNL d   1      23.539 -19.290   0.917  0.00  0.00     0.192 HD
BRANCH  19  22
ATOM     22  C   UNL d   1      19.526 -19.582   0.342  0.00  0.00     0.078 C 
ATOM     23  C   UNL d   1      19.196 -19.597  -1.153  0.00  0.00     0.032 C 
ATOM     24  C   UNL d   1      18.873 -20.818   0.982  0.00  0.00     0.032 C 
ENDBRANCH  19  22
ENDBRANCH   3  16
TORSDOF 7
ENDMDL
MODEL 8
REMARK VINA RESULT:    -6.846      2.139      9.155
REMARK INTER + INTRA:         -10.358
REMARK INTER:                  -8.935
REMARK INTRA:                  -1.423
REMARK CONF_INDEPENDENT:        2.088
REMARK UNBOUND:                -1.423
REMARK  7 active torsions:
REMARK  status: ('A' for Active; 'I' for Inactive)
REMARK    1  A    between atoms: C_5  and  O_6 
REMARK    2  A    between atoms: O_6  and  C_7 
REMARK    3  A    between atoms: C_7  and  C_8 
REMARK    4  A    between atoms: C_8  and  C_9 
REMARK    5  A    between atoms: C_9  and  C_10 
REMARK       I    between atoms: C_10  and  N_12 
REMARK    6  A    between atoms: N_12  and  N_13 
REMARK       I    between atoms: N_13  and  C_14 
REMARK       I    between atoms: C_14  and  N_16 
REMARK    7  A    between atoms: N_16  and  C_17 
ROOT
ATOM      1  C   UNL d   1      26.157 -16.927  -0.205  0.00  0.00     0.236 C 
ATOM      2  O   UNL d   1      27.019 -16.346   0.456  0.00  0.00    -0.272 OA
ATOM      3  N   UNL d   1      26.041 -16.726  -1.574  0.00  0.00    -0.266 N 
ATOM      4  H   UNL d   1      25.346 -17.174  -2.171  0.00  0.00     0.190 HD
ENDROOT
BRANCH   1   5
ATOM      5  C   UNL d   1      25.154 -17.911   0.428  0.00  0.00     0.106 C 
BRANCH   5   6
ATOM      6  C   UNL d   1      23.996 -18.264  -0.533  0.00  0.00     0.036 C 
BRANCH   6   7
ATOM      7  C   UNL d   1      22.656 -17.621  -0.149  0.00  0.00     0.176 C 
BRANCH   7   8
ATOM      8  O   UNL d   1      21.622 -18.071  -1.042  0.00  0.00    -0.351 OA
BRANCH   8   9
ATOM      9  C   UNL d   1      20.681 -18.922  -0.510  0.00  0.00     0.068 A 
ATOM     10  C   UNL d   1      20.931 -19.403   0.780  0.00  0.00     0.037 A 
ATOM     11  C   UNL d   1      20.023 -20.265   1.415  0.00  0.00     0.009 A 
ATOM     12  C   UNL d   1      18.848 -20.658   0.766  0.00  0.00    -0.062 A 
ATOM     13  C   UNL d   1      17.847 -21.560   1.425  0.00  0.00     0.048 C 
ATOM     14  C   UNL d   1      18.605 -20.184  -0.527  0.00  0.00     0.009 A 
ATOM     15  C   UNL d   1      19.513 -19.327  -1.157  0.00  0.00     0.037 A 
ENDBRANCH   8   9
ENDBRANCH   7   8
ENDBRANCH   6   7
ENDBRANCH   5   6
ENDBRANCH   1   5
BRANCH   3  16
ATOM     16  N   UNL d   1      26.934 -15.815  -2.237  0.00  0.00    -0.249 N 
ATOM     17  C   UNL d   1      26.584 -15.307  -3.476  0.00  0.00     0.335 C 
ATOM     18  O   UNL d   1      25.530 -15.630  -4.025  0.00  0.00    -0.246 OA
ATOM     19  N   UNL d   1      27.480 -14.402  -4.018  0.00  0.00    -0.338 N 
ATOM     20  H   UNL d   1      28.357 -14.231  -3.548  0.00  0.00     0.164 HD
ATOM     21  H   UNL d   1      27.809 -15.620  -1.759  0.00  0.00     0.192 HD
BRANCH  19  22
ATOM     22  C   UNL d   1      27.243 -13.741  -5.319  0.00  0.00     0.078 C 
ATOM     23  C   UNL d   1      27.014 -12.238  -5.148  0.00  0.00     0.032 C 
ATOM     24  C   UNL d   1      28.399 -13.934  -6.315  0.00  0.00     0.032 C 
ENDBRANCH  19  22
ENDBRANCH   3  16
TORSDOF 7
ENDMDL
MODEL 9
REMARK VINA RESULT:    -6.291      4.333      7.810
REMARK INTER + INTRA:         -10.265
REMARK INTER:                  -8.379
REMARK INTRA:                  -1.886
REMARK CONF_INDEPENDENT:        2.088
REMARK UNBOUND:                -1.886
REMARK  7 active torsions:
REMARK  status: ('A' for Active; 'I' for Inactive)
REMARK    1  A    between atoms: C_5  and  O_6 
REMARK    2  A    between atoms: O_6  and  C_7 
REMARK    3  A    between atoms: C_7  and  C_8 
REMARK    4  A    between atoms: C_8  and  C_9 
REMARK    5  A    between atoms: C_9  and  C_10 
REMARK       I    between atoms: C_10  and  N_12 
REMARK    6  A    between atoms: N_12  and  N_13 
REMARK       I    between atoms: N_13  and  C_14 
REMARK       I    between atoms: C_14  and  N_16 
REMARK    7  A    between atoms: N_16  and  C_17 
ROOT
ATOM      1  C   UNL d   1      28.928 -15.760  -1.146  0.00  0.00     0.236 C 
ATOM      2  O   UNL d   1      29.747 -16.636  -0.859  0.00  0.00    -0.272 OA
ATOM      3  N   UNL d   1      28.301 -15.009  -0.161  0.00  0.00    -0.266 N 
ATOM      4  H   UNL d   1      27.614 -14.277  -0.337  0.00  0.00     0.190 HD
ENDROOT
BRANCH   1   5
ATOM      5  C   UNL d   1      28.544 -15.435  -2.601  0.00  0.00     0.106 C 
BRANCH   5   6
ATOM      6  C   UNL d   1      27.156 -14.762  -2.702  0.00  0.00     0.036 C 
BRANCH   6   7
ATOM      7  C   UNL d   1      25.982 -15.741  -2.559  0.00  0.00     0.176 C 
BRANCH   7   8
ATOM      8  O   UNL d   1      25.823 -16.120  -1.180  0.00  0.00    -0.351 OA
BRANCH   8   9
ATOM      9  C   UNL d   1      24.689 -16.834  -0.868  0.00  0.00     0.068 A 
ATOM     10  C   UNL d   1      24.875 -18.171  -0.497  0.00  0.00     0.037 A 
ATOM     11  C   UNL d   1      23.781 -18.978  -0.146  0.00  0.00     0.009 A 
ATOM     12  C   UNL d   1      22.483 -18.457  -0.161  0.00  0.00    -0.062 A 
ATOM     13  C   UNL d   1      21.295 -19.287   0.229  0.00  0.00     0.048 C 
ATOM     14  C   UNL d   1      22.299 -17.125  -0.543  0.00  0.00     0.009 A 
ATOM     15  C   UNL d   1      23.390 -16.324  -0.893  0.00  0.00     0.037 A 
ENDBRANCH   8   9
ENDBRANCH   7   8
ENDBRANCH   6   7
ENDBRANCH   5   6
ENDBRANCH   1   5
BRANCH   3  16
ATOM     16  N   UNL d   1      28.600 -15.260   1.224  0.00  0.00    -0.249 N 
ATOM     17  C   UNL d   1      28.000 -14.481   2.196  0.00  0.00     0.335 C 
ATOM     18  O   UNL d   1      27.225 -13.571   1.899  0.00  0.00    -0.246 OA
ATOM     19  N   UNL d   1      28.308 -14.822   3.502  0.00  0.00    -0.338 N 
ATOM     20  H   UNL d   1      29.002 -15.536   3.676  0.00  0.00     0.164 HD
ATOM     21  H   UNL d   1      29.280 -15.992   1.408  0.00  0.00     0.192 HD
BRANCH  19  22
ATOM     22  C   UNL d   1      27.728 -14.113   4.661  0.00  0.00     0.078 C 
ATOM     23  C   UNL d   1      28.414 -14.522   5.967  0.00  0.00     0.032 C 
ATOM     24  C   UNL d   1      27.817 -12.583   4.540  0.00  0.00     0.032 C 
ENDBRANCH  19  22
ENDBRANCH   3  16
TORSDOF 7
ENDMDL
