MODEL 1
REMARK VINA RESULT:    -6.497      0.000      0.000
REMARK INTER + INTRA:          -9.526
REMARK INTER:                  -7.989
REMARK INTRA:                  -1.537
REMARK CONF_INDEPENDENT:        1.492
REMARK UNBOUND:                -1.537
REMARK  5 active torsions:
REMARK  status: ('A' for Active; 'I' for Inactive)
REMARK    1  A    between atoms: C_2  and  N_4 
REMARK    2  A    between atoms: C_5  and  C_6 
REMARK    3  A    between atoms: C_6  and  N_7 
REMARK       I    between atoms: N_7  and  C_8 
REMARK    4  A    between atoms: C_8  and  C_10 
REMARK    5  A    between atoms: C_15  and  N_16 
ROOT
ATOM      1  N   UNL d   1      25.849 -14.346  -3.106  0.00  0.00    -0.350 N 
ATOM      2  C   UNL d   1      25.249 -13.683  -4.151  0.00  0.00     0.254 C 
ATOM      3  O   UNL d   1      24.030 -13.664  -4.337  0.00  0.00    -0.268 OA
ATOM      4  H   UNL d   1      26.843 -14.541  -3.129  0.00  0.00     0.163 HD
ENDROOT
BRANCH   2   5
ATOM      5  C   UNL d   1      26.127 -12.915  -5.067  0.00  0.00     0.067 A 
ATOM      6  C   UNL d   1      25.790 -11.549  -5.229  0.00  0.00     0.059 A 
ATOM      7  C   UNL d   1      26.522 -10.724  -6.087  0.00  0.00     0.103 A 
ATOM      8  C   UNL d   1      27.610 -11.246  -6.782  0.00  0.00     0.104 A 
ATOM      9  O   UNL d   1      26.129  -9.415  -6.197  0.00  0.00    -0.346 OA
ATOM     10  C   UNL d   1      27.945 -12.591  -6.648  0.00  0.00     0.076 A 
ATOM     11  O   UNL d   1      28.388 -10.510  -7.635  0.00  0.00    -0.346 OA
ATOM     12  C   UNL d   1      27.207 -13.439  -5.796  0.00  0.00     0.121 A 
ATOM     13  C   UNL d   1      28.194  -9.102  -7.458  0.00  0.00     0.202 C 
ATOM     14  C   UNL d   1      26.717  -8.767  -7.335  0.00  0.00     0.202 C 
BRANCH  12  15
ATOM     15  N   UNL d   1      27.610 -14.857  -5.773  0.00  0.00    -0.115 N 
ATOM     16  O   UNL d   1      27.039 -15.641  -5.015  0.00  0.00    -0.532 OA
ATOM     17  O   UNL d   1      28.531 -15.199  -6.529  0.00  0.00    -0.532 OA
ENDBRANCH  12  15
ENDBRANCH   2   5
BRANCH   1  18
ATOM     18  C   UNL d   1      25.091 -15.310  -2.345  0.00  0.00     0.203 C 
BRANCH  18  19
ATOM     19  C   UNL d   1      25.894 -16.052  -1.282  0.00  0.00     0.147 A 
ATOM     20  N   UNL d   1      25.393 -17.044  -0.492  0.00  0.00    -0.304 N 
ATOM     21  C   UNL d   1      26.484 -17.483   0.242  0.00  0.00     0.196 A 
ATOM     22  N   UNL d   1      27.540 -16.669  -0.118  0.00  0.00    -0.251 N 
ATOM     23  S   UNL d   1      26.655 -18.702   1.356  0.00  0.00    -0.039 SA
ATOM     24  N   UNL d   1      27.162 -15.795  -1.087  0.00  0.00    -0.157 NA
ATOM     25  H   UNL d   1      28.478 -16.707   0.262  0.00  0.00     0.191 HD
BRANCH  20  26
ATOM     26  C   UNL d   1      24.005 -17.529  -0.300  0.00  0.00     0.086 C 
ATOM     27  C   UNL d   1      23.004 -16.374  -0.446  0.00  0.00     0.032 C 
ATOM     28  C   UNL d   1      23.551 -18.622  -1.263  0.00  0.00     0.032 C 
ENDBRANCH  20  26
ENDBRANCH  18  19
ENDBRANCH   1  18
TORSDOF 5
ENDMDL
MODEL 2
REMARK VINA RESULT:    -5.936      3.979      8.152
REMARK INTER + INTRA:          -9.220
REMARK INTER:                  -7.427
REMARK INTRA:                  -1.793
REMARK CONF_INDEPENDENT:        1.492
REMARK UNBOUND:                -1.793
REMARK  5 active torsions:
REMARK  status: ('A' for Active; 'I' for Inactive)
REMARK    1  A    between atoms: C_2  and  N_4 
REMARK    2  A    between atoms: C_5  and  C_6 
REMARK    3  A    between atoms: C_6  and  N_7 
REMARK       I    between atoms: N_7  and  C_8 
REMARK    4  A    between atoms: C_8  and  C_10 
REMARK    5  A    between atoms: C_15  and  N_16 
ROOT
ATOM      1  N   UNL d   1      26.290 -12.243  -3.234  0.00  0.00    -0.350 N 
ATOM      2  C   UNL d   1      26.849 -12.963  -2.204  0.00  0.00     0.254 C 
ATOM      3  O   UNL d   1      27.761 -12.537  -1.491  0.00  0.00    -0.268 OA
ATOM      4  H   UNL d   1      25.729 -12.710  -3.937  0.00  0.00     0.163 HD
ENDROOT
BRANCH   2   5
ATOM      5  C   UNL d   1      26.281 -14.303  -1.920  0.00  0.00     0.067 A 
ATOM      6  C   UNL d   1      26.794 -14.948  -0.768  0.00  0.00     0.059 A 
ATOM      7  C   UNL d   1      26.361 -16.227  -0.406  0.00  0.00     0.103 A 
ATOM      8  C   UNL d   1      25.399 -16.872  -1.179  0.00  0.00     0.104 A 
ATOM      9  O   UNL d   1      26.910 -16.789   0.717  0.00  0.00    -0.346 OA
ATOM     10  C   UNL d   1      24.896 -16.259  -2.324  0.00  0.00     0.076 A 
ATOM     11  O   UNL d   1      24.910 -18.119  -0.896  0.00  0.00    -0.346 OA
ATOM     12  C   UNL d   1      25.333 -14.975  -2.709  0.00  0.00     0.121 A 
ATOM     13  C   UNL d   1      25.216 -18.522   0.444  0.00  0.00     0.202 C 
ATOM     14  C   UNL d   1      26.658 -18.200   0.795  0.00  0.00     0.202 C 
BRANCH  12  15
ATOM     15  N   UNL d   1      24.781 -14.444  -3.968  0.00  0.00    -0.115 N 
ATOM     16  O   UNL d   1      23.778 -13.730  -3.942  0.00  0.00    -0.532 OA
ATOM     17  O   UNL d   1      25.360 -14.755  -5.019  0.00  0.00    -0.532 OA
ENDBRANCH  12  15
ENDBRANCH   2   5
BRANCH   1  18
ATOM     18  C   UNL d   1      26.959 -11.061  -3.723  0.00  0.00     0.203 C 
BRANCH  18  19
ATOM     19  C   UNL d   1      26.031  -9.896  -4.050  0.00  0.00     0.147 A 
ATOM     20  N   UNL d   1      25.543  -9.628  -5.294  0.00  0.00    -0.304 N 
ATOM     21  C   UNL d   1      24.685  -8.557  -5.103  0.00  0.00     0.196 A 
ATOM     22  N   UNL d   1      24.780  -8.223  -3.767  0.00  0.00    -0.251 N 
ATOM     23  S   UNL d   1      23.689  -7.731  -6.145  0.00  0.00    -0.039 SA
ATOM     24  N   UNL d   1      25.607  -9.082  -3.117  0.00  0.00    -0.157 NA
ATOM     25  H   UNL d   1      24.300  -7.458  -3.308  0.00  0.00     0.191 HD
BRANCH  20  26
ATOM     26  C   UNL d   1      25.880 -10.204  -6.619  0.00  0.00     0.086 C 
ATOM     27  C   UNL d   1      26.663  -9.192  -7.465  0.00  0.00     0.032 C 
ATOM     28  C   UNL d   1      26.713 -11.483  -6.587  0.00  0.00     0.032 C 
ENDBRANCH  20  26
ENDBRANCH  18  19
ENDBRANCH   1  18
TORSDOF 5
ENDMDL
MODEL 3
REMARK VINA RESULT:    -5.927      3.696      8.027
REMARK INTER + INTRA:          -9.553
REMARK INTER:                  -7.419
REMARK INTRA:                  -2.134
REMARK CONF_INDEPENDENT:        1.492
REMARK UNBOUND:                -2.134
REMARK  5 active torsions:
REMARK  status: ('A' for Active; 'I' for Inactive)
REMARK    1  A    between atoms: C_2  and  N_4 
REMARK    2  A    between atoms: C_5  and  C_6 
REMARK    3  A    between atoms: C_6  and  N_7 
REMARK       I    between atoms: N_7  and  C_8 
REMARK    4  A    between atoms: C_8  and  C_10 
REMARK    5  A    between atoms: C_15  and  N_16 
ROOT
ATOM      1  N   UNL d   1      27.888 -13.492  -4.115  0.00  0.00    -0.350 N 
ATOM      2  C   UNL d   1      28.250 -14.279  -3.047  0.00  0.00     0.254 C 
ATOM      3  O   UNL d   1      29.351 -14.215  -2.494  0.00  0.00    -0.268 OA
ATOM      4  H   UNL d   1      27.088 -13.741  -4.685  0.00  0.00     0.163 HD
ENDROOT
BRANCH   2   5
ATOM      5  C   UNL d   1      27.232 -15.217  -2.514  0.00  0.00     0.067 A 
ATOM      6  C   UNL d   1      27.542 -15.802  -1.262  0.00  0.00     0.059 A 
ATOM      7  C   UNL d   1      26.677 -16.725  -0.665  0.00  0.00     0.103 A 
ATOM      8  C   UNL d   1      25.485 -17.062  -1.300  0.00  0.00     0.104 A 
ATOM      9  O   UNL d   1      27.051 -17.254   0.543  0.00  0.00    -0.346 OA
ATOM     10  C   UNL d   1      25.173 -16.508  -2.540  0.00  0.00     0.076 A 
ATOM     11  O   UNL d   1      24.576 -17.947  -0.786  0.00  0.00    -0.346 OA
ATOM     12  C   UNL d   1      26.041 -15.587  -3.160  0.00  0.00     0.121 A 
ATOM     13  C   UNL d   1      24.804 -18.200   0.605  0.00  0.00     0.202 C 
ATOM     14  C   UNL d   1      26.281 -18.416   0.886  0.00  0.00     0.202 C 
BRANCH  12  15
ATOM     15  N   UNL d   1      25.642 -15.108  -4.496  0.00  0.00    -0.115 N 
ATOM     16  O   UNL d   1      24.735 -14.281  -4.603  0.00  0.00    -0.532 OA
ATOM     17  O   UNL d   1      26.247 -15.575  -5.472  0.00  0.00    -0.532 OA
ENDBRANCH  12  15
ENDBRANCH   2   5
BRANCH   1  18
ATOM     18  C   UNL d   1      28.902 -12.759  -4.835  0.00  0.00     0.203 C 
BRANCH  18  19
ATOM     19  C   UNL d   1      28.700 -12.716  -6.347  0.00  0.00     0.147 A 
ATOM     20  N   UNL d   1      27.921 -11.803  -6.992  0.00  0.00    -0.304 N 
ATOM     21  C   UNL d   1      28.109 -12.081  -8.337  0.00  0.00     0.196 A 
ATOM     22  N   UNL d   1      28.935 -13.186  -8.388  0.00  0.00    -0.251 N 
ATOM     23  S   UNL d   1      27.538 -11.348  -9.714  0.00  0.00    -0.039 SA
ATOM     24  N   UNL d   1      29.314 -13.558  -7.138  0.00  0.00    -0.157 NA
ATOM     25  H   UNL d   1      29.241 -13.664  -9.228  0.00  0.00     0.191 HD
BRANCH  20  26
ATOM     26  C   UNL d   1      26.967 -10.793  -6.472  0.00  0.00     0.086 C 
ATOM     27  C   UNL d   1      25.899 -11.461  -5.595  0.00  0.00     0.032 C 
ATOM     28  C   UNL d   1      27.584  -9.678  -5.633  0.00  0.00     0.032 C 
ENDBRANCH  20  26
ENDBRANCH  18  19
ENDBRANCH   1  18
TORSDOF 5
ENDMDL
MODEL 4
REMARK VINA RESULT:    -5.713      3.520      7.944
REMARK INTER + INTRA:          -9.499
REMARK INTER:                  -7.205
REMARK INTRA:                  -2.294
REMARK CONF_INDEPENDENT:        1.492
REMARK UNBOUND:                -2.294
REMARK  5 active torsions:
REMARK  status: ('A' for Active; 'I' for Inactive)
REMARK    1  A    between atoms: C_2  and  N_4 
REMARK    2  A    between atoms: C_5  and  C_6 
REMARK    3  A    between atoms: C_6  and  N_7 
REMARK       I    between atoms: N_7  and  C_8 
REMARK    4  A    between atoms: C_8  and  C_10 
REMARK    5  A    between atoms: C_15  and  N_16 
ROOT
ATOM      1  N   UNL d   1      27.777 -14.459  -3.491  0.00  0.00    -0.350 N 
ATOM      2  C   UNL d   1      27.587 -15.641  -2.813  0.00  0.00     0.254 C 
ATOM      3  O   UNL d   1      28.491 -16.445  -2.577  0.00  0.00    -0.268 OA
ATOM      4  H   UNL d   1      26.985 -13.957  -3.874  0.00  0.00     0.163 HD
ENDROOT
BRANCH   2   5
ATOM      5  C   UNL d   1      26.223 -15.925  -2.306  0.00  0.00     0.067 A 
ATOM      6  C   UNL d   1      26.092 -17.114  -1.548  0.00  0.00     0.059 A 
ATOM      7  C   UNL d   1      24.852 -17.509  -1.037  0.00  0.00     0.103 A 
ATOM      8  C   UNL d   1      23.730 -16.715  -1.261  0.00  0.00     0.104 A 
ATOM      9  O   UNL d   1      24.805 -18.677  -0.319  0.00  0.00    -0.346 OA
ATOM     10  C   UNL d   1      23.838 -15.551  -2.018  0.00  0.00     0.076 A 
ATOM     11  O   UNL d   1      22.481 -17.019  -0.791  0.00  0.00    -0.346 OA
ATOM     12  C   UNL d   1      25.079 -15.147  -2.551  0.00  0.00     0.121 A 
ATOM     13  C   UNL d   1      22.522 -18.018   0.234  0.00  0.00     0.202 C 
ATOM     14  C   UNL d   1      23.461 -19.151  -0.146  0.00  0.00     0.202 C 
BRANCH  12  15
ATOM     15  N   UNL d   1      25.069 -13.932  -3.387  0.00  0.00    -0.115 N 
ATOM     16  O   UNL d   1      25.312 -12.838  -2.876  0.00  0.00    -0.532 OA
ATOM     17  O   UNL d   1      24.804 -14.071  -4.590  0.00  0.00    -0.532 OA
ENDBRANCH  12  15
ENDBRANCH   2   5
BRANCH   1  18
ATOM     18  C   UNL d   1      29.002 -14.249  -4.226  0.00  0.00     0.203 C 
BRANCH  18  19
ATOM     19  C   UNL d   1      28.806 -13.775  -5.663  0.00  0.00     0.147 A 
ATOM     20  N   UNL d   1      28.147 -12.634  -6.013  0.00  0.00    -0.304 N 
ATOM     21  C   UNL d   1      28.297 -12.559  -7.388  0.00  0.00     0.196 A 
ATOM     22  N   UNL d   1      28.978 -13.701  -7.762  0.00  0.00    -0.251 N 
ATOM     23  S   UNL d   1      27.821 -11.418  -8.497  0.00  0.00    -0.039 SA
ATOM     24  N   UNL d   1      29.308 -14.439  -6.671  0.00  0.00    -0.157 NA
ATOM     25  H   UNL d   1      29.220 -13.967  -8.709  0.00  0.00     0.191 HD
BRANCH  20  26
ATOM     26  C   UNL d   1      27.328 -11.695  -5.208  0.00  0.00     0.086 C 
ATOM     27  C   UNL d   1      28.018 -10.328  -5.107  0.00  0.00     0.032 C 
ATOM     28  C   UNL d   1      25.919 -11.435  -5.733  0.00  0.00     0.032 C 
ENDBRANCH  20  26
ENDBRANCH  18  19
ENDBRANCH   1  18
TORSDOF 5
ENDMDL
MODEL 5
REMARK VINA RESULT:    -5.612      3.725      7.688
REMARK INTER + INTRA:          -9.197
REMARK INTER:                  -7.104
REMARK INTRA:                  -2.093
REMARK CONF_INDEPENDENT:        1.492
REMARK UNBOUND:                -2.093
REMARK  5 active torsions:
REMARK  status: ('A' for Active; 'I' for Inactive)
REMARK    1  A    between atoms: C_2  and  N_4 
REMARK    2  A    between atoms: C_5  and  C_6 
REMARK    3  A    between atoms: C_6  and  N_7 
REMARK       I    between atoms: N_7  and  C_8 
REMARK    4  A    between atoms: C_8  and  C_10 
REMARK    5  A    between atoms: C_15  and  N_16 
ROOT
ATOM      1  N   UNL d   1      28.246 -15.127  -2.854  0.00  0.00    -0.350 N 
ATOM      2  C   UNL d   1      27.861 -16.189  -2.070  0.00  0.00     0.254 C 
ATOM      3  O   UNL d   1      28.655 -16.967  -1.537  0.00  0.00    -0.268 OA
ATOM      4  H   UNL d   1      27.576 -14.672  -3.462  0.00  0.00     0.163 HD
ENDROOT
BRANCH   2   5
ATOM      5  C   UNL d   1      26.408 -16.365  -1.824  0.00  0.00     0.067 A 
ATOM      6  C   UNL d   1      26.054 -17.512  -1.074  0.00  0.00     0.059 A 
ATOM      7  C   UNL d   1      24.715 -17.807  -0.798  0.00  0.00     0.103 A 
ATOM      8  C   UNL d   1      23.715 -16.951  -1.252  0.00  0.00     0.104 A 
ATOM      9  O   UNL d   1      24.451 -18.940  -0.073  0.00  0.00    -0.346 OA
ATOM     10  C   UNL d   1      24.045 -15.827  -2.005  0.00  0.00     0.076 A 
ATOM     11  O   UNL d   1      22.381 -17.155  -1.021  0.00  0.00    -0.346 OA
ATOM     12  C   UNL d   1      25.389 -15.525  -2.302  0.00  0.00     0.121 A 
ATOM     13  C   UNL d   1      22.158 -18.115   0.019  0.00  0.00     0.202 C 
ATOM     14  C   UNL d   1      23.069 -19.319  -0.146  0.00  0.00     0.202 C 
BRANCH  12  15
ATOM     15  N   UNL d   1      25.623 -14.345  -3.155  0.00  0.00    -0.115 N 
ATOM     16  O   UNL d   1      26.073 -13.312  -2.657  0.00  0.00    -0.532 OA
ATOM     17  O   UNL d   1      25.342 -14.448  -4.358  0.00  0.00    -0.532 OA
ENDBRANCH  12  15
ENDBRANCH   2   5
BRANCH   1  18
ATOM     18  C   UNL d   1      29.604 -15.056  -3.339  0.00  0.00     0.203 C 
BRANCH  18  19
ATOM     19  C   UNL d   1      30.013 -16.209  -4.250  0.00  0.00     0.147 A 
ATOM     20  N   UNL d   1      29.939 -16.179  -5.610  0.00  0.00    -0.304 N 
ATOM     21  C   UNL d   1      30.495 -17.383  -6.012  0.00  0.00     0.196 A 
ATOM     22  N   UNL d   1      30.796 -18.071  -4.853  0.00  0.00    -0.251 N 
ATOM     23  S   UNL d   1      30.801 -18.018  -7.516  0.00  0.00    -0.039 SA
ATOM     24  N   UNL d   1      30.511 -17.317  -3.761  0.00  0.00    -0.157 NA
ATOM     25  H   UNL d   1      31.188 -19.004  -4.799  0.00  0.00     0.191 HD
BRANCH  20  26
ATOM     26  C   UNL d   1      29.318 -15.195  -6.530  0.00  0.00     0.086 C 
ATOM     27  C   UNL d   1      27.914 -14.812  -6.044  0.00  0.00     0.032 C 
ATOM     28  C   UNL d   1      30.087 -13.889  -6.713  0.00  0.00     0.032 C 
ENDBRANCH  20  26
ENDBRANCH  18  19
ENDBRANCH   1  18
TORSDOF 5
ENDMDL
MODEL 6
REMARK VINA RESULT:    -5.608      3.967      7.656
REMARK INTER + INTRA:          -9.219
REMARK INTER:                  -7.100
REMARK INTRA:                  -2.119
REMARK CONF_INDEPENDENT:        1.492
REMARK UNBOUND:                -2.119
REMARK  5 active torsions:
REMARK  status: ('A' for Active; 'I' for Inactive)
REMARK    1  A    between atoms: C_2  and  N_4 
REMARK    2  A    between atoms: C_5  and  C_6 
REMARK    3  A    between atoms: C_6  and  N_7 
REMARK       I    between atoms: N_7  and  C_8 
REMARK    4  A    between atoms: C_8  and  C_10 
REMARK    5  A    between atoms: C_15  and  N_16 
ROOT
ATOM      1  N   UNL d   1      27.859 -14.255  -3.106  0.00  0.00    -0.350 N 
ATOM      2  C   UNL d   1      27.700 -15.385  -2.338  0.00  0.00     0.254 C 
ATOM      3  O   UNL d   1      28.642 -16.045  -1.891  0.00  0.00    -0.268 OA
ATOM      4  H   UNL d   1      27.084 -13.893  -3.648  0.00  0.00     0.163 HD
ENDROOT
BRANCH   2   5
ATOM      5  C   UNL d   1      26.314 -15.792  -2.000  0.00  0.00     0.067 A 
ATOM      6  C   UNL d   1      26.199 -16.983  -1.243  0.00  0.00     0.059 A 
ATOM      7  C   UNL d   1      24.945 -17.488  -0.884  0.00  0.00     0.103 A 
ATOM      8  C   UNL d   1      23.793 -16.804  -1.260  0.00  0.00     0.104 A 
ATOM      9  O   UNL d   1      24.915 -18.651  -0.158  0.00  0.00    -0.346 OA
ATOM     10  C   UNL d   1      23.888 -15.639  -2.019  0.00  0.00     0.076 A 
ATOM     11  O   UNL d   1      22.527 -17.219  -0.945  0.00  0.00    -0.346 OA
ATOM     12  C   UNL d   1      25.145 -15.125  -2.400  0.00  0.00     0.121 A 
ATOM     13  C   UNL d   1      22.530 -18.204   0.094  0.00  0.00     0.202 C 
ATOM     14  C   UNL d   1      23.609 -19.247  -0.145  0.00  0.00     0.202 C 
BRANCH  12  15
ATOM     15  N   UNL d   1      25.129 -13.921  -3.251  0.00  0.00    -0.115 N 
ATOM     16  O   UNL d   1      25.396 -12.823  -2.761  0.00  0.00    -0.532 OA
ATOM     17  O   UNL d   1      24.834 -14.073  -4.446  0.00  0.00    -0.532 OA
ENDBRANCH  12  15
ENDBRANCH   2   5
BRANCH   1  18
ATOM     18  C   UNL d   1      29.150 -13.960  -3.679  0.00  0.00     0.203 C 
BRANCH  18  19
ATOM     19  C   UNL d   1      29.453 -14.703  -4.977  0.00  0.00     0.147 A 
ATOM     20  N   UNL d   1      30.199 -15.841  -5.055  0.00  0.00    -0.304 N 
ATOM     21  C   UNL d   1      30.129 -16.207  -6.390  0.00  0.00     0.196 A 
ATOM     22  N   UNL d   1      29.401 -15.217  -7.021  0.00  0.00    -0.251 N 
ATOM     23  S   UNL d   1      30.734 -17.513  -7.218  0.00  0.00    -0.039 SA
ATOM     24  N   UNL d   1      28.967 -14.297  -6.121  0.00  0.00    -0.157 NA
ATOM     25  H   UNL d   1      29.194 -15.168  -8.011  0.00  0.00     0.191 HD
BRANCH  20  26
ATOM     26  C   UNL d   1      31.029 -16.535  -4.040  0.00  0.00     0.086 C 
ATOM     27  C   UNL d   1      30.482 -17.942  -3.766  0.00  0.00     0.032 C 
ATOM     28  C   UNL d   1      32.503 -16.703  -4.399  0.00  0.00     0.032 C 
ENDBRANCH  20  26
ENDBRANCH  18  19
ENDBRANCH   1  18
TORSDOF 5
ENDMDL
MODEL 7
REMARK VINA RESULT:    -5.385      3.710      7.564
REMARK INTER + INTRA:          -9.291
REMARK INTER:                  -6.876
REMARK INTRA:                  -2.415
REMARK CONF_INDEPENDENT:        1.492
REMARK UNBOUND:                -2.415
REMARK  5 active torsions:
REMARK  status: ('A' for Active; 'I' for Inactive)
REMARK    1  A    between atoms: C_2  and  N_4 
REMARK    2  A    between atoms: C_5  and  C_6 
REMARK    3  A    between atoms: C_6  and  N_7 
REMARK       I    between atoms: N_7  and  C_8 
REMARK    4  A    between atoms: C_8  and  C_10 
REMARK    5  A    between atoms: C_15  and  N_16 
ROOT
ATOM      1  N   UNL d   1      27.730 -13.449  -4.193  0.00  0.00    -0.350 N 
ATOM      2  C   UNL d   1      28.000 -14.006  -2.965  0.00  0.00     0.254 C 
ATOM      3  O   UNL d   1      28.950 -13.667  -2.256  0.00  0.00    -0.268 OA
ATOM      4  H   UNL d   1      27.104 -13.916  -4.839  0.00  0.00     0.163 HD
ENDROOT
BRANCH   2   5
ATOM      5  C   UNL d   1      27.061 -15.038  -2.461  0.00  0.00     0.067 A 
ATOM      6  C   UNL d   1      27.362 -15.559  -1.179  0.00  0.00     0.059 A 
ATOM      7  C   UNL d   1      26.569 -16.557  -0.604  0.00  0.00     0.103 A 
ATOM      8  C   UNL d   1      25.458 -17.036  -1.292  0.00  0.00     0.104 A 
ATOM      9  O   UNL d   1      26.930 -17.016   0.637  0.00  0.00    -0.346 OA
ATOM     10  C   UNL d   1      25.157 -16.546  -2.561  0.00  0.00     0.076 A 
ATOM     11  O   UNL d   1      24.622 -18.003  -0.803  0.00  0.00    -0.346 OA
ATOM     12  C   UNL d   1      25.954 -15.549  -3.159  0.00  0.00     0.121 A 
ATOM     13  C   UNL d   1      24.797 -18.200   0.605  0.00  0.00     0.202 C 
ATOM     14  C   UNL d   1      26.271 -18.247   0.970  0.00  0.00     0.202 C 
BRANCH  12  15
ATOM     15  N   UNL d   1      25.582 -15.145  -4.527  0.00  0.00    -0.115 N 
ATOM     16  O   UNL d   1      26.072 -15.733  -5.492  0.00  0.00    -0.532 OA
ATOM     17  O   UNL d   1      24.780 -14.207  -4.645  0.00  0.00    -0.532 OA
ENDBRANCH  12  15
ENDBRANCH   2   5
BRANCH   1  18
ATOM     18  C   UNL d   1      28.733 -12.643  -4.845  0.00  0.00     0.203 C 
BRANCH  18  19
ATOM     19  C   UNL d   1      29.532 -13.372  -5.921  0.00  0.00     0.147 A 
ATOM     20  N   UNL d   1      30.126 -14.587  -5.748  0.00  0.00    -0.304 N 
ATOM     21  C   UNL d   1      30.646 -14.896  -6.994  0.00  0.00     0.196 A 
ATOM     22  N   UNL d   1      30.383 -13.806  -7.800  0.00  0.00    -0.251 N 
ATOM     23  S   UNL d   1      31.445 -16.236  -7.563  0.00  0.00    -0.039 SA
ATOM     24  N   UNL d   1      29.667 -12.872  -7.123  0.00  0.00    -0.157 NA
ATOM     25  H   UNL d   1      30.661 -13.700  -8.769  0.00  0.00     0.191 HD
BRANCH  20  26
ATOM     26  C   UNL d   1      30.328 -15.408  -4.529  0.00  0.00     0.086 C 
ATOM     27  C   UNL d   1      29.655 -16.778  -4.683  0.00  0.00     0.032 C 
ATOM     28  C   UNL d   1      31.783 -15.677  -4.152  0.00  0.00     0.032 C 
ENDBRANCH  20  26
ENDBRANCH  18  19
ENDBRANCH   1  18
TORSDOF 5
ENDMDL
MODEL 8
REMARK VINA RESULT:    -5.348      3.798      7.982
REMARK INTER + INTRA:          -9.097
REMARK INTER:                  -6.840
REMARK INTRA:                  -2.257
REMARK CONF_INDEPENDENT:        1.492
REMARK UNBOUND:                -2.257
REMARK  5 active torsions:
REMARK  status: ('A' for Active; 'I' for Inactive)
REMARK    1  A    between atoms: C_2  and  N_4 
REMARK    2  A    between atoms: C_5  and  C_6 
REMARK    3  A    between atoms: C_6  and  N_7 
REMARK       I    between atoms: N_7  and  C_8 
REMARK    4  A    between atoms: C_8  and  C_10 
REMARK    5  A    between atoms: C_15  and  N_16 
ROOT
ATOM      1  N   UNL d   1      27.499 -13.144  -4.069  0.00  0.00    -0.350 N 
ATOM      2  C   UNL d   1      27.837 -13.765  -2.889  0.00  0.00     0.254 C 
ATOM      3  O   UNL d   1      28.801 -13.434  -2.195  0.00  0.00    -0.268 OA
ATOM      4  H   UNL d   1      26.866 -13.593  -4.720  0.00  0.00     0.163 HD
ENDROOT
BRANCH   2   5
ATOM      5  C   UNL d   1      26.956 -14.861  -2.418  0.00  0.00     0.067 A 
ATOM      6  C   UNL d   1      27.261 -15.377  -1.135  0.00  0.00     0.059 A 
ATOM      7  C   UNL d   1      26.522 -16.430  -0.588  0.00  0.00     0.103 A 
ATOM      8  C   UNL d   1      25.460 -16.972  -1.307  0.00  0.00     0.104 A 
ATOM      9  O   UNL d   1      26.883 -16.880   0.656  0.00  0.00    -0.346 OA
ATOM     10  C   UNL d   1      25.157 -16.488  -2.578  0.00  0.00     0.076 A 
ATOM     11  O   UNL d   1      24.678 -17.998  -0.847  0.00  0.00    -0.346 OA
ATOM     12  C   UNL d   1      25.901 -15.435  -3.147  0.00  0.00     0.121 A 
ATOM     13  C   UNL d   1      24.834 -18.199   0.562  0.00  0.00     0.202 C 
ATOM     14  C   UNL d   1      26.299 -18.155   0.961  0.00  0.00     0.202 C 
BRANCH  12  15
ATOM     15  N   UNL d   1      25.534 -15.040  -4.519  0.00  0.00    -0.115 N 
ATOM     16  O   UNL d   1      26.076 -15.590  -5.478  0.00  0.00    -0.532 OA
ATOM     17  O   UNL d   1      24.682 -14.148  -4.646  0.00  0.00    -0.532 OA
ENDBRANCH  12  15
ENDBRANCH   2   5
BRANCH   1  18
ATOM     18  C   UNL d   1      28.447 -12.261  -4.705  0.00  0.00     0.203 C 
BRANCH  18  19
ATOM     19  C   UNL d   1      28.144 -11.951  -6.167  0.00  0.00     0.147 A 
ATOM     20  N   UNL d   1      28.477 -12.762  -7.211  0.00  0.00    -0.304 N 
ATOM     21  C   UNL d   1      27.930 -12.137  -8.320  0.00  0.00     0.196 A 
ATOM     22  N   UNL d   1      27.370 -10.961  -7.860  0.00  0.00    -0.251 N 
ATOM     23  S   UNL d   1      27.874 -12.568  -9.923  0.00  0.00    -0.039 SA
ATOM     24  N   UNL d   1      27.491 -10.870  -6.511  0.00  0.00    -0.157 NA
ATOM     25  H   UNL d   1      26.914 -10.256  -8.428  0.00  0.00     0.191 HD
BRANCH  20  26
ATOM     26  C   UNL d   1      29.324 -13.978  -7.268  0.00  0.00     0.086 C 
ATOM     27  C   UNL d   1      30.774 -13.644  -6.892  0.00  0.00     0.032 C 
ATOM     28  C   UNL d   1      28.892 -15.124  -6.358  0.00  0.00     0.032 C 
ENDBRANCH  20  26
ENDBRANCH  18  19
ENDBRANCH   1  18
TORSDOF 5
ENDMDL
MODEL 9
REMARK VINA RESULT:    -5.112      4.150      8.240
REMARK INTER + INTRA:          -8.913
REMARK INTER:                  -6.603
REMARK INTRA:                  -2.309
REMARK CONF_INDEPENDENT:        1.492
REMARK UNBOUND:                -2.309
REMARK  5 active torsions:
REMARK  status: ('A' for Active; 'I' for Inactive)
REMARK    1  A    between atoms: C_2  and  N_4 
REMARK    2  A    between atoms: C_5  and  C_6 
REMARK    3  A    between atoms: C_6  and  N_7 
REMARK       I    between atoms: N_7  and  C_8 
REMARK    4  A    between atoms: C_8  and  C_10 
REMARK    5  A    between atoms: C_15  and  N_16 
ROOT
ATOM      1  N   UNL d   1      26.092 -12.386  -3.630  0.00  0.00    -0.350 N 
ATOM      2  C   UNL d   1      25.335 -13.528  -3.505  0.00  0.00     0.254 C 
ATOM      3  O   UNL d   1      24.414 -13.823  -4.270  0.00  0.00    -0.268 OA
ATOM      4  H   UNL d   1      26.660 -12.063  -2.856  0.00  0.00     0.163 HD
ENDROOT
BRANCH   2   5
ATOM      5  C   UNL d   1      25.690 -14.467  -2.414  0.00  0.00     0.067 A 
ATOM      6  C   UNL d   1      24.927 -15.658  -2.365  0.00  0.00     0.059 A 
ATOM      7  C   UNL d   1      25.145 -16.613  -1.367  0.00  0.00     0.103 A 
ATOM      8  C   UNL d   1      26.138 -16.399  -0.415  0.00  0.00     0.104 A 
ATOM      9  O   UNL d   1      24.360 -17.737  -1.382  0.00  0.00    -0.346 OA
ATOM     10  C   UNL d   1      26.887 -15.224  -0.438  0.00  0.00     0.076 A 
ATOM     11  O   UNL d   1      26.427 -17.281   0.591  0.00  0.00    -0.346 OA
ATOM     12  C   UNL d   1      26.669 -14.247  -1.431  0.00  0.00     0.121 A 
ATOM     13  C   UNL d   1      25.863 -18.575   0.346  0.00  0.00     0.202 C 
ATOM     14  C   UNL d   1      24.431 -18.462  -0.145  0.00  0.00     0.202 C 
BRANCH  12  15
ATOM     15  N   UNL d   1      27.476 -13.017  -1.328  0.00  0.00    -0.115 N 
ATOM     16  O   UNL d   1      28.549 -12.939  -1.927  0.00  0.00    -0.532 OA
ATOM     17  O   UNL d   1      27.030 -12.102  -0.620  0.00  0.00    -0.532 OA
ENDBRANCH  12  15
ENDBRANCH   2   5
BRANCH   1  18
ATOM     18  C   UNL d   1      25.638 -11.322  -4.494  0.00  0.00     0.203 C 
BRANCH  18  19
ATOM     19  C   UNL d   1      25.768  -9.924  -3.900  0.00  0.00     0.147 A 
ATOM     20  N   UNL d   1      25.263  -8.795  -4.473  0.00  0.00    -0.304 N 
ATOM     21  C   UNL d   1      25.531  -7.793  -3.553  0.00  0.00     0.196 A 
ATOM     22  N   UNL d   1      26.239  -8.392  -2.530  0.00  0.00    -0.251 N 
ATOM     23  S   UNL d   1      25.157  -6.175  -3.532  0.00  0.00    -0.039 SA
ATOM     24  N   UNL d   1      26.360  -9.727  -2.750  0.00  0.00    -0.157 NA
ATOM     25  H   UNL d   1      26.615  -7.926  -1.712  0.00  0.00     0.191 HD
BRANCH  20  26
ATOM     26  C   UNL d   1      24.662  -8.565  -5.809  0.00  0.00     0.086 C 
ATOM     27  C   UNL d   1      23.280  -7.912  -5.674  0.00  0.00     0.032 C 
ATOM     28  C   UNL d   1      25.472  -7.678  -6.750  0.00  0.00     0.032 C 
ENDBRANCH  20  26
ENDBRANCH  18  19
ENDBRANCH   1  18
TORSDOF 5
ENDMDL
