MODEL 1
REMARK VINA RESULT:    -9.721      0.000      0.000
REMARK INTER + INTRA:         -16.508
REMARK INTER:                 -13.897
REMARK INTRA:                  -2.611
REMARK CONF_INDEPENDENT:        4.176
REMARK UNBOUND:                -2.611
REMARK  14 active torsions:
REMARK  status: ('A' for Active; 'I' for Inactive)
REMARK    1  A    between atoms: C_2  and  N_3 
REMARK    2  A    between atoms: N_3  and  C_4 
REMARK    3  A    between atoms: N_3  and  C_6 
REMARK    4  A    between atoms: C_6  and  C_7 
REMARK    5  A    between atoms: C_7  and  N_8 
REMARK       I    between atoms: N_8  and  C_9 
REMARK    6  A    between atoms: C_9  and  C_11 
REMARK    7  A    between atoms: C_14  and  N_15 
REMARK    8  A    between atoms: N_15  and  C_16 
REMARK    9  A    between atoms: C_16  and  N_18 
REMARK       I    between atoms: N_18  and  C_19 
REMARK   10  A    between atoms: C_19  and  C_21 
REMARK   11  A    between atoms: C_26  and  O_27 
REMARK   12  A    between atoms: O_27  and  C_28 
REMARK   13  A    between atoms: C_28  and  C_29 
REMARK   14  A    between atoms: C_29  and  C_30 
ROOT
ATOM      1  C   UNL d   1      26.744 -13.389  -2.913  0.00  0.00     0.179 C 
ATOM      2  S   UNL d   1      26.110 -13.095  -4.456  0.00  0.00    -0.040 SA
ENDROOT
BRANCH   1   3
ATOM      3  N   UNL d   1      27.367 -12.428  -2.027  0.00  0.00    -0.333 N 
ATOM      4  H   UNL d   1      27.847 -11.633  -2.449  0.00  0.00     0.168 HD
BRANCH   3   5
ATOM      5  C   UNL d   1      27.786 -12.656  -0.632  0.00  0.00     0.034 A 
ATOM      6  C   UNL d   1      28.926 -13.392  -0.239  0.00  0.00     0.030 A 
ATOM      7  C   UNL d   1      29.137 -13.739   1.140  0.00  0.00     0.019 A 
ATOM      8  C   UNL d   1      28.247 -13.313   2.137  0.00  0.00     0.032 A 
ATOM      9  C   UNL d   1      27.148 -12.586   1.761  0.00  0.00     0.019 A 
ATOM     10  C   UNL d   1      26.983 -12.250   0.430  0.00  0.00     0.030 A 
BRANCH   8  11
ATOM     11  C   UNL d   1      28.490 -13.455   3.582  0.00  0.00     0.251 C 
ATOM     12  N   UNL d   1      28.546 -14.737   4.106  0.00  0.00    -0.355 N 
ATOM     13  H   UNL d   1      28.570 -15.535   3.478  0.00  0.00     0.162 HD
ATOM     14  O   UNL d   1      28.574 -12.444   4.293  0.00  0.00    -0.268 OA
BRANCH  12  15
ATOM     15  C   UNL d   1      28.690 -14.892   5.535  0.00  0.00     0.150 C 
BRANCH  15  16
ATOM     16  C   UNL d   1      30.020 -14.380   6.102  0.00  0.00     0.254 C 
BRANCH  16  17
ATOM     17  N   UNL d   1      29.881 -13.038   6.853  0.00  0.00    -0.070 N 
ATOM     18  H   UNL d   1      29.711 -12.313   6.139  0.00  0.00     0.279 HD
BRANCH  17  19
ATOM     19  C   UNL d   1      28.645 -13.119   7.746  0.00  0.00     0.230 C 
ATOM     20  C   UNL d   1      28.905 -13.762   9.093  0.00  0.00     0.034 C 
ENDBRANCH  17  19
BRANCH  17  21
ATOM     21  C   UNL d   1      31.179 -12.710   7.580  0.00  0.00     0.230 C 
ATOM     22  C   UNL d   1      31.260 -11.301   8.119  0.00  0.00     0.034 C 
ENDBRANCH  17  21
ENDBRANCH  16  17
ENDBRANCH  15  16
ENDBRANCH  12  15
ENDBRANCH   8  11
ENDBRANCH   3   5
ENDBRANCH   1   3
BRANCH   1  23
ATOM     23  N   UNL d   1      26.645 -14.710  -2.406  0.00  0.00    -0.299 N 
ATOM     24  C   UNL d   1      25.451 -15.268  -1.860  0.00  0.00     0.260 C 
ATOM     25  O   UNL d   1      24.310 -14.841  -2.041  0.00  0.00    -0.267 OA
ATOM     26  H   UNL d   1      27.494 -15.248  -2.301  0.00  0.00     0.171 HD
BRANCH  24  27
ATOM     27  C   UNL d   1      25.439 -16.474  -1.002  0.00  0.00     0.065 A 
ATOM     28  C   UNL d   1      26.750 -16.862  -0.618  0.00  0.00     0.020 A 
ATOM     29  C   UNL d   1      27.007 -18.100  -0.041  0.00  0.00     0.001 A 
ATOM     30  C   UNL d   1      25.946 -18.949   0.229  0.00  0.00     0.003 A 
ATOM     31  C   UNL d   1      24.651 -18.601  -0.174  0.00  0.00     0.038 A 
ATOM     32  C   UNL d   1      24.378 -17.389  -0.833  0.00  0.00     0.084 A 
BRANCH  32  33
ATOM     33  O   UNL d   1      23.066 -17.335  -1.271  0.00  0.00    -0.350 OA
BRANCH  33  34
ATOM     34  C   UNL d   1      22.368 -18.559  -1.186  0.00  0.00     0.180 C 
BRANCH  34  35
ATOM     35  C   UNL d   1      20.858 -18.508  -1.259  0.00  0.00     0.065 C 
BRANCH  35  36
ATOM     36  C   UNL d   1      20.199 -19.354  -0.185  0.00  0.00    -0.056 C 
ATOM     37  C   UNL d   1      19.068 -20.126  -0.485  0.00  0.00     0.007 C 
ATOM     38  C   UNL d   1      18.321 -20.699   0.544  0.00  0.00     0.001 C 
ATOM     39  C   UNL d   1      18.758 -20.602   1.867  0.00  0.00     0.000 C 
ATOM     40  C   UNL d   1      19.961 -19.973   2.158  0.00  0.00     0.001 C 
ATOM     41  C   UNL d   1      20.659 -19.326   1.143  0.00  0.00     0.007 C 
ENDBRANCH  35  36
ENDBRANCH  34  35
ENDBRANCH  33  34
ENDBRANCH  32  33
ENDBRANCH  24  27
ENDBRANCH   1  23
TORSDOF 14
ENDMDL
MODEL 2
REMARK VINA RESULT:    -9.718      1.259      2.023
REMARK INTER + INTRA:         -16.394
REMARK INTER:                 -13.894
REMARK INTRA:                  -2.500
REMARK CONF_INDEPENDENT:        4.176
REMARK UNBOUND:                -2.500
REMARK  14 active torsions:
REMARK  status: ('A' for Active; 'I' for Inactive)
REMARK    1  A    between atoms: C_2  and  N_3 
REMARK    2  A    between atoms: N_3  and  C_4 
REMARK    3  A    between atoms: N_3  and  C_6 
REMARK    4  A    between atoms: C_6  and  C_7 
REMARK    5  A    between atoms: C_7  and  N_8 
REMARK       I    between atoms: N_8  and  C_9 
REMARK    6  A    between atoms: C_9  and  C_11 
REMARK    7  A    between atoms: C_14  and  N_15 
REMARK    8  A    between atoms: N_15  and  C_16 
REMARK    9  A    between atoms: C_16  and  N_18 
REMARK       I    between atoms: N_18  and  C_19 
REMARK   10  A    between atoms: C_19  and  C_21 
REMARK   11  A    between atoms: C_26  and  O_27 
REMARK   12  A    between atoms: O_27  and  C_28 
REMARK   13  A    between atoms: C_28  and  C_29 
REMARK   14  A    between atoms: C_29  and  C_30 
ROOT
ATOM      1  C   UNL d   1      26.745 -13.078  -3.305  0.00  0.00     0.179 C 
ATOM      2  S   UNL d   1      26.206 -13.018  -4.910  0.00  0.00    -0.040 SA
ENDROOT
BRANCH   1   3
ATOM      3  N   UNL d   1      27.206 -11.968  -2.497  0.00  0.00    -0.333 N 
ATOM      4  H   UNL d   1      27.612 -11.166  -2.978  0.00  0.00     0.168 HD
BRANCH   3   5
ATOM      5  C   UNL d   1      27.574 -12.009  -1.070  0.00  0.00     0.034 A 
ATOM      6  C   UNL d   1      27.058 -12.926  -0.127  0.00  0.00     0.030 A 
ATOM      7  C   UNL d   1      27.311 -12.757   1.278  0.00  0.00     0.019 A 
ATOM      8  C   UNL d   1      28.118 -11.709   1.745  0.00  0.00     0.032 A 
ATOM      9  C   UNL d   1      28.633 -10.826   0.832  0.00  0.00     0.019 A 
ATOM     10  C   UNL d   1      28.388 -11.027  -0.514  0.00  0.00     0.030 A 
BRANCH   8  11
ATOM     11  C   UNL d   1      28.586 -11.579   3.135  0.00  0.00     0.251 C 
ATOM     12  N   UNL d   1      27.657 -11.220   4.099  0.00  0.00    -0.355 N 
ATOM     13  H   UNL d   1      26.669 -11.202   3.863  0.00  0.00     0.162 HD
ATOM     14  O   UNL d   1      29.788 -11.727   3.396  0.00  0.00    -0.268 OA
BRANCH  12  15
ATOM     15  C   UNL d   1      28.117 -10.996   5.451  0.00  0.00     0.150 C 
BRANCH  15  16
ATOM     16  C   UNL d   1      28.154 -12.253   6.328  0.00  0.00     0.254 C 
BRANCH  16  17
ATOM     17  N   UNL d   1      29.297 -13.221   5.951  0.00  0.00    -0.070 N 
ATOM     18  H   UNL d   1      29.817 -12.781   5.176  0.00  0.00     0.279 HD
BRANCH  17  19
ATOM     19  C   UNL d   1      30.240 -13.331   7.147  0.00  0.00     0.230 C 
ATOM     20  C   UNL d   1      29.639 -14.052   8.336  0.00  0.00     0.034 C 
ENDBRANCH  17  19
BRANCH  17  21
ATOM     21  C   UNL d   1      28.721 -14.543   5.463  0.00  0.00     0.230 C 
ATOM     22  C   UNL d   1      27.410 -14.423   4.721  0.00  0.00     0.034 C 
ENDBRANCH  17  21
ENDBRANCH  16  17
ENDBRANCH  15  16
ENDBRANCH  12  15
ENDBRANCH   8  11
ENDBRANCH   3   5
ENDBRANCH   1   3
BRANCH   1  23
ATOM     23  N   UNL d   1      26.734 -14.340  -2.658  0.00  0.00    -0.299 N 
ATOM     24  C   UNL d   1      25.544 -15.029  -2.275  0.00  0.00     0.260 C 
ATOM     25  O   UNL d   1      24.415 -14.816  -2.720  0.00  0.00    -0.267 OA
ATOM     26  H   UNL d   1      27.610 -14.717  -2.327  0.00  0.00     0.171 HD
BRANCH  24  27
ATOM     27  C   UNL d   1      25.528 -16.128  -1.284  0.00  0.00     0.065 A 
ATOM     28  C   UNL d   1      26.822 -16.677  -1.084  0.00  0.00     0.020 A 
ATOM     29  C   UNL d   1      27.011 -17.878  -0.409  0.00  0.00     0.001 A 
ATOM     30  C   UNL d   1      25.913 -18.520   0.141  0.00  0.00     0.003 A 
ATOM     31  C   UNL d   1      24.625 -18.014  -0.077  0.00  0.00     0.038 A 
ATOM     32  C   UNL d   1      24.402 -16.845  -0.825  0.00  0.00     0.084 A 
BRANCH  32  33
ATOM     33  O   UNL d   1      23.051 -16.629  -1.037  0.00  0.00    -0.350 OA
BRANCH  33  34
ATOM     34  C   UNL d   1      22.198 -17.447  -0.266  0.00  0.00     0.180 C 
BRANCH  34  35
ATOM     35  C   UNL d   1      21.739 -18.752  -0.879  0.00  0.00     0.065 C 
BRANCH  35  36
ATOM     36  C   UNL d   1      20.565 -19.359  -0.132  0.00  0.00    -0.056 C 
ATOM     37  C   UNL d   1      20.654 -19.610   1.243  0.00  0.00     0.007 C 
ATOM     38  C   UNL d   1      19.684 -20.388   1.875  0.00  0.00     0.001 C 
ATOM     39  C   UNL d   1      18.564 -20.826   1.165  0.00  0.00     0.000 C 
ATOM     40  C   UNL d   1      18.388 -20.449  -0.160  0.00  0.00     0.001 C 
ATOM     41  C   UNL d   1      19.398 -19.749  -0.811  0.00  0.00     0.007 C 
ENDBRANCH  35  36
ENDBRANCH  34  35
ENDBRANCH  33  34
ENDBRANCH  32  33
ENDBRANCH  24  27
ENDBRANCH   1  23
TORSDOF 14
ENDMDL
MODEL 3
REMARK VINA RESULT:    -9.253      2.580      4.854
REMARK INTER + INTRA:         -16.511
REMARK INTER:                 -13.429
REMARK INTRA:                  -3.082
REMARK CONF_INDEPENDENT:        4.176
REMARK UNBOUND:                -3.082
REMARK  14 active torsions:
REMARK  status: ('A' for Active; 'I' for Inactive)
REMARK    1  A    between atoms: C_2  and  N_3 
REMARK    2  A    between atoms: N_3  and  C_4 
REMARK    3  A    between atoms: N_3  and  C_6 
REMARK    4  A    between atoms: C_6  and  C_7 
REMARK    5  A    between atoms: C_7  and  N_8 
REMARK       I    between atoms: N_8  and  C_9 
REMARK    6  A    between atoms: C_9  and  C_11 
REMARK    7  A    between atoms: C_14  and  N_15 
REMARK    8  A    between atoms: N_15  and  C_16 
REMARK    9  A    between atoms: C_16  and  N_18 
REMARK       I    between atoms: N_18  and  C_19 
REMARK   10  A    between atoms: C_19  and  C_21 
REMARK   11  A    between atoms: C_26  and  O_27 
REMARK   12  A    between atoms: O_27  and  C_28 
REMARK   13  A    between atoms: C_28  and  C_29 
REMARK   14  A    between atoms: C_29  and  C_30 
ROOT
ATOM      1  C   UNL d   1      27.567 -13.562   1.749  0.00  0.00     0.179 C 
ATOM      2  S   UNL d   1      26.685 -12.156   2.085  0.00  0.00    -0.040 SA
ENDROOT
BRANCH   1   3
ATOM      3  N   UNL d   1      28.300 -14.379   2.694  0.00  0.00    -0.333 N 
ATOM      4  H   UNL d   1      28.537 -15.331   2.415  0.00  0.00     0.168 HD
BRANCH   3   5
ATOM      5  C   UNL d   1      28.375 -14.189   4.154  0.00  0.00     0.034 A 
ATOM      6  C   UNL d   1      27.540 -13.328   4.901  0.00  0.00     0.030 A 
ATOM      7  C   UNL d   1      27.822 -13.047   6.282  0.00  0.00     0.019 A 
ATOM      8  C   UNL d   1      28.900 -13.659   6.938  0.00  0.00     0.032 A 
ATOM      9  C   UNL d   1      29.704 -14.506   6.220  0.00  0.00     0.019 A 
ATOM     10  C   UNL d   1      29.395 -14.772   4.899  0.00  0.00     0.030 A 
BRANCH   8  11
ATOM     11  C   UNL d   1      29.142 -13.582   8.388  0.00  0.00     0.251 C 
ATOM     12  N   UNL d   1      28.840 -14.696   9.156  0.00  0.00    -0.355 N 
ATOM     13  H   UNL d   1      28.608 -15.573   8.698  0.00  0.00     0.162 HD
ATOM     14  O   UNL d   1      29.541 -12.521   8.889  0.00  0.00    -0.268 OA
BRANCH  12  15
ATOM     15  C   UNL d   1      28.983 -14.605  10.590  0.00  0.00     0.150 C 
BRANCH  15  16
ATOM     16  C   UNL d   1      30.388 -14.928  11.114  0.00  0.00     0.254 C 
BRANCH  16  17
ATOM     17  N   UNL d   1      31.499 -14.127  10.400  0.00  0.00    -0.070 N 
ATOM     18  H   UNL d   1      31.041 -13.581   9.654  0.00  0.00     0.279 HD
BRANCH  17  19
ATOM     19  C   UNL d   1      32.096 -13.144  11.405  0.00  0.00     0.230 C 
ATOM     20  C   UNL d   1      31.817 -11.691  11.079  0.00  0.00     0.034 C 
ENDBRANCH  17  19
BRANCH  17  21
ATOM     21  C   UNL d   1      32.500 -15.080   9.761  0.00  0.00     0.230 C 
ATOM     22  C   UNL d   1      33.898 -14.997  10.329  0.00  0.00     0.034 C 
ENDBRANCH  17  21
ENDBRANCH  16  17
ENDBRANCH  15  16
ENDBRANCH  12  15
ENDBRANCH   8  11
ENDBRANCH   3   5
ENDBRANCH   1   3
BRANCH   1  23
ATOM     23  N   UNL d   1      27.587 -14.017   0.406  0.00  0.00    -0.299 N 
ATOM     24  C   UNL d   1      27.155 -13.236  -0.707  0.00  0.00     0.260 C 
ATOM     25  O   UNL d   1      27.026 -12.011  -0.719  0.00  0.00    -0.267 OA
ATOM     26  H   UNL d   1      27.793 -14.990   0.233  0.00  0.00     0.171 HD
BRANCH  24  27
ATOM     27  C   UNL d   1      26.818 -13.821  -2.024  0.00  0.00     0.065 A 
ATOM     28  C   UNL d   1      25.925 -12.995  -2.757  0.00  0.00     0.020 A 
ATOM     29  C   UNL d   1      25.267 -13.455  -3.891  0.00  0.00     0.001 A 
ATOM     30  C   UNL d   1      25.542 -14.730  -4.358  0.00  0.00     0.003 A 
ATOM     31  C   UNL d   1      26.391 -15.573  -3.630  0.00  0.00     0.038 A 
ATOM     32  C   UNL d   1      27.005 -15.158  -2.435  0.00  0.00     0.084 A 
BRANCH  32  33
ATOM     33  O   UNL d   1      27.668 -16.205  -1.816  0.00  0.00    -0.350 OA
BRANCH  33  34
ATOM     34  C   UNL d   1      26.869 -16.964  -0.934  0.00  0.00     0.180 C 
BRANCH  34  35
ATOM     35  C   UNL d   1      25.618 -16.313  -0.387  0.00  0.00     0.065 C 
BRANCH  35  36
ATOM     36  C   UNL d   1      24.379 -17.159  -0.616  0.00  0.00    -0.056 C 
ATOM     37  C   UNL d   1      23.150 -16.552  -0.908  0.00  0.00     0.007 C 
ATOM     38  C   UNL d   1      21.975 -17.302  -0.871  0.00  0.00     0.001 C 
ATOM     39  C   UNL d   1      22.029 -18.681  -0.655  0.00  0.00     0.000 C 
ATOM     40  C   UNL d   1      23.256 -19.317  -0.522  0.00  0.00     0.001 C 
ATOM     41  C   UNL d   1      24.419 -18.557  -0.471  0.00  0.00     0.007 C 
ENDBRANCH  35  36
ENDBRANCH  34  35
ENDBRANCH  33  34
ENDBRANCH  32  33
ENDBRANCH  24  27
ENDBRANCH   1  23
TORSDOF 14
ENDMDL
MODEL 4
REMARK VINA RESULT:    -9.038      3.077      5.039
REMARK INTER + INTRA:         -17.051
REMARK INTER:                 -13.214
REMARK INTRA:                  -3.837
REMARK CONF_INDEPENDENT:        4.176
REMARK UNBOUND:                -3.837
REMARK  14 active torsions:
REMARK  status: ('A' for Active; 'I' for Inactive)
REMARK    1  A    between atoms: C_2  and  N_3 
REMARK    2  A    between atoms: N_3  and  C_4 
REMARK    3  A    between atoms: N_3  and  C_6 
REMARK    4  A    between atoms: C_6  and  C_7 
REMARK    5  A    between atoms: C_7  and  N_8 
REMARK       I    between atoms: N_8  and  C_9 
REMARK    6  A    between atoms: C_9  and  C_11 
REMARK    7  A    between atoms: C_14  and  N_15 
REMARK    8  A    between atoms: N_15  and  C_16 
REMARK    9  A    between atoms: C_16  and  N_18 
REMARK       I    between atoms: N_18  and  C_19 
REMARK   10  A    between atoms: C_19  and  C_21 
REMARK   11  A    between atoms: C_26  and  O_27 
REMARK   12  A    between atoms: O_27  and  C_28 
REMARK   13  A    between atoms: C_28  and  C_29 
REMARK   14  A    between atoms: C_29  and  C_30 
ROOT
ATOM      1  C   UNL d   1      26.631 -12.236  -5.563  0.00  0.00     0.179 C 
ATOM      2  S   UNL d   1      26.447 -11.187  -6.880  0.00  0.00    -0.040 SA
ENDROOT
BRANCH   1   3
ATOM      3  N   UNL d   1      25.744 -12.374  -4.427  0.00  0.00    -0.333 N 
ATOM      4  H   UNL d   1      24.800 -11.997  -4.512  0.00  0.00     0.168 HD
BRANCH   3   5
ATOM      5  C   UNL d   1      26.136 -12.588  -3.022  0.00  0.00     0.034 A 
ATOM      6  C   UNL d   1      26.973 -11.729  -2.276  0.00  0.00     0.030 A 
ATOM      7  C   UNL d   1      27.471 -12.124  -0.987  0.00  0.00     0.019 A 
ATOM      8  C   UNL d   1      27.097 -13.349  -0.413  0.00  0.00     0.032 A 
ATOM      9  C   UNL d   1      26.274 -14.179  -1.128  0.00  0.00     0.019 A 
ATOM     10  C   UNL d   1      25.795 -13.761  -2.356  0.00  0.00     0.030 A 
BRANCH   8  11
ATOM     11  C   UNL d   1      27.400 -13.742   0.973  0.00  0.00     0.251 C 
ATOM     12  N   UNL d   1      26.892 -12.954   1.995  0.00  0.00    -0.355 N 
ATOM     13  H   UNL d   1      26.214 -12.228   1.780  0.00  0.00     0.162 HD
ATOM     14  O   UNL d   1      28.139 -14.712   1.190  0.00  0.00    -0.268 OA
BRANCH  12  15
ATOM     15  C   UNL d   1      27.256 -13.271   3.356  0.00  0.00     0.150 C 
BRANCH  15  16
ATOM     16  C   UNL d   1      28.741 -13.071   3.684  0.00  0.00     0.254 C 
BRANCH  16  17
ATOM     17  N   UNL d   1      29.559 -14.379   3.612  0.00  0.00    -0.070 N 
ATOM     18  H   UNL d   1      28.945 -15.091   3.188  0.00  0.00     0.279 HD
BRANCH  17  19
ATOM     19  C   UNL d   1      30.738 -14.151   2.668  0.00  0.00     0.230 C 
ATOM     20  C   UNL d   1      31.785 -15.243   2.722  0.00  0.00     0.034 C 
ENDBRANCH  17  19
BRANCH  17  21
ATOM     21  C   UNL d   1      29.938 -14.835   5.014  0.00  0.00     0.230 C 
ATOM     22  C   UNL d   1      28.800 -14.825   6.009  0.00  0.00     0.034 C 
ENDBRANCH  17  21
ENDBRANCH  16  17
ENDBRANCH  15  16
ENDBRANCH  12  15
ENDBRANCH   8  11
ENDBRANCH   3   5
ENDBRANCH   1   3
BRANCH   1  23
ATOM     23  N   UNL d   1      27.760 -13.094  -5.563  0.00  0.00    -0.299 N 
ATOM     24  C   UNL d   1      27.680 -14.516  -5.475  0.00  0.00     0.260 C 
ATOM     25  O   UNL d   1      26.681 -15.197  -5.713  0.00  0.00    -0.267 OA
ATOM     26  H   UNL d   1      28.677 -12.679  -5.488  0.00  0.00     0.171 HD
BRANCH  24  27
ATOM     27  C   UNL d   1      28.828 -15.370  -5.095  0.00  0.00     0.065 A 
ATOM     28  C   UNL d   1      29.597 -15.755  -6.225  0.00  0.00     0.020 A 
ATOM     29  C   UNL d   1      30.555 -16.760  -6.150  0.00  0.00     0.001 A 
ATOM     30  C   UNL d   1      30.812 -17.353  -4.924  0.00  0.00     0.003 A 
ATOM     31  C   UNL d   1      30.041 -17.013  -3.807  0.00  0.00     0.038 A 
ATOM     32  C   UNL d   1      29.011 -16.058  -3.876  0.00  0.00     0.084 A 
BRANCH  32  33
ATOM     33  O   UNL d   1      28.289 -16.004  -2.696  0.00  0.00    -0.350 OA
BRANCH  33  34
ATOM     34  C   UNL d   1      28.589 -17.032  -1.777  0.00  0.00     0.180 C 
BRANCH  34  35
ATOM     35  C   UNL d   1      27.901 -16.988  -0.431  0.00  0.00     0.065 C 
BRANCH  35  36
ATOM     36  C   UNL d   1      26.437 -17.381  -0.519  0.00  0.00    -0.056 C 
ATOM     37  C   UNL d   1      25.689 -17.075  -1.663  0.00  0.00     0.007 C 
ATOM     38  C   UNL d   1      24.300 -17.208  -1.646  0.00  0.00     0.001 C 
ATOM     39  C   UNL d   1      23.661 -17.752  -0.530  0.00  0.00     0.000 C 
ATOM     40  C   UNL d   1      24.410 -18.205   0.549  0.00  0.00     0.001 C 
ATOM     41  C   UNL d   1      25.783 -17.991   0.567  0.00  0.00     0.007 C 
ENDBRANCH  35  36
ENDBRANCH  34  35
ENDBRANCH  33  34
ENDBRANCH  32  33
ENDBRANCH  24  27
ENDBRANCH   1  23
TORSDOF 14
ENDMDL
MODEL 5
REMARK VINA RESULT:    -9.006      2.938      4.639
REMARK INTER + INTRA:         -16.498
REMARK INTER:                 -13.182
REMARK INTRA:                  -3.316
REMARK CONF_INDEPENDENT:        4.176
REMARK UNBOUND:                -3.316
REMARK  14 active torsions:
REMARK  status: ('A' for Active; 'I' for Inactive)
REMARK    1  A    between atoms: C_2  and  N_3 
REMARK    2  A    between atoms: N_3  and  C_4 
REMARK    3  A    between atoms: N_3  and  C_6 
REMARK    4  A    between atoms: C_6  and  C_7 
REMARK    5  A    between atoms: C_7  and  N_8 
REMARK       I    between atoms: N_8  and  C_9 
REMARK    6  A    between atoms: C_9  and  C_11 
REMARK    7  A    between atoms: C_14  and  N_15 
REMARK    8  A    between atoms: N_15  and  C_16 
REMARK    9  A    between atoms: C_16  and  N_18 
REMARK       I    between atoms: N_18  and  C_19 
REMARK   10  A    between atoms: C_19  and  C_21 
REMARK   11  A    between atoms: C_26  and  O_27 
REMARK   12  A    between atoms: O_27  and  C_28 
REMARK   13  A    between atoms: C_28  and  C_29 
REMARK   14  A    between atoms: C_29  and  C_30 
ROOT
ATOM      1  C   UNL d   1      26.743 -13.921  -3.553  0.00  0.00     0.179 C 
ATOM      2  S   UNL d   1      25.561 -14.530  -4.601  0.00  0.00    -0.040 SA
ENDROOT
BRANCH   1   3
ATOM      3  N   UNL d   1      26.602 -12.818  -2.625  0.00  0.00    -0.333 N 
ATOM      4  H   UNL d   1      26.587 -11.872  -3.008  0.00  0.00     0.168 HD
BRANCH   3   5
ATOM      5  C   UNL d   1      26.914 -12.831  -1.184  0.00  0.00     0.034 A 
ATOM      6  C   UNL d   1      27.924 -12.059  -0.568  0.00  0.00     0.030 A 
ATOM      7  C   UNL d   1      28.296 -12.293   0.801  0.00  0.00     0.019 A 
ATOM      8  C   UNL d   1      27.631 -13.256   1.575  0.00  0.00     0.032 A 
ATOM      9  C   UNL d   1      26.641 -13.996   0.985  0.00  0.00     0.019 A 
ATOM     10  C   UNL d   1      26.292 -13.734  -0.327  0.00  0.00     0.030 A 
BRANCH   8  11
ATOM     11  C   UNL d   1      27.813 -13.422   3.027  0.00  0.00     0.251 C 
ATOM     12  N   UNL d   1      28.376 -14.606   3.477  0.00  0.00    -0.355 N 
ATOM     13  H   UNL d   1      28.783 -15.255   2.809  0.00  0.00     0.162 HD
ATOM     14  O   UNL d   1      27.406 -12.545   3.802  0.00  0.00    -0.268 OA
BRANCH  12  15
ATOM     15  C   UNL d   1      28.476 -14.825   4.902  0.00  0.00     0.150 C 
BRANCH  15  16
ATOM     16  C   UNL d   1      29.907 -15.002   5.422  0.00  0.00     0.254 C 
BRANCH  16  17
ATOM     17  N   UNL d   1      30.406 -13.794   6.246  0.00  0.00    -0.070 N 
ATOM     18  H   UNL d   1      31.411 -13.689   6.042  0.00  0.00     0.279 HD
BRANCH  17  19
ATOM     19  C   UNL d   1      29.689 -12.545   5.737  0.00  0.00     0.230 C 
ATOM     20  C   UNL d   1      28.702 -11.960   6.727  0.00  0.00     0.034 C 
ENDBRANCH  17  19
BRANCH  17  21
ATOM     21  C   UNL d   1      30.236 -14.072   7.733  0.00  0.00     0.230 C 
ATOM     22  C   UNL d   1      31.181 -13.304   8.628  0.00  0.00     0.034 C 
ENDBRANCH  17  21
ENDBRANCH  16  17
ENDBRANCH  15  16
ENDBRANCH  12  15
ENDBRANCH   8  11
ENDBRANCH   3   5
ENDBRANCH   1   3
BRANCH   1  23
ATOM     23  N   UNL d   1      28.010 -14.558  -3.554  0.00  0.00    -0.299 N 
ATOM     24  C   UNL d   1      28.532 -15.293  -4.659  0.00  0.00     0.260 C 
ATOM     25  O   UNL d   1      28.143 -15.212  -5.825  0.00  0.00    -0.267 OA
ATOM     26  H   UNL d   1      28.521 -14.610  -2.684  0.00  0.00     0.171 HD
BRANCH  24  27
ATOM     27  C   UNL d   1      29.649 -16.257  -4.536  0.00  0.00     0.065 A 
ATOM     28  C   UNL d   1      29.906 -16.928  -5.760  0.00  0.00     0.020 A 
ATOM     29  C   UNL d   1      30.719 -18.054  -5.821  0.00  0.00     0.001 A 
ATOM     30  C   UNL d   1      31.349 -18.491  -4.667  0.00  0.00     0.003 A 
ATOM     31  C   UNL d   1      31.080 -17.866  -3.443  0.00  0.00     0.038 A 
ATOM     32  C   UNL d   1      30.198 -16.776  -3.343  0.00  0.00     0.084 A 
BRANCH  32  33
ATOM     33  O   UNL d   1      29.969 -16.429  -2.023  0.00  0.00    -0.350 OA
BRANCH  33  34
ATOM     34  C   UNL d   1      29.069 -17.276  -1.340  0.00  0.00     0.180 C 
BRANCH  34  35
ATOM     35  C   UNL d   1      28.200 -16.655  -0.269  0.00  0.00     0.065 C 
BRANCH  35  36
ATOM     36  C   UNL d   1      26.729 -16.979  -0.460  0.00  0.00    -0.056 C 
ATOM     37  C   UNL d   1      26.031 -17.700   0.518  0.00  0.00     0.007 C 
ATOM     38  C   UNL d   1      24.764 -18.210   0.237  0.00  0.00     0.001 C 
ATOM     39  C   UNL d   1      24.140 -17.911  -0.976  0.00  0.00     0.000 C 
ATOM     40  C   UNL d   1      24.759 -17.066  -1.888  0.00  0.00     0.001 C 
ATOM     41  C   UNL d   1      26.057 -16.631  -1.645  0.00  0.00     0.007 C 
ENDBRANCH  35  36
ENDBRANCH  34  35
ENDBRANCH  33  34
ENDBRANCH  32  33
ENDBRANCH  24  27
ENDBRANCH   1  23
TORSDOF 14
ENDMDL
MODEL 6
REMARK VINA RESULT:    -8.806      2.959      5.306
REMARK INTER + INTRA:         -17.257
REMARK INTER:                 -12.982
REMARK INTRA:                  -4.275
REMARK CONF_INDEPENDENT:        4.176
REMARK UNBOUND:                -4.275
REMARK  14 active torsions:
REMARK  status: ('A' for Active; 'I' for Inactive)
REMARK    1  A    between atoms: C_2  and  N_3 
REMARK    2  A    between atoms: N_3  and  C_4 
REMARK    3  A    between atoms: N_3  and  C_6 
REMARK    4  A    between atoms: C_6  and  C_7 
REMARK    5  A    between atoms: C_7  and  N_8 
REMARK       I    between atoms: N_8  and  C_9 
REMARK    6  A    between atoms: C_9  and  C_11 
REMARK    7  A    between atoms: C_14  and  N_15 
REMARK    8  A    between atoms: N_15  and  C_16 
REMARK    9  A    between atoms: C_16  and  N_18 
REMARK       I    between atoms: N_18  and  C_19 
REMARK   10  A    between atoms: C_19  and  C_21 
REMARK   11  A    between atoms: C_26  and  O_27 
REMARK   12  A    between atoms: O_27  and  C_28 
REMARK   13  A    between atoms: C_28  and  C_29 
REMARK   14  A    between atoms: C_29  and  C_30 
ROOT
ATOM      1  C   UNL d   1      29.725 -16.511  -5.381  0.00  0.00     0.179 C 
ATOM      2  S   UNL d   1      30.476 -16.682  -6.889  0.00  0.00    -0.040 SA
ENDROOT
BRANCH   1   3
ATOM      3  N   UNL d   1      30.190 -17.027  -4.110  0.00  0.00    -0.333 N 
ATOM      4  H   UNL d   1      30.631 -17.947  -4.103  0.00  0.00     0.168 HD
BRANCH   3   5
ATOM      5  C   UNL d   1      29.734 -16.615  -2.770  0.00  0.00     0.034 A 
ATOM      6  C   UNL d   1      29.688 -17.459  -1.637  0.00  0.00     0.030 A 
ATOM      7  C   UNL d   1      29.033 -17.033  -0.431  0.00  0.00     0.019 A 
ATOM      8  C   UNL d   1      28.469 -15.752  -0.328  0.00  0.00     0.032 A 
ATOM      9  C   UNL d   1      28.525 -14.926  -1.420  0.00  0.00     0.019 A 
ATOM     10  C   UNL d   1      29.180 -15.356  -2.560  0.00  0.00     0.030 A 
BRANCH   8  11
ATOM     11  C   UNL d   1      27.958 -15.168   0.923  0.00  0.00     0.251 C 
ATOM     12  N   UNL d   1      28.183 -13.819   1.147  0.00  0.00    -0.355 N 
ATOM     13  H   UNL d   1      28.552 -13.240   0.398  0.00  0.00     0.162 HD
ATOM     14  O   UNL d   1      27.405 -15.895   1.760  0.00  0.00    -0.268 OA
BRANCH  12  15
ATOM     15  C   UNL d   1      27.771 -13.251   2.410  0.00  0.00     0.150 C 
BRANCH  15  16
ATOM     16  C   UNL d   1      28.829 -13.321   3.517  0.00  0.00     0.254 C 
BRANCH  16  17
ATOM     17  N   UNL d   1      29.286 -14.763   3.828  0.00  0.00    -0.070 N 
ATOM     18  H   UNL d   1      28.866 -15.371   3.109  0.00  0.00     0.279 HD
BRANCH  17  19
ATOM     19  C   UNL d   1      30.804 -14.825   3.671  0.00  0.00     0.230 C 
ATOM     20  C   UNL d   1      31.272 -14.784   2.230  0.00  0.00     0.034 C 
ENDBRANCH  17  19
BRANCH  17  21
ATOM     21  C   UNL d   1      28.764 -15.192   5.193  0.00  0.00     0.230 C 
ATOM     22  C   UNL d   1      28.882 -14.141   6.272  0.00  0.00     0.034 C 
ENDBRANCH  17  21
ENDBRANCH  16  17
ENDBRANCH  15  16
ENDBRANCH  12  15
ENDBRANCH   8  11
ENDBRANCH   3   5
ENDBRANCH   1   3
BRANCH   1  23
ATOM     23  N   UNL d   1      28.518 -15.769  -5.332  0.00  0.00    -0.299 N 
ATOM     24  C   UNL d   1      28.408 -14.398  -5.715  0.00  0.00     0.260 C 
ATOM     25  O   UNL d   1      29.208 -13.783  -6.420  0.00  0.00    -0.267 OA
ATOM     26  H   UNL d   1      27.717 -16.185  -4.879  0.00  0.00     0.171 HD
BRANCH  24  27
ATOM     27  C   UNL d   1      27.276 -13.534  -5.313  0.00  0.00     0.065 A 
ATOM     28  C   UNL d   1      27.661 -12.170  -5.217  0.00  0.00     0.020 A 
ATOM     29  C   UNL d   1      26.848 -11.222  -4.606  0.00  0.00     0.001 A 
ATOM     30  C   UNL d   1      25.600 -11.605  -4.141  0.00  0.00     0.003 A 
ATOM     31  C   UNL d   1      25.217 -12.951  -4.193  0.00  0.00     0.038 A 
ATOM     32  C   UNL d   1      26.056 -13.942  -4.732  0.00  0.00     0.084 A 
BRANCH  32  33
ATOM     33  O   UNL d   1      25.535 -15.210  -4.534  0.00  0.00    -0.350 OA
BRANCH  33  34
ATOM     34  C   UNL d   1      25.850 -15.785  -3.284  0.00  0.00     0.180 C 
BRANCH  34  35
ATOM     35  C   UNL d   1      25.145 -15.234  -2.064  0.00  0.00     0.065 C 
BRANCH  35  36
ATOM     36  C   UNL d   1      24.619 -16.332  -1.157  0.00  0.00    -0.056 C 
ATOM     37  C   UNL d   1      25.493 -17.287  -0.620  0.00  0.00     0.007 C 
ATOM     38  C   UNL d   1      24.985 -18.427   0.001  0.00  0.00     0.001 C 
ATOM     39  C   UNL d   1      23.608 -18.569   0.190  0.00  0.00     0.000 C 
ATOM     40  C   UNL d   1      22.744 -17.553  -0.198  0.00  0.00     0.001 C 
ATOM     41  C   UNL d   1      23.244 -16.459  -0.895  0.00  0.00     0.007 C 
ENDBRANCH  35  36
ENDBRANCH  34  35
ENDBRANCH  33  34
ENDBRANCH  32  33
ENDBRANCH  24  27
ENDBRANCH   1  23
TORSDOF 14
ENDMDL
MODEL 7
REMARK VINA RESULT:    -8.538      3.611      6.039
REMARK INTER + INTRA:         -16.462
REMARK INTER:                 -12.715
REMARK INTRA:                  -3.748
REMARK CONF_INDEPENDENT:        4.176
REMARK UNBOUND:                -3.748
REMARK  14 active torsions:
REMARK  status: ('A' for Active; 'I' for Inactive)
REMARK    1  A    between atoms: C_2  and  N_3 
REMARK    2  A    between atoms: N_3  and  C_4 
REMARK    3  A    between atoms: N_3  and  C_6 
REMARK    4  A    between atoms: C_6  and  C_7 
REMARK    5  A    between atoms: C_7  and  N_8 
REMARK       I    between atoms: N_8  and  C_9 
REMARK    6  A    between atoms: C_9  and  C_11 
REMARK    7  A    between atoms: C_14  and  N_15 
REMARK    8  A    between atoms: N_15  and  C_16 
REMARK    9  A    between atoms: C_16  and  N_18 
REMARK       I    between atoms: N_18  and  C_19 
REMARK   10  A    between atoms: C_19  and  C_21 
REMARK   11  A    between atoms: C_26  and  O_27 
REMARK   12  A    between atoms: O_27  and  C_28 
REMARK   13  A    between atoms: C_28  and  C_29 
REMARK   14  A    between atoms: C_29  and  C_30 
ROOT
ATOM      1  C   UNL d   1      30.613 -17.979  -5.131  0.00  0.00     0.179 C 
ATOM      2  S   UNL d   1      31.340 -18.990  -6.279  0.00  0.00    -0.040 SA
ENDROOT
BRANCH   1   3
ATOM      3  N   UNL d   1      30.869 -17.950  -3.706  0.00  0.00    -0.333 N 
ATOM      4  H   UNL d   1      31.212 -18.804  -3.267  0.00  0.00     0.168 HD
BRANCH   3   5
ATOM      5  C   UNL d   1      30.300 -17.007  -2.725  0.00  0.00     0.034 A 
ATOM      6  C   UNL d   1      30.114 -15.624  -2.947  0.00  0.00     0.030 A 
ATOM      7  C   UNL d   1      29.751 -14.749  -1.866  0.00  0.00     0.019 A 
ATOM      8  C   UNL d   1      29.522 -15.251  -0.576  0.00  0.00     0.032 A 
ATOM      9  C   UNL d   1      29.687 -16.595  -0.361  0.00  0.00     0.019 A 
ATOM     10  C   UNL d   1      30.017 -17.414  -1.425  0.00  0.00     0.030 A 
BRANCH   8  11
ATOM     11  C   UNL d   1      28.961 -14.463   0.534  0.00  0.00     0.251 C 
ATOM     12  N   UNL d   1      28.337 -15.149   1.564  0.00  0.00    -0.355 N 
ATOM     13  H   UNL d   1      28.409 -16.161   1.610  0.00  0.00     0.162 HD
ATOM     14  O   UNL d   1      29.002 -13.226   0.491  0.00  0.00    -0.268 OA
BRANCH  12  15
ATOM     15  C   UNL d   1      27.700 -14.387   2.613  0.00  0.00     0.150 C 
BRANCH  15  16
ATOM     16  C   UNL d   1      28.668 -13.747   3.616  0.00  0.00     0.254 C 
BRANCH  16  17
ATOM     17  N   UNL d   1      29.879 -14.646   3.946  0.00  0.00    -0.070 N 
ATOM     18  H   UNL d   1      29.685 -15.571   3.533  0.00  0.00     0.279 HD
BRANCH  17  19
ATOM     19  C   UNL d   1      31.106 -14.066   3.246  0.00  0.00     0.230 C 
ATOM     20  C   UNL d   1      32.136 -15.106   2.854  0.00  0.00     0.034 C 
ENDBRANCH  17  19
BRANCH  17  21
ATOM     21  C   UNL d   1      30.015 -14.804   5.454  0.00  0.00     0.230 C 
ATOM     22  C   UNL d   1      28.760 -14.491   6.236  0.00  0.00     0.034 C 
ENDBRANCH  17  21
ENDBRANCH  16  17
ENDBRANCH  15  16
ENDBRANCH  12  15
ENDBRANCH   8  11
ENDBRANCH   3   5
ENDBRANCH   1   3
BRANCH   1  23
ATOM     23  N   UNL d   1      29.660 -17.038  -5.597  0.00  0.00    -0.299 N 
ATOM     24  C   UNL d   1      29.999 -15.770  -6.157  0.00  0.00     0.260 C 
ATOM     25  O   UNL d   1      31.102 -15.454  -6.606  0.00  0.00    -0.267 OA
ATOM     26  H   UNL d   1      28.683 -17.210  -5.407  0.00  0.00     0.171 HD
BRANCH  24  27
ATOM     27  C   UNL d   1      29.032 -14.656  -6.284  0.00  0.00     0.065 A 
ATOM     28  C   UNL d   1      29.665 -13.450  -6.686  0.00  0.00     0.020 A 
ATOM     29  C   UNL d   1      29.015 -12.224  -6.614  0.00  0.00     0.001 A 
ATOM     30  C   UNL d   1      27.691 -12.187  -6.205  0.00  0.00     0.003 A 
ATOM     31  C   UNL d   1      27.061 -13.359  -5.770  0.00  0.00     0.038 A 
ATOM     32  C   UNL d   1      27.724 -14.599  -5.756  0.00  0.00     0.084 A 
BRANCH  32  33
ATOM     33  O   UNL d   1      26.959 -15.576  -5.143  0.00  0.00    -0.350 OA
BRANCH  33  34
ATOM     34  C   UNL d   1      26.074 -15.095  -4.155  0.00  0.00     0.180 C 
BRANCH  34  35
ATOM     35  C   UNL d   1      26.546 -15.125  -2.718  0.00  0.00     0.065 C 
BRANCH  35  36
ATOM     36  C   UNL d   1      25.839 -16.192  -1.901  0.00  0.00    -0.056 C 
ATOM     37  C   UNL d   1      24.453 -16.366  -2.012  0.00  0.00     0.007 C 
ATOM     38  C   UNL d   1      23.774 -17.163  -1.090  0.00  0.00     0.001 C 
ATOM     39  C   UNL d   1      24.484 -17.879  -0.124  0.00  0.00     0.000 C 
ATOM     40  C   UNL d   1      25.872 -17.836  -0.106  0.00  0.00     0.001 C 
ATOM     41  C   UNL d   1      26.541 -16.974  -0.967  0.00  0.00     0.007 C 
ENDBRANCH  35  36
ENDBRANCH  34  35
ENDBRANCH  33  34
ENDBRANCH  32  33
ENDBRANCH  24  27
ENDBRANCH   1  23
TORSDOF 14
ENDMDL
MODEL 8
REMARK VINA RESULT:    -8.175      3.314      5.645
REMARK INTER + INTRA:         -16.497
REMARK INTER:                 -12.351
REMARK INTRA:                  -4.147
REMARK CONF_INDEPENDENT:        4.176
REMARK UNBOUND:                -4.147
REMARK  14 active torsions:
REMARK  status: ('A' for Active; 'I' for Inactive)
REMARK    1  A    between atoms: C_2  and  N_3 
REMARK    2  A    between atoms: N_3  and  C_4 
REMARK    3  A    between atoms: N_3  and  C_6 
REMARK    4  A    between atoms: C_6  and  C_7 
REMARK    5  A    between atoms: C_7  and  N_8 
REMARK       I    between atoms: N_8  and  C_9 
REMARK    6  A    between atoms: C_9  and  C_11 
REMARK    7  A    between atoms: C_14  and  N_15 
REMARK    8  A    between atoms: N_15  and  C_16 
REMARK    9  A    between atoms: C_16  and  N_18 
REMARK       I    between atoms: N_18  and  C_19 
REMARK   10  A    between atoms: C_19  and  C_21 
REMARK   11  A    between atoms: C_26  and  O_27 
REMARK   12  A    between atoms: O_27  and  C_28 
REMARK   13  A    between atoms: C_28  and  C_29 
REMARK   14  A    between atoms: C_29  and  C_30 
ROOT
ATOM      1  C   UNL d   1      28.282 -12.766  -7.427  0.00  0.00     0.179 C 
ATOM      2  S   UNL d   1      28.533 -12.537  -9.087  0.00  0.00    -0.040 SA
ENDROOT
BRANCH   1   3
ATOM      3  N   UNL d   1      27.388 -12.018  -6.568  0.00  0.00    -0.333 N 
ATOM      4  H   UNL d   1      27.076 -11.101  -6.888  0.00  0.00     0.168 HD
BRANCH   3   5
ATOM      5  C   UNL d   1      27.208 -12.193  -5.115  0.00  0.00     0.034 A 
ATOM      6  C   UNL d   1      25.972 -12.100  -4.436  0.00  0.00     0.030 A 
ATOM      7  C   UNL d   1      25.923 -12.076  -3.000  0.00  0.00     0.019 A 
ATOM      8  C   UNL d   1      27.092 -12.195  -2.235  0.00  0.00     0.032 A 
ATOM      9  C   UNL d   1      28.292 -12.300  -2.890  0.00  0.00     0.019 A 
ATOM     10  C   UNL d   1      28.305 -12.342  -4.272  0.00  0.00     0.030 A 
BRANCH   8  11
ATOM     11  C   UNL d   1      27.114 -12.375  -0.774  0.00  0.00     0.251 C 
ATOM     12  N   UNL d   1      27.162 -13.669  -0.282  0.00  0.00    -0.355 N 
ATOM     13  H   UNL d   1      27.331 -14.443  -0.919  0.00  0.00     0.162 HD
ATOM     14  O   UNL d   1      27.025 -11.387  -0.032  0.00  0.00    -0.268 OA
BRANCH  12  15
ATOM     15  C   UNL d   1      27.089 -13.867   1.147  0.00  0.00     0.150 C 
BRANCH  15  16
ATOM     16  C   UNL d   1      27.847 -15.098   1.661  0.00  0.00     0.254 C 
BRANCH  16  17
ATOM     17  N   UNL d   1      29.341 -14.819   1.933  0.00  0.00    -0.070 N 
ATOM     18  H   UNL d   1      29.817 -15.734   1.951  0.00  0.00     0.279 HD
BRANCH  17  19
ATOM     19  C   UNL d   1      29.898 -14.022   0.755  0.00  0.00     0.230 C 
ATOM     20  C   UNL d   1      30.229 -14.870  -0.456  0.00  0.00     0.034 C 
ENDBRANCH  17  19
BRANCH  17  21
ATOM     21  C   UNL d   1      29.509 -14.156   3.293  0.00  0.00     0.230 C 
ATOM     22  C   UNL d   1      28.390 -14.434   4.271  0.00  0.00     0.034 C 
ENDBRANCH  17  21
ENDBRANCH  16  17
ENDBRANCH  15  16
ENDBRANCH  12  15
ENDBRANCH   8  11
ENDBRANCH   3   5
ENDBRANCH   1   3
BRANCH   1  23
ATOM     23  N   UNL d   1      29.003 -13.810  -6.794  0.00  0.00    -0.299 N 
ATOM     24  C   UNL d   1      28.393 -14.857  -6.041  0.00  0.00     0.260 C 
ATOM     25  O   UNL d   1      27.209 -15.190  -6.100  0.00  0.00    -0.267 OA
ATOM     26  H   UNL d   1      30.010 -13.745  -6.759  0.00  0.00     0.171 HD
BRANCH  24  27
ATOM     27  C   UNL d   1      29.138 -15.705  -5.083  0.00  0.00     0.065 A 
ATOM     28  C   UNL d   1      30.015 -16.605  -5.745  0.00  0.00     0.020 A 
ATOM     29  C   UNL d   1      30.613 -17.668  -5.077  0.00  0.00     0.001 A 
ATOM     30  C   UNL d   1      30.400 -17.812  -3.716  0.00  0.00     0.003 A 
ATOM     31  C   UNL d   1      29.511 -16.958  -3.052  0.00  0.00     0.038 A 
ATOM     32  C   UNL d   1      28.831 -15.925  -3.723  0.00  0.00     0.084 A 
BRANCH  32  33
ATOM     33  O   UNL d   1      27.895 -15.319  -2.903  0.00  0.00    -0.350 OA
BRANCH  33  34
ATOM     34  C   UNL d   1      26.552 -15.567  -3.262  0.00  0.00     0.180 C 
BRANCH  34  35
ATOM     35  C   UNL d   1      25.477 -15.132  -2.292  0.00  0.00     0.065 C 
BRANCH  35  36
ATOM     36  C   UNL d   1      25.046 -16.255  -1.366  0.00  0.00    -0.056 C 
ATOM     37  C   UNL d   1      26.001 -16.982  -0.642  0.00  0.00     0.007 C 
ATOM     38  C   UNL d   1      25.635 -18.161   0.007  0.00  0.00     0.001 C 
ATOM     39  C   UNL d   1      24.298 -18.563   0.032  0.00  0.00     0.000 C 
ATOM     40  C   UNL d   1      23.320 -17.766  -0.549  0.00  0.00     0.001 C 
ATOM     41  C   UNL d   1      23.697 -16.638  -1.270  0.00  0.00     0.007 C 
ENDBRANCH  35  36
ENDBRANCH  34  35
ENDBRANCH  33  34
ENDBRANCH  32  33
ENDBRANCH  24  27
ENDBRANCH   1  23
TORSDOF 14
ENDMDL
