MODEL 1
REMARK VINA RESULT:    -8.345      0.000      0.000
REMARK INTER + INTRA:         -15.207
REMARK INTER:                 -12.223
REMARK INTRA:                  -2.984
REMARK CONF_INDEPENDENT:        3.878
REMARK UNBOUND:                -2.984
REMARK  13 active torsions:
REMARK  status: ('A' for Active; 'I' for Inactive)
REMARK    1  A    between atoms: C_2  and  C_3 
REMARK    2  A    between atoms: C_3  and  C_4 
REMARK    3  A    between atoms: C_4  and  C_5 
REMARK    4  A    between atoms: C_5  and  C_6 
REMARK    5  A    between atoms: C_6  and  N_7 
REMARK       I    between atoms: N_7  and  C_8 
REMARK    6  A    between atoms: C_17  and  N_7 
REMARK    7  A    between atoms: C_8  and  C_10 
REMARK    8  A    between atoms: C_17  and  C_27 
REMARK    9  A    between atoms: C_17  and  C_18 
REMARK       I    between atoms: C_18  and  N_20 
REMARK   10  A    between atoms: N_20  and  C_21 
REMARK   11  A    between atoms: C_28  and  O_29 
REMARK   12  A    between atoms: C_31  and  O_32 
REMARK   13  A    between atoms: C_34  and  O_35 
ROOT
ATOM      1  C   UNL d   1      27.685 -15.880   0.249  0.00  0.00     0.218 C 
ENDROOT
BRANCH   1   2
ATOM      2  C   UNL d   1      29.192 -15.739  -0.040  0.00  0.00     0.040 C 
ATOM      3  C   UNL d   1      29.822 -14.488  -0.174  0.00  0.00     0.080 C 
ATOM      4  C   UNL d   1      31.210 -14.394  -0.346  0.00  0.00     0.073 C 
ATOM      5  C   UNL d   1      31.989 -15.543  -0.294  0.00  0.00     0.071 C 
ATOM      6  C   UNL d   1      31.395 -16.781  -0.229  0.00  0.00     0.073 C 
ATOM      7  C   UNL d   1      30.012 -16.855  -0.278  0.00  0.00     0.080 C 
BRANCH   3   8
ATOM      8  O   UNL d   1      29.160 -13.287  -0.185  0.00  0.00    -0.360 OA
ATOM      9  H   UNL d   1      28.236 -13.393   0.081  0.00  0.00     0.217 HD
ENDBRANCH   3   8
BRANCH   5  10
ATOM     10  O   UNL d   1      33.348 -15.524  -0.369  0.00  0.00    -0.361 OA
ATOM     11  H   UNL d   1      33.698 -15.336   0.515  0.00  0.00     0.217 HD
ENDBRANCH   5  10
BRANCH   7  12
ATOM     12  O   UNL d   1      29.488 -18.097  -0.520  0.00  0.00    -0.360 OA
ATOM     13  H   UNL d   1      29.966 -18.678   0.099  0.00  0.00     0.217 HD
ENDBRANCH   7  12
ENDBRANCH   1   2
BRANCH   1  14
ATOM     14  C   UNL d   1      27.405 -14.864   1.400  0.00  0.00     0.245 C 
ATOM     15  O   UNL d   1      26.605 -13.953   1.228  0.00  0.00    -0.271 OA
ATOM     16  N   UNL d   1      28.121 -14.959   2.588  0.00  0.00    -0.354 N 
ATOM     17  H   UNL d   1      28.917 -15.575   2.678  0.00  0.00     0.162 HD
BRANCH  16  18
ATOM     18  C   UNL d   1      27.768 -14.098   3.733  0.00  0.00     0.084 C 
ATOM     19  C   UNL d   1      28.378 -14.592   5.057  0.00  0.00     0.025 C 
ATOM     20  C   UNL d   1      28.155 -13.604   6.205  0.00  0.00     0.002 C 
ATOM     21  C   UNL d   1      28.633 -12.201   5.845  0.00  0.00     0.000 C 
ATOM     22  C   UNL d   1      27.912 -11.687   4.605  0.00  0.00     0.002 C 
ATOM     23  C   UNL d   1      28.123 -12.627   3.439  0.00  0.00     0.025 C 
ENDBRANCH  16  18
ENDBRANCH   1  14
BRANCH   1  24
ATOM     24  N   UNL d   1      26.695 -15.728  -0.900  0.00  0.00    -0.330 N 
ATOM     25  C   UNL d   1      27.173 -15.874  -2.236  0.00  0.00     0.254 C 
ATOM     26  O   UNL d   1      28.097 -16.627  -2.516  0.00  0.00    -0.267 OA
BRANCH  24  27
ATOM     27  C   UNL d   1      25.317 -16.198  -0.593  0.00  0.00     0.127 C 
BRANCH  27  28
ATOM     28  C   UNL d   1      25.269 -17.661  -0.252  0.00  0.00     0.020 C 
BRANCH  28  29
ATOM     29  C   UNL d   1      24.037 -18.494  -0.358  0.00  0.00     0.002 C 
BRANCH  29  30
ATOM     30  C   UNL d   1      22.861 -17.527  -0.574  0.00  0.00    -0.000 C 
BRANCH  30  31
ATOM     31  C   UNL d   1      21.614 -18.308  -0.896  0.00  0.00    -0.005 C 
ATOM     32  C   UNL d   1      21.312 -19.322   0.187  0.00  0.00     0.005 C 
ENDBRANCH  30  31
ENDBRANCH  29  30
ENDBRANCH  28  29
ENDBRANCH  27  28
ENDBRANCH  24  27
BRANCH  25  33
ATOM     33  C   UNL d   1      26.565 -15.136  -3.431  0.00  0.00     0.032 C 
ATOM     34  C   UNL d   1      27.129 -14.929  -4.698  0.00  0.00     0.020 C 
ATOM     35  C   UNL d   1      26.806 -13.748  -5.395  0.00  0.00     0.043 C 
ATOM     36  C   UNL d   1      25.770 -12.937  -4.949  0.00  0.00     0.116 C 
ATOM     37  F   UNL d   1      25.530 -11.763  -5.547  0.00  0.00    -0.206 F 
ATOM     38  C   UNL d   1      24.996 -13.327  -3.873  0.00  0.00     0.043 C 
ATOM     39  C   UNL d   1      25.397 -14.423  -3.116  0.00  0.00     0.020 C 
ENDBRANCH  25  33
ENDBRANCH   1  24
TORSDOF 13
ENDMDL
MODEL 2
REMARK VINA RESULT:    -7.861      3.355      7.394
REMARK INTER + INTRA:         -15.132
REMARK INTER:                 -11.738
REMARK INTRA:                  -3.394
REMARK CONF_INDEPENDENT:        3.878
REMARK UNBOUND:                -3.394
REMARK  13 active torsions:
REMARK  status: ('A' for Active; 'I' for Inactive)
REMARK    1  A    between atoms: C_2  and  C_3 
REMARK    2  A    between atoms: C_3  and  C_4 
REMARK    3  A    between atoms: C_4  and  C_5 
REMARK    4  A    between atoms: C_5  and  C_6 
REMARK    5  A    between atoms: C_6  and  N_7 
REMARK       I    between atoms: N_7  and  C_8 
REMARK    6  A    between atoms: C_17  and  N_7 
REMARK    7  A    between atoms: C_8  and  C_10 
REMARK    8  A    between atoms: C_17  and  C_27 
REMARK    9  A    between atoms: C_17  and  C_18 
REMARK       I    between atoms: C_18  and  N_20 
REMARK   10  A    between atoms: N_20  and  C_21 
REMARK   11  A    between atoms: C_28  and  O_29 
REMARK   12  A    between atoms: C_31  and  O_32 
REMARK   13  A    between atoms: C_34  and  O_35 
ROOT
ATOM      1  C   UNL d   1      26.033 -13.084  -3.363  0.00  0.00     0.218 C 
ENDROOT
BRANCH   1   2
ATOM      2  C   UNL d   1      26.812 -13.183  -4.690  0.00  0.00     0.040 C 
ATOM      3  C   UNL d   1      26.651 -12.252  -5.732  0.00  0.00     0.080 C 
ATOM      4  C   UNL d   1      27.442 -12.320  -6.888  0.00  0.00     0.073 C 
ATOM      5  C   UNL d   1      28.460 -13.262  -6.971  0.00  0.00     0.071 C 
ATOM      6  C   UNL d   1      28.596 -14.223  -5.998  0.00  0.00     0.073 C 
ATOM      7  C   UNL d   1      27.664 -14.264  -4.974  0.00  0.00     0.080 C 
BRANCH   3   8
ATOM      8  O   UNL d   1      25.718 -11.248  -5.734  0.00  0.00    -0.360 OA
ATOM      9  H   UNL d   1      24.999 -11.435  -5.114  0.00  0.00     0.217 HD
ENDBRANCH   3   8
BRANCH   5  10
ATOM     10  O   UNL d   1      29.321 -13.335  -8.022  0.00  0.00    -0.361 OA
ATOM     11  H   UNL d   1      29.016 -14.037  -8.617  0.00  0.00     0.217 HD
ENDBRANCH   5  10
BRANCH   7  12
ATOM     12  O   UNL d   1      27.659 -15.405  -4.216  0.00  0.00    -0.360 OA
ATOM     13  H   UNL d   1      27.336 -15.108  -3.347  0.00  0.00     0.217 HD
ENDBRANCH   7  12
ENDBRANCH   1   2
BRANCH   1  14
ATOM     14  C   UNL d   1      25.454 -14.514  -3.135  0.00  0.00     0.245 C 
ATOM     15  O   UNL d   1      25.156 -15.212  -4.096  0.00  0.00    -0.271 OA
ATOM     16  N   UNL d   1      25.214 -14.959  -1.840  0.00  0.00    -0.354 N 
ATOM     17  H   UNL d   1      25.267 -14.333  -1.048  0.00  0.00     0.162 HD
BRANCH  16  18
ATOM     18  C   UNL d   1      24.803 -16.356  -1.603  0.00  0.00     0.084 C 
ATOM     19  C   UNL d   1      25.672 -17.058  -0.545  0.00  0.00     0.025 C 
ATOM     20  C   UNL d   1      25.134 -18.444  -0.177  0.00  0.00     0.002 C 
ATOM     21  C   UNL d   1      23.667 -18.391   0.234  0.00  0.00     0.000 C 
ATOM     22  C   UNL d   1      22.813 -17.813  -0.889  0.00  0.00     0.002 C 
ATOM     23  C   UNL d   1      23.299 -16.433  -1.270  0.00  0.00     0.025 C 
ENDBRANCH  16  18
ENDBRANCH   1  14
BRANCH   1  24
ATOM     24  N   UNL d   1      26.748 -12.553  -2.126  0.00  0.00    -0.330 N 
ATOM     25  C   UNL d   1      27.617 -13.428  -1.411  0.00  0.00     0.254 C 
ATOM     26  O   UNL d   1      28.255 -14.310  -1.973  0.00  0.00    -0.267 OA
BRANCH  24  27
ATOM     27  C   UNL d   1      27.106 -11.110  -2.193  0.00  0.00     0.127 C 
BRANCH  27  28
ATOM     28  C   UNL d   1      26.164 -10.322  -3.060  0.00  0.00     0.020 C 
BRANCH  28  29
ATOM     29  C   UNL d   1      26.489  -8.982  -3.628  0.00  0.00     0.002 C 
BRANCH  29  30
ATOM     30  C   UNL d   1      25.156  -8.231  -3.790  0.00  0.00    -0.000 C 
BRANCH  30  31
ATOM     31  C   UNL d   1      24.525  -8.594  -5.108  0.00  0.00    -0.005 C 
ATOM     32  C   UNL d   1      23.627  -7.482  -5.606  0.00  0.00     0.005 C 
ENDBRANCH  30  31
ENDBRANCH  29  30
ENDBRANCH  28  29
ENDBRANCH  27  28
ENDBRANCH  24  27
BRANCH  25  33
ATOM     33  C   UNL d   1      27.854 -13.330   0.098  0.00  0.00     0.032 C 
ATOM     34  C   UNL d   1      28.637 -14.166   0.907  0.00  0.00     0.020 C 
ATOM     35  C   UNL d   1      28.241 -14.377   2.242  0.00  0.00     0.043 C 
ATOM     36  C   UNL d   1      27.249 -13.585   2.807  0.00  0.00     0.116 C 
ATOM     37  F   UNL d   1      26.797 -13.852   4.039  0.00  0.00    -0.206 F 
ATOM     38  C   UNL d   1      26.706 -12.535   2.093  0.00  0.00     0.043 C 
ATOM     39  C   UNL d   1      27.009 -12.412   0.741  0.00  0.00     0.020 C 
ENDBRANCH  25  33
ENDBRANCH   1  24
TORSDOF 13
ENDMDL
MODEL 3
REMARK VINA RESULT:    -7.750      3.178      6.699
REMARK INTER + INTRA:         -15.240
REMARK INTER:                 -11.628
REMARK INTRA:                  -3.613
REMARK CONF_INDEPENDENT:        3.878
REMARK UNBOUND:                -3.613
REMARK  13 active torsions:
REMARK  status: ('A' for Active; 'I' for Inactive)
REMARK    1  A    between atoms: C_2  and  C_3 
REMARK    2  A    between atoms: C_3  and  C_4 
REMARK    3  A    between atoms: C_4  and  C_5 
REMARK    4  A    between atoms: C_5  and  C_6 
REMARK    5  A    between atoms: C_6  and  N_7 
REMARK       I    between atoms: N_7  and  C_8 
REMARK    6  A    between atoms: C_17  and  N_7 
REMARK    7  A    between atoms: C_8  and  C_10 
REMARK    8  A    between atoms: C_17  and  C_27 
REMARK    9  A    between atoms: C_17  and  C_18 
REMARK       I    between atoms: C_18  and  N_20 
REMARK   10  A    between atoms: N_20  and  C_21 
REMARK   11  A    between atoms: C_28  and  O_29 
REMARK   12  A    between atoms: C_31  and  O_32 
REMARK   13  A    between atoms: C_34  and  O_35 
ROOT
ATOM      1  C   UNL d   1      27.693 -14.296  -2.737  0.00  0.00     0.218 C 
ENDROOT
BRANCH   1   2
ATOM      2  C   UNL d   1      28.486 -14.424  -4.052  0.00  0.00     0.040 C 
ATOM      3  C   UNL d   1      27.931 -14.983  -5.218  0.00  0.00     0.080 C 
ATOM      4  C   UNL d   1      28.650 -15.001  -6.422  0.00  0.00     0.073 C 
ATOM      5  C   UNL d   1      29.890 -14.379  -6.492  0.00  0.00     0.071 C 
ATOM      6  C   UNL d   1      30.482 -13.883  -5.355  0.00  0.00     0.073 C 
ATOM      7  C   UNL d   1      29.843 -14.072  -4.140  0.00  0.00     0.080 C 
BRANCH   3   8
ATOM      8  O   UNL d   1      26.696 -15.575  -5.279  0.00  0.00    -0.360 OA
ATOM      9  H   UNL d   1      25.989 -14.920  -5.203  0.00  0.00     0.217 HD
ENDBRANCH   3   8
BRANCH   5  10
ATOM     10  O   UNL d   1      30.609 -14.282  -7.644  0.00  0.00    -0.361 OA
ATOM     11  H   UNL d   1      29.999 -14.373  -8.392  0.00  0.00     0.217 HD
ENDBRANCH   5  10
BRANCH   7  12
ATOM     12  O   UNL d   1      30.603 -13.841  -3.024  0.00  0.00    -0.360 OA
ATOM     13  H   UNL d   1      31.353 -14.456  -3.119  0.00  0.00     0.217 HD
ENDBRANCH   7  12
ENDBRANCH   1   2
BRANCH   1  14
ATOM     14  C   UNL d   1      26.632 -13.187  -3.020  0.00  0.00     0.245 C 
ATOM     15  O   UNL d   1      25.719 -12.999  -2.227  0.00  0.00    -0.271 OA
ATOM     16  N   UNL d   1      26.691 -12.469  -4.209  0.00  0.00    -0.354 N 
ATOM     17  H   UNL d   1      27.312 -12.739  -4.959  0.00  0.00     0.162 HD
BRANCH  16  18
ATOM     18  C   UNL d   1      25.785 -11.325  -4.426  0.00  0.00     0.084 C 
ATOM     19  C   UNL d   1      25.970 -10.215  -3.375  0.00  0.00     0.025 C 
ATOM     20  C   UNL d   1      25.155  -8.961  -3.706  0.00  0.00     0.002 C 
ATOM     21  C   UNL d   1      25.435  -8.460  -5.118  0.00  0.00     0.000 C 
ATOM     22  C   UNL d   1      25.115  -9.539  -6.146  0.00  0.00     0.002 C 
ATOM     23  C   UNL d   1      25.915 -10.792  -5.867  0.00  0.00     0.025 C 
ENDBRANCH  16  18
ENDBRANCH   1  14
BRANCH   1  24
ATOM     24  N   UNL d   1      27.065 -15.545  -2.130  0.00  0.00    -0.330 N 
ATOM     25  C   UNL d   1      25.690 -15.815  -2.391  0.00  0.00     0.254 C 
ATOM     26  O   UNL d   1      25.155 -15.493  -3.444  0.00  0.00    -0.267 OA
BRANCH  24  27
ATOM     27  C   UNL d   1      27.994 -16.700  -2.000  0.00  0.00     0.127 C 
BRANCH  27  28
ATOM     28  C   UNL d   1      28.374 -16.977  -0.572  0.00  0.00     0.020 C 
BRANCH  28  29
ATOM     29  C   UNL d   1      27.557 -16.547   0.599  0.00  0.00     0.002 C 
BRANCH  29  30
ATOM     30  C   UNL d   1      27.969 -15.101   0.924  0.00  0.00    -0.000 C 
BRANCH  30  31
ATOM     31  C   UNL d   1      26.842 -14.163   0.584  0.00  0.00    -0.005 C 
ATOM     32  C   UNL d   1      26.654 -13.121   1.667  0.00  0.00     0.005 C 
ENDBRANCH  30  31
ENDBRANCH  29  30
ENDBRANCH  28  29
ENDBRANCH  27  28
ENDBRANCH  24  27
BRANCH  25  33
ATOM     33  C   UNL d   1      24.775 -16.548  -1.407  0.00  0.00     0.032 C 
ATOM     34  C   UNL d   1      24.973 -17.804  -0.813  0.00  0.00     0.020 C 
ATOM     35  C   UNL d   1      23.846 -18.595  -0.520  0.00  0.00     0.043 C 
ATOM     36  C   UNL d   1      22.572 -18.046  -0.587  0.00  0.00     0.116 C 
ATOM     37  F   UNL d   1      21.495 -18.822  -0.412  0.00  0.00    -0.206 F 
ATOM     38  C   UNL d   1      22.408 -16.701  -0.858  0.00  0.00     0.043 C 
ATOM     39  C   UNL d   1      23.509 -15.957  -1.269  0.00  0.00     0.020 C 
ENDBRANCH  25  33
ENDBRANCH   1  24
TORSDOF 13
ENDMDL
MODEL 4
REMARK VINA RESULT:    -7.327      3.408      7.413
REMARK INTER + INTRA:         -15.340
REMARK INTER:                 -11.205
REMARK INTRA:                  -4.135
REMARK CONF_INDEPENDENT:        3.878
REMARK UNBOUND:                -4.135
REMARK  13 active torsions:
REMARK  status: ('A' for Active; 'I' for Inactive)
REMARK    1  A    between atoms: C_2  and  C_3 
REMARK    2  A    between atoms: C_3  and  C_4 
REMARK    3  A    between atoms: C_4  and  C_5 
REMARK    4  A    between atoms: C_5  and  C_6 
REMARK    5  A    between atoms: C_6  and  N_7 
REMARK       I    between atoms: N_7  and  C_8 
REMARK    6  A    between atoms: C_17  and  N_7 
REMARK    7  A    between atoms: C_8  and  C_10 
REMARK    8  A    between atoms: C_17  and  C_27 
REMARK    9  A    between atoms: C_17  and  C_18 
REMARK       I    between atoms: C_18  and  N_20 
REMARK   10  A    between atoms: N_20  and  C_21 
REMARK   11  A    between atoms: C_28  and  O_29 
REMARK   12  A    between atoms: C_31  and  O_32 
REMARK   13  A    between atoms: C_34  and  O_35 
ROOT
ATOM      1  C   UNL d   1      27.627 -15.763  -2.661  0.00  0.00     0.218 C 
ENDROOT
BRANCH   1   2
ATOM      2  C   UNL d   1      27.104 -14.502  -3.375  0.00  0.00     0.040 C 
ATOM      3  C   UNL d   1      27.918 -13.382  -3.624  0.00  0.00     0.080 C 
ATOM      4  C   UNL d   1      27.436 -12.288  -4.357  0.00  0.00     0.073 C 
ATOM      5  C   UNL d   1      26.169 -12.345  -4.925  0.00  0.00     0.071 C 
ATOM      6  C   UNL d   1      25.331 -13.398  -4.644  0.00  0.00     0.073 C 
ATOM      7  C   UNL d   1      25.755 -14.360  -3.742  0.00  0.00     0.080 C 
BRANCH   3   8
ATOM      8  O   UNL d   1      29.200 -13.241  -3.160  0.00  0.00    -0.360 OA
ATOM      9  H   UNL d   1      29.487 -14.026  -2.674  0.00  0.00     0.217 HD
ENDBRANCH   3   8
BRANCH   5  10
ATOM     10  O   UNL d   1      25.665 -11.361  -5.717  0.00  0.00    -0.361 OA
ATOM     11  H   UNL d   1      24.783 -11.128  -5.390  0.00  0.00     0.217 HD
ENDBRANCH   5  10
BRANCH   7  12
ATOM     12  O   UNL d   1      24.785 -15.203  -3.267  0.00  0.00    -0.360 OA
ATOM     13  H   UNL d   1      24.902 -15.174  -2.301  0.00  0.00     0.217 HD
ENDBRANCH   7  12
ENDBRANCH   1   2
BRANCH   1  14
ATOM     14  C   UNL d   1      28.976 -16.091  -3.372  0.00  0.00     0.245 C 
ATOM     15  O   UNL d   1      30.015 -16.128  -2.725  0.00  0.00    -0.271 OA
ATOM     16  N   UNL d   1      29.000 -16.269  -4.751  0.00  0.00    -0.354 N 
ATOM     17  H   UNL d   1      28.197 -16.051  -5.325  0.00  0.00     0.162 HD
BRANCH  16  18
ATOM     18  C   UNL d   1      30.237 -16.719  -5.417  0.00  0.00     0.084 C 
ATOM     19  C   UNL d   1      30.392 -18.250  -5.408  0.00  0.00     0.025 C 
ATOM     20  C   UNL d   1      31.582 -18.720  -6.249  0.00  0.00     0.002 C 
ATOM     21  C   UNL d   1      31.530 -18.160  -7.666  0.00  0.00     0.000 C 
ATOM     22  C   UNL d   1      31.512 -16.637  -7.645  0.00  0.00     0.002 C 
ATOM     23  C   UNL d   1      30.337 -16.130  -6.838  0.00  0.00     0.025 C 
ENDBRANCH  16  18
ENDBRANCH   1  14
BRANCH   1  24
ATOM     24  N   UNL d   1      27.771 -15.745  -1.144  0.00  0.00    -0.330 N 
ATOM     25  C   UNL d   1      27.040 -14.773  -0.400  0.00  0.00     0.254 C 
ATOM     26  O   UNL d   1      25.946 -14.364  -0.766  0.00  0.00    -0.267 OA
BRANCH  24  27
ATOM     27  C   UNL d   1      27.985 -17.084  -0.529  0.00  0.00     0.127 C 
BRANCH  27  28
ATOM     28  C   UNL d   1      27.022 -17.364   0.590  0.00  0.00     0.020 C 
BRANCH  28  29
ATOM     29  C   UNL d   1      25.631 -17.859   0.381  0.00  0.00     0.002 C 
BRANCH  29  30
ATOM     30  C   UNL d   1      25.221 -17.448  -1.043  0.00  0.00    -0.000 C 
BRANCH  30  31
ATOM     31  C   UNL d   1      23.720 -17.454  -1.161  0.00  0.00    -0.005 C 
ATOM     32  C   UNL d   1      23.117 -18.600  -0.376  0.00  0.00     0.005 C 
ENDBRANCH  30  31
ENDBRANCH  29  30
ENDBRANCH  28  29
ENDBRANCH  27  28
ENDBRANCH  24  27
BRANCH  25  33
ATOM     33  C   UNL d   1      27.534 -14.181   0.922  0.00  0.00     0.032 C 
ATOM     34  C   UNL d   1      28.600 -14.620   1.722  0.00  0.00     0.020 C 
ATOM     35  C   UNL d   1      28.509 -14.450   3.117  0.00  0.00     0.043 C 
ATOM     36  C   UNL d   1      27.510 -13.650   3.658  0.00  0.00     0.116 C 
ATOM     37  F   UNL d   1      27.358 -13.572   4.987  0.00  0.00    -0.206 F 
ATOM     38  C   UNL d   1      26.655 -12.950   2.830  0.00  0.00     0.043 C 
ATOM     39  C   UNL d   1      26.668 -13.218   1.466  0.00  0.00     0.020 C 
ENDBRANCH  25  33
ENDBRANCH   1  24
TORSDOF 13
ENDMDL
MODEL 5
REMARK VINA RESULT:    -7.289      2.959      6.600
REMARK INTER + INTRA:         -15.294
REMARK INTER:                 -11.167
REMARK INTRA:                  -4.127
REMARK CONF_INDEPENDENT:        3.878
REMARK UNBOUND:                -4.127
REMARK  13 active torsions:
REMARK  status: ('A' for Active; 'I' for Inactive)
REMARK    1  A    between atoms: C_2  and  C_3 
REMARK    2  A    between atoms: C_3  and  C_4 
REMARK    3  A    between atoms: C_4  and  C_5 
REMARK    4  A    between atoms: C_5  and  C_6 
REMARK    5  A    between atoms: C_6  and  N_7 
REMARK       I    between atoms: N_7  and  C_8 
REMARK    6  A    between atoms: C_17  and  N_7 
REMARK    7  A    between atoms: C_8  and  C_10 
REMARK    8  A    between atoms: C_17  and  C_27 
REMARK    9  A    between atoms: C_17  and  C_18 
REMARK       I    between atoms: C_18  and  N_20 
REMARK   10  A    between atoms: N_20  and  C_21 
REMARK   11  A    between atoms: C_28  and  O_29 
REMARK   12  A    between atoms: C_31  and  O_32 
REMARK   13  A    between atoms: C_34  and  O_35 
ROOT
ATOM      1  C   UNL d   1      27.229 -15.154  -1.927  0.00  0.00     0.218 C 
ENDROOT
BRANCH   1   2
ATOM      2  C   UNL d   1      26.745 -13.912  -2.700  0.00  0.00     0.040 C 
ATOM      3  C   UNL d   1      25.913 -14.003  -3.832  0.00  0.00     0.080 C 
ATOM      4  C   UNL d   1      25.417 -12.850  -4.458  0.00  0.00     0.073 C 
ATOM      5  C   UNL d   1      25.673 -11.602  -3.903  0.00  0.00     0.071 C 
ATOM      6  C   UNL d   1      26.534 -11.481  -2.838  0.00  0.00     0.073 C 
ATOM      7  C   UNL d   1      27.180 -12.616  -2.376  0.00  0.00     0.080 C 
BRANCH   3   8
ATOM      8  O   UNL d   1      25.551 -15.181  -4.431  0.00  0.00    -0.360 OA
ATOM      9  H   UNL d   1      26.236 -15.855  -4.324  0.00  0.00     0.217 HD
ENDBRANCH   3   8
BRANCH   5  10
ATOM     10  O   UNL d   1      25.158 -10.447  -4.403  0.00  0.00    -0.361 OA
ATOM     11  H   UNL d   1      24.780 -10.635  -5.276  0.00  0.00     0.217 HD
ENDBRANCH   5  10
BRANCH   7  12
ATOM     12  O   UNL d   1      28.240 -12.400  -1.535  0.00  0.00    -0.360 OA
ATOM     13  H   UNL d   1      29.010 -12.377  -2.131  0.00  0.00     0.217 HD
ENDBRANCH   7  12
ENDBRANCH   1   2
BRANCH   1  14
ATOM     14  C   UNL d   1      25.946 -16.017  -1.721  0.00  0.00     0.245 C 
ATOM     15  O   UNL d   1      25.517 -16.702  -2.640  0.00  0.00    -0.271 OA
ATOM     16  N   UNL d   1      25.257 -15.947  -0.515  0.00  0.00    -0.354 N 
ATOM     17  H   UNL d   1      25.479 -15.247   0.180  0.00  0.00     0.162 HD
BRANCH  16  18
ATOM     18  C   UNL d   1      24.130 -16.861  -0.254  0.00  0.00     0.084 C 
ATOM     19  C   UNL d   1      22.859 -16.472  -1.031  0.00  0.00     0.025 C 
ATOM     20  C   UNL d   1      21.750 -17.519  -0.894  0.00  0.00     0.002 C 
ATOM     21  C   UNL d   1      22.240 -18.914  -1.266  0.00  0.00     0.000 C 
ATOM     22  C   UNL d   1      23.416 -19.324  -0.387  0.00  0.00     0.002 C 
ATOM     23  C   UNL d   1      24.544 -18.324  -0.508  0.00  0.00     0.025 C 
ENDBRANCH  16  18
ENDBRANCH   1  14
BRANCH   1  24
ATOM     24  N   UNL d   1      28.383 -15.972  -2.493  0.00  0.00    -0.330 N 
ATOM     25  C   UNL d   1      29.328 -15.323  -3.341  0.00  0.00     0.254 C 
ATOM     26  O   UNL d   1      29.621 -14.143  -3.202  0.00  0.00    -0.267 OA
BRANCH  24  27
ATOM     27  C   UNL d   1      28.873 -17.051  -1.593  0.00  0.00     0.127 C 
BRANCH  27  28
ATOM     28  C   UNL d   1      28.557 -16.784  -0.148  0.00  0.00     0.020 C 
BRANCH  28  29
ATOM     29  C   UNL d   1      29.008 -15.566   0.585  0.00  0.00     0.002 C 
BRANCH  29  30
ATOM     30  C   UNL d   1      27.781 -15.015   1.331  0.00  0.00    -0.000 C 
BRANCH  30  31
ATOM     31  C   UNL d   1      27.650 -13.537   1.071  0.00  0.00    -0.005 C 
ATOM     32  C   UNL d   1      26.415 -12.973   1.742  0.00  0.00     0.005 C 
ENDBRANCH  30  31
ENDBRANCH  29  30
ENDBRANCH  28  29
ENDBRANCH  27  28
ENDBRANCH  24  27
BRANCH  25  33
ATOM     33  C   UNL d   1      30.076 -16.040  -4.468  0.00  0.00     0.032 C 
ATOM     34  C   UNL d   1      30.300 -15.592  -5.779  0.00  0.00     0.020 C 
ATOM     35  C   UNL d   1      30.369 -16.545  -6.813  0.00  0.00     0.043 C 
ATOM     36  C   UNL d   1      30.461 -17.898  -6.510  0.00  0.00     0.116 C 
ATOM     37  F   UNL d   1      30.420 -18.811  -7.488  0.00  0.00    -0.206 F 
ATOM     38  C   UNL d   1      30.572 -18.310  -5.196  0.00  0.00     0.043 C 
ATOM     39  C   UNL d   1      30.378 -17.380  -4.180  0.00  0.00     0.020 C 
ENDBRANCH  25  33
ENDBRANCH   1  24
TORSDOF 13
ENDMDL
MODEL 6
REMARK VINA RESULT:    -7.235      3.159      7.201
REMARK INTER + INTRA:         -15.474
REMARK INTER:                 -11.113
REMARK INTRA:                  -4.361
REMARK CONF_INDEPENDENT:        3.878
REMARK UNBOUND:                -4.361
REMARK  13 active torsions:
REMARK  status: ('A' for Active; 'I' for Inactive)
REMARK    1  A    between atoms: C_2  and  C_3 
REMARK    2  A    between atoms: C_3  and  C_4 
REMARK    3  A    between atoms: C_4  and  C_5 
REMARK    4  A    between atoms: C_5  and  C_6 
REMARK    5  A    between atoms: C_6  and  N_7 
REMARK       I    between atoms: N_7  and  C_8 
REMARK    6  A    between atoms: C_17  and  N_7 
REMARK    7  A    between atoms: C_8  and  C_10 
REMARK    8  A    between atoms: C_17  and  C_27 
REMARK    9  A    between atoms: C_17  and  C_18 
REMARK       I    between atoms: C_18  and  N_20 
REMARK   10  A    between atoms: N_20  and  C_21 
REMARK   11  A    between atoms: C_28  and  O_29 
REMARK   12  A    between atoms: C_31  and  O_32 
REMARK   13  A    between atoms: C_34  and  O_35 
ROOT
ATOM      1  C   UNL d   1      25.935 -13.287  -2.715  0.00  0.00     0.218 C 
ENDROOT
BRANCH   1   2
ATOM      2  C   UNL d   1      26.909 -13.810  -3.788  0.00  0.00     0.040 C 
ATOM      3  C   UNL d   1      26.486 -14.603  -4.871  0.00  0.00     0.080 C 
ATOM      4  C   UNL d   1      27.383 -14.986  -5.878  0.00  0.00     0.073 C 
ATOM      5  C   UNL d   1      28.686 -14.503  -5.859  0.00  0.00     0.071 C 
ATOM      6  C   UNL d   1      29.142 -13.782  -4.782  0.00  0.00     0.073 C 
ATOM      7  C   UNL d   1      28.296 -13.602  -3.700  0.00  0.00     0.080 C 
BRANCH   3   8
ATOM      8  O   UNL d   1      25.214 -15.089  -5.021  0.00  0.00    -0.360 OA
ATOM      9  H   UNL d   1      24.564 -14.373  -5.049  0.00  0.00     0.217 HD
ENDBRANCH   3   8
BRANCH   5  10
ATOM     10  O   UNL d   1      29.589 -14.762  -6.844  0.00  0.00    -0.361 OA
ATOM     11  H   UNL d   1      29.107 -14.873  -7.678  0.00  0.00     0.217 HD
ENDBRANCH   5  10
BRANCH   7  12
ATOM     12  O   UNL d   1      28.887 -13.155  -2.547  0.00  0.00    -0.360 OA
ATOM     13  H   UNL d   1      29.062 -13.969  -2.042  0.00  0.00     0.217 HD
ENDBRANCH   7  12
ENDBRANCH   1   2
BRANCH   1  14
ATOM     14  C   UNL d   1      24.932 -14.459  -2.484  0.00  0.00     0.245 C 
ATOM     15  O   UNL d   1      23.829 -14.433  -3.016  0.00  0.00    -0.271 OA
ATOM     16  N   UNL d   1      25.272 -15.493  -1.618  0.00  0.00    -0.354 N 
ATOM     17  H   UNL d   1      26.087 -15.436  -1.023  0.00  0.00     0.162 HD
BRANCH  16  18
ATOM     18  C   UNL d   1      24.398 -16.675  -1.501  0.00  0.00     0.084 C 
ATOM     19  C   UNL d   1      25.066 -17.833  -0.739  0.00  0.00     0.025 C 
ATOM     20  C   UNL d   1      24.097 -18.987  -0.468  0.00  0.00     0.002 C 
ATOM     21  C   UNL d   1      22.825 -18.509   0.223  0.00  0.00     0.000 C 
ATOM     22  C   UNL d   1      22.115 -17.457  -0.622  0.00  0.00     0.002 C 
ATOM     23  C   UNL d   1      23.034 -16.287  -0.896  0.00  0.00     0.025 C 
ENDBRANCH  16  18
ENDBRANCH   1  14
BRANCH   1  24
ATOM     24  N   UNL d   1      26.499 -12.751  -1.404  0.00  0.00    -0.330 N 
ATOM     25  C   UNL d   1      27.091 -13.671  -0.489  0.00  0.00     0.254 C 
ATOM     26  O   UNL d   1      27.675 -14.677  -0.868  0.00  0.00    -0.267 OA
BRANCH  24  27
ATOM     27  C   UNL d   1      27.076 -11.383  -1.496  0.00  0.00     0.127 C 
BRANCH  27  28
ATOM     28  C   UNL d   1      26.778 -10.718  -2.810  0.00  0.00     0.020 C 
BRANCH  28  29
ATOM     29  C   UNL d   1      25.737  -9.665  -2.987  0.00  0.00     0.002 C 
BRANCH  29  30
ATOM     30  C   UNL d   1      25.530  -9.492  -4.501  0.00  0.00    -0.000 C 
BRANCH  30  31
ATOM     31  C   UNL d   1      26.563 -10.290  -5.250  0.00  0.00    -0.005 C 
ATOM     32  C   UNL d   1      25.911 -11.331  -6.136  0.00  0.00     0.005 C 
ENDBRANCH  30  31
ENDBRANCH  29  30
ENDBRANCH  28  29
ENDBRANCH  27  28
ENDBRANCH  24  27
BRANCH  25  33
ATOM     33  C   UNL d   1      27.077 -13.472   1.028  0.00  0.00     0.032 C 
ATOM     34  C   UNL d   1      26.761 -12.309   1.746  0.00  0.00     0.020 C 
ATOM     35  C   UNL d   1      27.411 -12.077   2.973  0.00  0.00     0.043 C 
ATOM     36  C   UNL d   1      28.153 -13.088   3.571  0.00  0.00     0.116 C 
ATOM     37  F   UNL d   1      28.857 -12.838   4.682  0.00  0.00    -0.206 F 
ATOM     38  C   UNL d   1      28.188 -14.350   3.010  0.00  0.00     0.043 C 
ATOM     39  C   UNL d   1      27.652 -14.537   1.740  0.00  0.00     0.020 C 
ENDBRANCH  25  33
ENDBRANCH   1  24
TORSDOF 13
ENDMDL
MODEL 7
REMARK VINA RESULT:    -7.020      2.521      5.431
REMARK INTER + INTRA:         -15.002
REMARK INTER:                 -10.898
REMARK INTRA:                  -4.104
REMARK CONF_INDEPENDENT:        3.878
REMARK UNBOUND:                -4.104
REMARK  13 active torsions:
REMARK  status: ('A' for Active; 'I' for Inactive)
REMARK    1  A    between atoms: C_2  and  C_3 
REMARK    2  A    between atoms: C_3  and  C_4 
REMARK    3  A    between atoms: C_4  and  C_5 
REMARK    4  A    between atoms: C_5  and  C_6 
REMARK    5  A    between atoms: C_6  and  N_7 
REMARK       I    between atoms: N_7  and  C_8 
REMARK    6  A    between atoms: C_17  and  N_7 
REMARK    7  A    between atoms: C_8  and  C_10 
REMARK    8  A    between atoms: C_17  and  C_27 
REMARK    9  A    between atoms: C_17  and  C_18 
REMARK       I    between atoms: C_18  and  N_20 
REMARK   10  A    between atoms: N_20  and  C_21 
REMARK   11  A    between atoms: C_28  and  O_29 
REMARK   12  A    between atoms: C_31  and  O_32 
REMARK   13  A    between atoms: C_34  and  O_35 
ROOT
ATOM      1  C   UNL d   1      26.337 -14.543  -1.208  0.00  0.00     0.218 C 
ENDROOT
BRANCH   1   2
ATOM      2  C   UNL d   1      25.661 -15.917  -1.030  0.00  0.00     0.040 C 
ATOM      3  C   UNL d   1      26.376 -17.066  -0.644  0.00  0.00     0.080 C 
ATOM      4  C   UNL d   1      25.715 -18.279  -0.403  0.00  0.00     0.073 C 
ATOM      5  C   UNL d   1      24.328 -18.329  -0.457  0.00  0.00     0.071 C 
ATOM      6  C   UNL d   1      23.612 -17.241  -0.894  0.00  0.00     0.073 C 
ATOM      7  C   UNL d   1      24.305 -16.124  -1.332  0.00  0.00     0.080 C 
BRANCH   3   8
ATOM      8  O   UNL d   1      27.739 -17.118  -0.506  0.00  0.00    -0.360 OA
ATOM      9  H   UNL d   1      28.026 -16.684   0.309  0.00  0.00     0.217 HD
ENDBRANCH   3   8
BRANCH   5  10
ATOM     10  O   UNL d   1      23.612 -19.447  -0.154  0.00  0.00    -0.361 OA
ATOM     11  H   UNL d   1      23.129 -19.284   0.670  0.00  0.00     0.217 HD
ENDBRANCH   5  10
BRANCH   7  12
ATOM     12  O   UNL d   1      23.573 -15.204  -2.035  0.00  0.00    -0.360 OA
ATOM     13  H   UNL d   1      24.044 -15.128  -2.884  0.00  0.00     0.217 HD
ENDBRANCH   7  12
ENDBRANCH   1   2
BRANCH   1  14
ATOM     14  C   UNL d   1      27.212 -14.363   0.071  0.00  0.00     0.245 C 
ATOM     15  O   UNL d   1      28.326 -14.868   0.124  0.00  0.00    -0.271 OA
ATOM     16  N   UNL d   1      26.691 -13.691   1.170  0.00  0.00    -0.354 N 
ATOM     17  H   UNL d   1      25.713 -13.439   1.221  0.00  0.00     0.162 HD
BRANCH  16  18
ATOM     18  C   UNL d   1      27.553 -13.389   2.328  0.00  0.00     0.084 C 
ATOM     19  C   UNL d   1      27.031 -12.207   3.165  0.00  0.00     0.025 C 
ATOM     20  C   UNL d   1      27.830 -12.012   4.457  0.00  0.00     0.002 C 
ATOM     21  C   UNL d   1      27.909 -13.297   5.273  0.00  0.00     0.000 C 
ATOM     22  C   UNL d   1      28.553 -14.414   4.460  0.00  0.00     0.002 C 
ATOM     23  C   UNL d   1      27.782 -14.653   3.181  0.00  0.00     0.025 C 
ENDBRANCH  16  18
ENDBRANCH   1  14
BRANCH   1  24
ATOM     24  N   UNL d   1      27.125 -14.268  -2.483  0.00  0.00    -0.330 N 
ATOM     25  C   UNL d   1      26.747 -14.946  -3.679  0.00  0.00     0.254 C 
ATOM     26  O   UNL d   1      25.585 -15.255  -3.910  0.00  0.00    -0.267 OA
BRANCH  24  27
ATOM     27  C   UNL d   1      27.644 -12.878  -2.599  0.00  0.00     0.127 C 
BRANCH  27  28
ATOM     28  C   UNL d   1      26.571 -11.844  -2.403  0.00  0.00     0.020 C 
BRANCH  28  29
ATOM     29  C   UNL d   1      25.933 -11.093  -3.522  0.00  0.00     0.002 C 
BRANCH  29  30
ATOM     30  C   UNL d   1      25.951 -12.019  -4.749  0.00  0.00    -0.000 C 
BRANCH  30  31
ATOM     31  C   UNL d   1      25.899 -11.195  -6.008  0.00  0.00    -0.005 C 
ATOM     32  C   UNL d   1      27.235 -11.202  -6.720  0.00  0.00     0.005 C 
ENDBRANCH  30  31
ENDBRANCH  29  30
ENDBRANCH  28  29
ENDBRANCH  27  28
ENDBRANCH  24  27
BRANCH  25  33
ATOM     33  C   UNL d   1      27.740 -15.319  -4.783  0.00  0.00     0.032 C 
ATOM     34  C   UNL d   1      28.919 -16.069  -4.669  0.00  0.00     0.020 C 
ATOM     35  C   UNL d   1      29.996 -15.766  -5.524  0.00  0.00     0.043 C 
ATOM     36  C   UNL d   1      29.807 -14.920  -6.609  0.00  0.00     0.116 C 
ATOM     37  F   UNL d   1      30.851 -14.548  -7.361  0.00  0.00    -0.206 F 
ATOM     38  C   UNL d   1      28.547 -14.441  -6.906  0.00  0.00     0.043 C 
ATOM     39  C   UNL d   1      27.517 -14.640  -5.992  0.00  0.00     0.020 C 
ENDBRANCH  25  33
ENDBRANCH   1  24
TORSDOF 13
ENDMDL
MODEL 8
REMARK VINA RESULT:    -6.803      3.034      7.149
REMARK INTER + INTRA:         -14.957
REMARK INTER:                 -10.681
REMARK INTRA:                  -4.276
REMARK CONF_INDEPENDENT:        3.878
REMARK UNBOUND:                -4.276
REMARK  13 active torsions:
REMARK  status: ('A' for Active; 'I' for Inactive)
REMARK    1  A    between atoms: C_2  and  C_3 
REMARK    2  A    between atoms: C_3  and  C_4 
REMARK    3  A    between atoms: C_4  and  C_5 
REMARK    4  A    between atoms: C_5  and  C_6 
REMARK    5  A    between atoms: C_6  and  N_7 
REMARK       I    between atoms: N_7  and  C_8 
REMARK    6  A    between atoms: C_17  and  N_7 
REMARK    7  A    between atoms: C_8  and  C_10 
REMARK    8  A    between atoms: C_17  and  C_27 
REMARK    9  A    between atoms: C_17  and  C_18 
REMARK       I    between atoms: C_18  and  N_20 
REMARK   10  A    between atoms: N_20  and  C_21 
REMARK   11  A    between atoms: C_28  and  O_29 
REMARK   12  A    between atoms: C_31  and  O_32 
REMARK   13  A    between atoms: C_34  and  O_35 
ROOT
ATOM      1  C   UNL d   1      26.516 -13.490  -2.842  0.00  0.00     0.218 C 
ENDROOT
BRANCH   1   2
ATOM      2  C   UNL d   1      26.983 -13.416  -4.309  0.00  0.00     0.040 C 
ATOM      3  C   UNL d   1      26.633 -12.352  -5.161  0.00  0.00     0.080 C 
ATOM      4  C   UNL d   1      27.149 -12.269  -6.462  0.00  0.00     0.073 C 
ATOM      5  C   UNL d   1      28.090 -13.198  -6.888  0.00  0.00     0.071 C 
ATOM      6  C   UNL d   1      28.401 -14.281  -6.102  0.00  0.00     0.073 C 
ATOM      7  C   UNL d   1      27.714 -14.454  -4.911  0.00  0.00     0.080 C 
BRANCH   3   8
ATOM      8  O   UNL d   1      25.757 -11.351  -4.827  0.00  0.00    -0.360 OA
ATOM      9  H   UNL d   1      24.894 -11.487  -5.240  0.00  0.00     0.217 HD
ENDBRANCH   3   8
BRANCH   5  10
ATOM     10  O   UNL d   1      28.699 -13.135  -8.104  0.00  0.00    -0.361 OA
ATOM     11  H   UNL d   1      28.914 -14.038  -8.384  0.00  0.00     0.217 HD
ENDBRANCH   5  10
BRANCH   7  12
ATOM     12  O   UNL d   1      27.833 -15.686  -4.325  0.00  0.00    -0.360 OA
ATOM     13  H   UNL d   1      27.034 -15.762  -3.774  0.00  0.00     0.217 HD
ENDBRANCH   7  12
ENDBRANCH   1   2
BRANCH   1  14
ATOM     14  C   UNL d   1      25.572 -14.731  -2.789  0.00  0.00     0.245 C 
ATOM     15  O   UNL d   1      25.155 -15.225  -3.828  0.00  0.00    -0.271 OA
ATOM     16  N   UNL d   1      25.154 -15.223  -1.557  0.00  0.00    -0.354 N 
ATOM     17  H   UNL d   1      25.325 -14.716  -0.700  0.00  0.00     0.162 HD
BRANCH  16  18
ATOM     18  C   UNL d   1      24.381 -16.477  -1.488  0.00  0.00     0.084 C 
ATOM     19  C   UNL d   1      25.132 -17.596  -0.744  0.00  0.00     0.025 C 
ATOM     20  C   UNL d   1      24.259 -18.834  -0.522  0.00  0.00     0.002 C 
ATOM     21  C   UNL d   1      22.940 -18.483   0.159  0.00  0.00     0.000 C 
ATOM     22  C   UNL d   1      22.158 -17.471  -0.670  0.00  0.00     0.002 C 
ATOM     23  C   UNL d   1      22.979 -16.221  -0.897  0.00  0.00     0.025 C 
ENDBRANCH  16  18
ENDBRANCH   1  14
BRANCH   1  24
ATOM     24  N   UNL d   1      27.563 -13.521  -1.735  0.00  0.00    -0.330 N 
ATOM     25  C   UNL d   1      27.900 -14.776  -1.148  0.00  0.00     0.254 C 
ATOM     26  O   UNL d   1      27.870 -15.819  -1.787  0.00  0.00    -0.267 OA
BRANCH  24  27
ATOM     27  C   UNL d   1      28.638 -12.501  -1.876  0.00  0.00     0.127 C 
BRANCH  27  28
ATOM     28  C   UNL d   1      28.131 -11.099  -1.684  0.00  0.00     0.020 C 
BRANCH  28  29
ATOM     29  C   UNL d   1      27.537 -10.602  -0.410  0.00  0.00     0.002 C 
BRANCH  29  30
ATOM     30  C   UNL d   1      27.995 -11.562   0.701  0.00  0.00    -0.000 C 
BRANCH  30  31
ATOM     31  C   UNL d   1      27.696 -10.959   2.048  0.00  0.00    -0.005 C 
ATOM     32  C   UNL d   1      26.270 -10.455   2.115  0.00  0.00     0.005 C 
ENDBRANCH  30  31
ENDBRANCH  29  30
ENDBRANCH  28  29
ENDBRANCH  27  28
ENDBRANCH  24  27
BRANCH  25  33
ATOM     33  C   UNL d   1      28.351 -14.929   0.306  0.00  0.00     0.032 C 
ATOM     34  C   UNL d   1      27.554 -14.971   1.460  0.00  0.00     0.020 C 
ATOM     35  C   UNL d   1      28.077 -14.449   2.659  0.00  0.00     0.043 C 
ATOM     36  C   UNL d   1      29.426 -14.133   2.752  0.00  0.00     0.116 C 
ATOM     37  F   UNL d   1      29.904 -13.540   3.853  0.00  0.00    -0.206 F 
ATOM     38  C   UNL d   1      30.279 -14.408   1.700  0.00  0.00     0.043 C 
ATOM     39  C   UNL d   1      29.739 -14.803   0.481  0.00  0.00     0.020 C 
ENDBRANCH  25  33
ENDBRANCH   1  24
TORSDOF 13
ENDMDL
MODEL 9
REMARK VINA RESULT:    -6.655      3.064      7.745
REMARK INTER + INTRA:         -14.902
REMARK INTER:                 -10.533
REMARK INTRA:                  -4.369
REMARK CONF_INDEPENDENT:        3.878
REMARK UNBOUND:                -4.369
REMARK  13 active torsions:
REMARK  status: ('A' for Active; 'I' for Inactive)
REMARK    1  A    between atoms: C_2  and  C_3 
REMARK    2  A    between atoms: C_3  and  C_4 
REMARK    3  A    between atoms: C_4  and  C_5 
REMARK    4  A    between atoms: C_5  and  C_6 
REMARK    5  A    between atoms: C_6  and  N_7 
REMARK       I    between atoms: N_7  and  C_8 
REMARK    6  A    between atoms: C_17  and  N_7 
REMARK    7  A    between atoms: C_8  and  C_10 
REMARK    8  A    between atoms: C_17  and  C_27 
REMARK    9  A    between atoms: C_17  and  C_18 
REMARK       I    between atoms: C_18  and  N_20 
REMARK   10  A    between atoms: N_20  and  C_21 
REMARK   11  A    between atoms: C_28  and  O_29 
REMARK   12  A    between atoms: C_31  and  O_32 
REMARK   13  A    between atoms: C_34  and  O_35 
ROOT
ATOM      1  C   UNL d   1      27.204 -16.253  -0.362  0.00  0.00     0.218 C 
ENDROOT
BRANCH   1   2
ATOM      2  C   UNL d   1      25.804 -16.880  -0.507  0.00  0.00     0.040 C 
ATOM      3  C   UNL d   1      25.521 -18.198  -0.102  0.00  0.00     0.080 C 
ATOM      4  C   UNL d   1      24.216 -18.707  -0.163  0.00  0.00     0.073 C 
ATOM      5  C   UNL d   1      23.170 -17.875  -0.543  0.00  0.00     0.071 C 
ATOM      6  C   UNL d   1      23.427 -16.606  -1.004  0.00  0.00     0.073 C 
ATOM      7  C   UNL d   1      24.746 -16.204  -1.137  0.00  0.00     0.080 C 
BRANCH   3   8
ATOM      8  O   UNL d   1      26.464 -19.089   0.341  0.00  0.00    -0.360 OA
ATOM      9  H   UNL d   1      27.352 -18.707   0.309  0.00  0.00     0.217 HD
ENDBRANCH   3   8
BRANCH   5  10
ATOM     10  O   UNL d   1      21.869 -18.271  -0.546  0.00  0.00    -0.361 OA
ATOM     11  H   UNL d   1      21.518 -18.172   0.352  0.00  0.00     0.217 HD
ENDBRANCH   5  10
BRANCH   7  12
ATOM     12  O   UNL d   1      24.954 -15.070  -1.878  0.00  0.00    -0.360 OA
ATOM     13  H   UNL d   1      25.467 -15.382  -2.645  0.00  0.00     0.217 HD
ENDBRANCH   7  12
ENDBRANCH   1   2
BRANCH   1  14
ATOM     14  C   UNL d   1      27.691 -16.027  -1.827  0.00  0.00     0.245 C 
ATOM     15  O   UNL d   1      26.953 -16.302  -2.765  0.00  0.00    -0.271 OA
ATOM     16  N   UNL d   1      28.988 -15.583  -2.059  0.00  0.00    -0.354 N 
ATOM     17  H   UNL d   1      29.672 -15.538  -1.316  0.00  0.00     0.162 HD
BRANCH  16  18
ATOM     18  C   UNL d   1      29.414 -15.230  -3.426  0.00  0.00     0.084 C 
ATOM     19  C   UNL d   1      29.661 -16.466  -4.308  0.00  0.00     0.025 C 
ATOM     20  C   UNL d   1      29.931 -16.094  -5.769  0.00  0.00     0.002 C 
ATOM     21  C   UNL d   1      28.836 -15.198  -6.337  0.00  0.00     0.000 C 
ATOM     22  C   UNL d   1      28.707 -13.920  -5.518  0.00  0.00     0.002 C 
ATOM     23  C   UNL d   1      28.419 -14.242  -4.069  0.00  0.00     0.025 C 
ENDBRANCH  16  18
ENDBRANCH   1  14
BRANCH   1  24
ATOM     24  N   UNL d   1      27.367 -15.001   0.493  0.00  0.00    -0.330 N 
ATOM     25  C   UNL d   1      28.592 -14.809   1.196  0.00  0.00     0.254 C 
ATOM     26  O   UNL d   1      29.662 -15.213   0.758  0.00  0.00    -0.267 OA
BRANCH  24  27
ATOM     27  C   UNL d   1      26.664 -13.800  -0.034  0.00  0.00     0.127 C 
BRANCH  27  28
ATOM     28  C   UNL d   1      27.612 -12.779  -0.598  0.00  0.00     0.020 C 
BRANCH  28  29
ATOM     29  C   UNL d   1      27.420 -12.113  -1.918  0.00  0.00     0.002 C 
BRANCH  29  30
ATOM     30  C   UNL d   1      25.999 -12.462  -2.392  0.00  0.00    -0.000 C 
BRANCH  30  31
ATOM     31  C   UNL d   1      25.902 -12.280  -3.883  0.00  0.00    -0.005 C 
ATOM     32  C   UNL d   1      25.132 -13.417  -4.521  0.00  0.00     0.005 C 
ENDBRANCH  30  31
ENDBRANCH  29  30
ENDBRANCH  28  29
ENDBRANCH  27  28
ENDBRANCH  24  27
BRANCH  25  33
ATOM     33  C   UNL d   1      28.688 -14.064   2.530  0.00  0.00     0.032 C 
ATOM     34  C   UNL d   1      29.841 -13.749   3.263  0.00  0.00     0.020 C 
ATOM     35  C   UNL d   1      29.754 -13.702   4.668  0.00  0.00     0.043 C 
ATOM     36  C   UNL d   1      28.512 -13.722   5.290  0.00  0.00     0.116 C 
ATOM     37  F   UNL d   1      28.430 -13.784   6.625  0.00  0.00    -0.206 F 
ATOM     38  C   UNL d   1      27.356 -13.702   4.535  0.00  0.00     0.043 C 
ATOM     39  C   UNL d   1      27.447 -13.875   3.158  0.00  0.00     0.020 C 
ENDBRANCH  25  33
ENDBRANCH   1  24
TORSDOF 13
ENDMDL
