MODEL 1
REMARK VINA RESULT:   -10.223      0.000      0.000
REMARK INTER + INTRA:         -15.879
REMARK INTER:                 -13.504
REMARK INTRA:                  -2.375
REMARK CONF_INDEPENDENT:        3.281
REMARK UNBOUND:                -2.375
REMARK  11 active torsions:
REMARK  status: ('A' for Active; 'I' for Inactive)
REMARK    1  A    between atoms: C_2  and  C_3 
REMARK    2  A    between atoms: C_3  and  C_4 
REMARK    3  A    between atoms: C_4  and  C_5 
REMARK       I    between atoms: C_5  and  N_7 
REMARK    4  A    between atoms: N_7  and  C_8 
REMARK    5  A    between atoms: C_11  and  C_12 
REMARK       I    between atoms: C_12  and  N_14 
REMARK    6  A    between atoms: N_14  and  N_15 
REMARK    7  A    between atoms: N_15  and  C_16 
REMARK    8  A    between atoms: C_16  and  N_18 
REMARK       I    between atoms: N_18  and  C_19 
REMARK    9  A    between atoms: C_19  and  C_21 
REMARK   10  A    between atoms: C_25  and  C_26 
REMARK   11  A    between atoms: C_26  and  O_28 
ROOT
ATOM      1  C   UNL d   1      27.631 -16.771  -0.535  0.00  0.00     0.270 C 
ATOM      2  O   UNL d   1      27.965 -15.623  -0.823  0.00  0.00    -0.266 OA
ATOM      3  N   UNL d   1      28.570 -17.741  -0.194  0.00  0.00    -0.264 N 
ATOM      4  H   UNL d   1      28.318 -18.688   0.081  0.00  0.00     0.190 HD
ENDROOT
BRANCH   3   5
ATOM      5  N   UNL d   1      30.001 -17.473  -0.136  0.00  0.00    -0.273 N 
ATOM      6  H   UNL d   1      30.403 -17.493   0.799  0.00  0.00     0.189 HD
BRANCH   5   7
ATOM      7  C   UNL d   1      30.682 -17.211  -1.341  0.00  0.00     0.193 C 
ATOM      8  S   UNL d   1      32.239 -17.836  -1.562  0.00  0.00    -0.039 SA
BRANCH   7   9
ATOM      9  N   UNL d   1      29.981 -16.423  -2.286  0.00  0.00    -0.298 N 
ATOM     10  C   UNL d   1      29.679 -16.797  -3.616  0.00  0.00     0.257 C 
ATOM     11  O   UNL d   1      30.030 -17.843  -4.157  0.00  0.00    -0.267 OA
ATOM     12  H   UNL d   1      29.594 -15.547  -1.968  0.00  0.00     0.171 HD
BRANCH  10  13
ATOM     13  C   UNL d   1      28.853 -15.914  -4.493  0.00  0.00     0.033 A 
ATOM     14  C   UNL d   1      29.418 -15.545  -5.733  0.00  0.00     0.017 A 
ATOM     15  C   UNL d   1      28.817 -14.580  -6.544  0.00  0.00     0.002 A 
ATOM     16  C   UNL d   1      27.613 -14.005  -6.145  0.00  0.00     0.017 A 
ATOM     17  C   UNL d   1      27.048 -14.328  -4.897  0.00  0.00     0.040 A 
ATOM     18  C   UNL d   1      27.680 -15.280  -4.064  0.00  0.00     0.034 A 
BRANCH  17  19
ATOM     19  C   UNL d   1      25.805 -13.600  -4.504  0.00  0.00     0.292 C 
ATOM     20  O   UNL d   1      24.680 -14.075  -4.630  0.00  0.00    -0.259 OA
BRANCH  19  21
ATOM     21  O   UNL d   1      26.086 -12.375  -4.000  0.00  0.00    -0.323 OA
ATOM     22  C   UNL d   1      25.903 -11.301  -4.933  0.00  0.00     0.213 C 
ENDBRANCH  19  21
ENDBRANCH  17  19
ENDBRANCH  10  13
ENDBRANCH   7   9
ENDBRANCH   5   7
ENDBRANCH   3   5
BRANCH   1  23
ATOM     23  C   UNL d   1      26.153 -17.159  -0.509  0.00  0.00     0.033 A 
ATOM     24  C   UNL d   1      25.196 -16.297  -1.089  0.00  0.00     0.019 A 
ATOM     25  C   UNL d   1      23.803 -16.539  -0.973  0.00  0.00     0.030 A 
ATOM     26  C   UNL d   1      23.340 -17.668  -0.299  0.00  0.00     0.034 A 
ATOM     27  C   UNL d   1      24.284 -18.559   0.221  0.00  0.00     0.030 A 
ATOM     28  C   UNL d   1      25.669 -18.316   0.112  0.00  0.00     0.019 A 
BRANCH  26  29
ATOM     29  N   UNL d   1      21.947 -17.914  -0.152  0.00  0.00    -0.327 N 
ATOM     30  C   UNL d   1      21.266 -18.751  -1.030  0.00  0.00     0.222 C 
ATOM     31  O   UNL d   1      21.808 -19.325  -1.975  0.00  0.00    -0.273 OA
ATOM     32  H   UNL d   1      21.512 -17.687   0.734  0.00  0.00     0.169 HD
BRANCH  30  33
ATOM     33  C   UNL d   1      19.785 -18.971  -0.725  0.00  0.00     0.103 C 
BRANCH  33  34
ATOM     34  C   UNL d   1      19.617 -19.333   0.760  0.00  0.00     0.009 C 
BRANCH  34  35
ATOM     35  C   UNL d   1      19.469 -20.831   1.003  0.00  0.00    -0.004 C 
ATOM     36  C   UNL d   1      18.032 -21.275   0.765  0.00  0.00     0.005 C 
ENDBRANCH  34  35
ENDBRANCH  33  34
ENDBRANCH  30  33
ENDBRANCH  26  29
ENDBRANCH   1  23
TORSDOF 11
ENDMDL
MODEL 2
REMARK VINA RESULT:   -10.178      0.706      1.298
REMARK INTER + INTRA:         -15.710
REMARK INTER:                 -13.460
REMARK INTRA:                  -2.250
REMARK CONF_INDEPENDENT:        3.281
REMARK UNBOUND:                -2.250
REMARK  11 active torsions:
REMARK  status: ('A' for Active; 'I' for Inactive)
REMARK    1  A    between atoms: C_2  and  C_3 
REMARK    2  A    between atoms: C_3  and  C_4 
REMARK    3  A    between atoms: C_4  and  C_5 
REMARK       I    between atoms: C_5  and  N_7 
REMARK    4  A    between atoms: N_7  and  C_8 
REMARK    5  A    between atoms: C_11  and  C_12 
REMARK       I    between atoms: C_12  and  N_14 
REMARK    6  A    between atoms: N_14  and  N_15 
REMARK    7  A    between atoms: N_15  and  C_16 
REMARK    8  A    between atoms: C_16  and  N_18 
REMARK       I    between atoms: N_18  and  C_19 
REMARK    9  A    between atoms: C_19  and  C_21 
REMARK   10  A    between atoms: C_25  and  C_26 
REMARK   11  A    between atoms: C_26  and  O_28 
ROOT
ATOM      1  C   UNL d   1      27.720 -16.836  -0.752  0.00  0.00     0.270 C 
ATOM      2  O   UNL d   1      28.121 -15.786  -1.253  0.00  0.00    -0.266 OA
ATOM      3  N   UNL d   1      28.600 -17.847  -0.374  0.00  0.00    -0.264 N 
ATOM      4  H   UNL d   1      28.298 -18.710   0.071  0.00  0.00     0.190 HD
ENDROOT
BRANCH   3   5
ATOM      5  N   UNL d   1      30.045 -17.737  -0.523  0.00  0.00    -0.273 N 
ATOM      6  H   UNL d   1      30.562 -17.662   0.351  0.00  0.00     0.189 HD
BRANCH   5   7
ATOM      7  C   UNL d   1      30.586 -17.737  -1.824  0.00  0.00     0.193 C 
ATOM      8  S   UNL d   1      31.813 -18.838  -2.208  0.00  0.00    -0.039 SA
BRANCH   7   9
ATOM      9  N   UNL d   1      30.038 -16.786  -2.719  0.00  0.00    -0.298 N 
ATOM     10  C   UNL d   1      29.744 -17.007  -4.085  0.00  0.00     0.257 C 
ATOM     11  O   UNL d   1      29.972 -18.044  -4.702  0.00  0.00    -0.267 OA
ATOM     12  H   UNL d   1      29.761 -15.894  -2.339  0.00  0.00     0.171 HD
BRANCH  10  13
ATOM     13  C   UNL d   1      29.081 -15.950  -4.908  0.00  0.00     0.033 A 
ATOM     14  C   UNL d   1      29.859 -15.362  -5.929  0.00  0.00     0.017 A 
ATOM     15  C   UNL d   1      29.406 -14.244  -6.631  0.00  0.00     0.002 A 
ATOM     16  C   UNL d   1      28.144 -13.726  -6.352  0.00  0.00     0.017 A 
ATOM     17  C   UNL d   1      27.365 -14.270  -5.314  0.00  0.00     0.040 A 
ATOM     18  C   UNL d   1      27.844 -15.381  -4.582  0.00  0.00     0.034 A 
BRANCH  17  19
ATOM     19  C   UNL d   1      26.063 -13.601  -5.018  0.00  0.00     0.292 C 
ATOM     20  O   UNL d   1      25.847 -12.416  -5.254  0.00  0.00    -0.259 OA
BRANCH  19  21
ATOM     21  O   UNL d   1      25.176 -14.464  -4.467  0.00  0.00    -0.323 OA
ATOM     22  C   UNL d   1      24.707 -14.074  -3.168  0.00  0.00     0.213 C 
ENDBRANCH  19  21
ENDBRANCH  17  19
ENDBRANCH  10  13
ENDBRANCH   7   9
ENDBRANCH   5   7
ENDBRANCH   3   5
BRANCH   1  23
ATOM     23  C   UNL d   1      26.228 -17.048  -0.498  0.00  0.00     0.033 A 
ATOM     24  C   UNL d   1      25.803 -18.137   0.294  0.00  0.00     0.019 A 
ATOM     25  C   UNL d   1      24.431 -18.460   0.449  0.00  0.00     0.030 A 
ATOM     26  C   UNL d   1      23.452 -17.678  -0.163  0.00  0.00     0.034 A 
ATOM     27  C   UNL d   1      23.864 -16.561  -0.895  0.00  0.00     0.030 A 
ATOM     28  C   UNL d   1      25.228 -16.242  -1.055  0.00  0.00     0.019 A 
BRANCH  26  29
ATOM     29  N   UNL d   1      22.073 -18.002  -0.039  0.00  0.00    -0.327 N 
ATOM     30  C   UNL d   1      21.440 -18.828  -0.963  0.00  0.00     0.222 C 
ATOM     31  O   UNL d   1      22.015 -19.324  -1.932  0.00  0.00    -0.273 OA
ATOM     32  H   UNL d   1      21.623 -17.843   0.854  0.00  0.00     0.169 HD
BRANCH  30  33
ATOM     33  C   UNL d   1      19.971 -19.138  -0.680  0.00  0.00     0.103 C 
BRANCH  33  34
ATOM     34  C   UNL d   1      19.876 -20.188   0.440  0.00  0.00     0.009 C 
BRANCH  34  35
ATOM     35  C   UNL d   1      18.451 -20.420   0.930  0.00  0.00    -0.004 C 
ATOM     36  C   UNL d   1      18.136 -21.910   0.980  0.00  0.00     0.005 C 
ENDBRANCH  34  35
ENDBRANCH  33  34
ENDBRANCH  30  33
ENDBRANCH  26  29
ENDBRANCH   1  23
TORSDOF 11
ENDMDL
MODEL 3
REMARK VINA RESULT:    -9.327      1.801      2.745
REMARK INTER + INTRA:         -14.784
REMARK INTER:                 -12.608
REMARK INTRA:                  -2.176
REMARK CONF_INDEPENDENT:        3.281
REMARK UNBOUND:                -2.176
REMARK  11 active torsions:
REMARK  status: ('A' for Active; 'I' for Inactive)
REMARK    1  A    between atoms: C_2  and  C_3 
REMARK    2  A    between atoms: C_3  and  C_4 
REMARK    3  A    between atoms: C_4  and  C_5 
REMARK       I    between atoms: C_5  and  N_7 
REMARK    4  A    between atoms: N_7  and  C_8 
REMARK    5  A    between atoms: C_11  and  C_12 
REMARK       I    between atoms: C_12  and  N_14 
REMARK    6  A    between atoms: N_14  and  N_15 
REMARK    7  A    between atoms: N_15  and  C_16 
REMARK    8  A    between atoms: C_16  and  N_18 
REMARK       I    between atoms: N_18  and  C_19 
REMARK    9  A    between atoms: C_19  and  C_21 
REMARK   10  A    between atoms: C_25  and  C_26 
REMARK   11  A    between atoms: C_26  and  O_28 
ROOT
ATOM      1  C   UNL d   1      27.753 -16.787  -1.336  0.00  0.00     0.270 C 
ATOM      2  O   UNL d   1      28.631 -17.018  -0.505  0.00  0.00    -0.266 OA
ATOM      3  N   UNL d   1      28.064 -16.406  -2.639  0.00  0.00    -0.264 N 
ATOM      4  H   UNL d   1      27.359 -16.243  -3.354  0.00  0.00     0.190 HD
ENDROOT
BRANCH   3   5
ATOM      5  N   UNL d   1      29.432 -16.269  -3.120  0.00  0.00    -0.273 N 
ATOM      6  H   UNL d   1      30.144 -16.266  -2.392  0.00  0.00     0.189 HD
BRANCH   5   7
ATOM      7  C   UNL d   1      29.646 -16.149  -4.507  0.00  0.00     0.193 C 
ATOM      8  S   UNL d   1      30.410 -17.410  -5.337  0.00  0.00    -0.039 SA
BRANCH   7   9
ATOM      9  N   UNL d   1      29.189 -14.946  -5.099  0.00  0.00    -0.298 N 
ATOM     10  C   UNL d   1      27.849 -14.643  -5.432  0.00  0.00     0.257 C 
ATOM     11  O   UNL d   1      26.895 -15.405  -5.302  0.00  0.00    -0.267 OA
ATOM     12  H   UNL d   1      29.862 -14.205  -5.229  0.00  0.00     0.171 HD
BRANCH  10  13
ATOM     13  C   UNL d   1      27.476 -13.300  -5.971  0.00  0.00     0.033 A 
ATOM     14  C   UNL d   1      28.153 -12.874  -7.135  0.00  0.00     0.017 A 
ATOM     15  C   UNL d   1      28.019 -11.570  -7.614  0.00  0.00     0.002 A 
ATOM     16  C   UNL d   1      27.166 -10.685  -6.958  0.00  0.00     0.017 A 
ATOM     17  C   UNL d   1      26.510 -11.072  -5.776  0.00  0.00     0.040 A 
ATOM     18  C   UNL d   1      26.676 -12.384  -5.275  0.00  0.00     0.034 A 
BRANCH  17  19
ATOM     19  C   UNL d   1      25.685 -10.037  -5.084  0.00  0.00     0.292 C 
ATOM     20  O   UNL d   1      25.340 -10.127  -3.910  0.00  0.00    -0.259 OA
BRANCH  19  21
ATOM     21  O   UNL d   1      25.381  -9.010  -5.914  0.00  0.00    -0.323 OA
ATOM     22  C   UNL d   1      24.043  -8.514  -5.768  0.00  0.00     0.213 C 
ENDBRANCH  19  21
ENDBRANCH  17  19
ENDBRANCH  10  13
ENDBRANCH   7   9
ENDBRANCH   5   7
ENDBRANCH   3   5
BRANCH   1  23
ATOM     23  C   UNL d   1      26.280 -16.949  -0.965  0.00  0.00     0.033 A 
ATOM     24  C   UNL d   1      25.902 -17.930  -0.022  0.00  0.00     0.019 A 
ATOM     25  C   UNL d   1      24.541 -18.215   0.257  0.00  0.00     0.030 A 
ATOM     26  C   UNL d   1      23.528 -17.502  -0.382  0.00  0.00     0.034 A 
ATOM     27  C   UNL d   1      23.897 -16.485  -1.269  0.00  0.00     0.030 A 
ATOM     28  C   UNL d   1      25.250 -16.204  -1.551  0.00  0.00     0.019 A 
BRANCH  26  29
ATOM     29  N   UNL d   1      22.158 -17.791  -0.133  0.00  0.00    -0.327 N 
ATOM     30  C   UNL d   1      21.460 -18.704  -0.918  0.00  0.00     0.222 C 
ATOM     31  O   UNL d   1      21.967 -19.311  -1.863  0.00  0.00    -0.273 OA
ATOM     32  H   UNL d   1      21.770 -17.530   0.765  0.00  0.00     0.169 HD
BRANCH  30  33
ATOM     33  C   UNL d   1      20.012 -18.962  -0.507  0.00  0.00     0.103 C 
BRANCH  33  34
ATOM     34  C   UNL d   1      19.888 -20.382   0.070  0.00  0.00     0.009 C 
BRANCH  34  35
ATOM     35  C   UNL d   1      18.838 -20.498   1.169  0.00  0.00    -0.004 C 
ATOM     36  C   UNL d   1      18.020 -21.771   0.998  0.00  0.00     0.005 C 
ENDBRANCH  34  35
ENDBRANCH  33  34
ENDBRANCH  30  33
ENDBRANCH  26  29
ENDBRANCH   1  23
TORSDOF 11
ENDMDL
MODEL 4
REMARK VINA RESULT:    -9.253      5.638      8.070
REMARK INTER + INTRA:         -14.609
REMARK INTER:                 -12.534
REMARK INTRA:                  -2.075
REMARK CONF_INDEPENDENT:        3.281
REMARK UNBOUND:                -2.075
REMARK  11 active torsions:
REMARK  status: ('A' for Active; 'I' for Inactive)
REMARK    1  A    between atoms: C_2  and  C_3 
REMARK    2  A    between atoms: C_3  and  C_4 
REMARK    3  A    between atoms: C_4  and  C_5 
REMARK       I    between atoms: C_5  and  N_7 
REMARK    4  A    between atoms: N_7  and  C_8 
REMARK    5  A    between atoms: C_11  and  C_12 
REMARK       I    between atoms: C_12  and  N_14 
REMARK    6  A    between atoms: N_14  and  N_15 
REMARK    7  A    between atoms: N_15  and  C_16 
REMARK    8  A    between atoms: C_16  and  N_18 
REMARK       I    between atoms: N_18  and  C_19 
REMARK    9  A    between atoms: C_19  and  C_21 
REMARK   10  A    between atoms: C_25  and  C_26 
REMARK   11  A    between atoms: C_26  and  O_28 
ROOT
ATOM      1  C   UNL d   1      28.394 -15.036  -0.076  0.00  0.00     0.270 C 
ATOM      2  O   UNL d   1      28.678 -14.180  -0.913  0.00  0.00    -0.266 OA
ATOM      3  N   UNL d   1      29.199 -15.266   1.036  0.00  0.00    -0.264 N 
ATOM      4  H   UNL d   1      28.969 -15.944   1.759  0.00  0.00     0.190 HD
ENDROOT
BRANCH   3   5
ATOM      5  N   UNL d   1      30.415 -14.511   1.304  0.00  0.00    -0.273 N 
ATOM      6  H   UNL d   1      30.639 -13.798   0.611  0.00  0.00     0.189 HD
BRANCH   5   7
ATOM      7  C   UNL d   1      31.159 -14.825   2.458  0.00  0.00     0.193 C 
ATOM      8  S   UNL d   1      32.550 -15.777   2.311  0.00  0.00    -0.039 SA
BRANCH   7   9
ATOM      9  N   UNL d   1      30.658 -14.299   3.675  0.00  0.00    -0.298 N 
ATOM     10  C   UNL d   1      29.303 -14.292   4.079  0.00  0.00     0.257 C 
ATOM     11  O   UNL d   1      28.359 -14.695   3.406  0.00  0.00    -0.267 OA
ATOM     12  H   UNL d   1      31.330 -13.968   4.351  0.00  0.00     0.171 HD
BRANCH  10  13
ATOM     13  C   UNL d   1      28.908 -13.790   5.430  0.00  0.00     0.033 A 
ATOM     14  C   UNL d   1      28.382 -12.481   5.490  0.00  0.00     0.017 A 
ATOM     15  C   UNL d   1      28.155 -11.847   6.713  0.00  0.00     0.002 A 
ATOM     16  C   UNL d   1      28.409 -12.535   7.897  0.00  0.00     0.017 A 
ATOM     17  C   UNL d   1      28.968 -13.826   7.865  0.00  0.00     0.040 A 
ATOM     18  C   UNL d   1      29.228 -14.450   6.623  0.00  0.00     0.034 A 
BRANCH  17  19
ATOM     19  C   UNL d   1      29.295 -14.459   9.178  0.00  0.00     0.292 C 
ATOM     20  O   UNL d   1      28.541 -15.239   9.753  0.00  0.00    -0.259 OA
BRANCH  19  21
ATOM     21  O   UNL d   1      30.508 -14.063   9.631  0.00  0.00    -0.323 OA
ATOM     22  C   UNL d   1      31.587 -14.928   9.252  0.00  0.00     0.213 C 
ENDBRANCH  19  21
ENDBRANCH  17  19
ENDBRANCH  10  13
ENDBRANCH   7   9
ENDBRANCH   5   7
ENDBRANCH   3   5
BRANCH   1  23
ATOM     23  C   UNL d   1      27.113 -15.858  -0.221  0.00  0.00     0.033 A 
ATOM     24  C   UNL d   1      26.956 -17.043   0.531  0.00  0.00     0.019 A 
ATOM     25  C   UNL d   1      25.854 -17.914   0.335  0.00  0.00     0.030 A 
ATOM     26  C   UNL d   1      24.868 -17.599  -0.599  0.00  0.00     0.034 A 
ATOM     27  C   UNL d   1      24.985 -16.395  -1.300  0.00  0.00     0.030 A 
ATOM     28  C   UNL d   1      26.083 -15.532  -1.111  0.00  0.00     0.019 A 
BRANCH  26  29
ATOM     29  N   UNL d   1      23.769 -18.472  -0.826  0.00  0.00    -0.327 N 
ATOM     30  C   UNL d   1      22.456 -18.027  -0.699  0.00  0.00     0.222 C 
ATOM     31  O   UNL d   1      22.160 -16.873  -0.388  0.00  0.00    -0.273 OA
ATOM     32  H   UNL d   1      23.939 -19.336  -1.326  0.00  0.00     0.169 HD
BRANCH  30  33
ATOM     33  C   UNL d   1      21.372 -19.054  -1.025  0.00  0.00     0.103 C 
BRANCH  33  34
ATOM     34  C   UNL d   1      20.534 -19.331   0.234  0.00  0.00     0.009 C 
BRANCH  34  35
ATOM     35  C   UNL d   1      19.149 -19.889  -0.073  0.00  0.00    -0.004 C 
ATOM     36  C   UNL d   1      18.909 -21.182   0.695  0.00  0.00     0.005 C 
ENDBRANCH  34  35
ENDBRANCH  33  34
ENDBRANCH  30  33
ENDBRANCH  26  29
ENDBRANCH   1  23
TORSDOF 11
ENDMDL
MODEL 5
REMARK VINA RESULT:    -9.050      5.028      7.166
REMARK INTER + INTRA:         -14.238
REMARK INTER:                 -12.332
REMARK INTRA:                  -1.906
REMARK CONF_INDEPENDENT:        3.281
REMARK UNBOUND:                -1.906
REMARK  11 active torsions:
REMARK  status: ('A' for Active; 'I' for Inactive)
REMARK    1  A    between atoms: C_2  and  C_3 
REMARK    2  A    between atoms: C_3  and  C_4 
REMARK    3  A    between atoms: C_4  and  C_5 
REMARK       I    between atoms: C_5  and  N_7 
REMARK    4  A    between atoms: N_7  and  C_8 
REMARK    5  A    between atoms: C_11  and  C_12 
REMARK       I    between atoms: C_12  and  N_14 
REMARK    6  A    between atoms: N_14  and  N_15 
REMARK    7  A    between atoms: N_15  and  C_16 
REMARK    8  A    between atoms: C_16  and  N_18 
REMARK       I    between atoms: N_18  and  C_19 
REMARK    9  A    between atoms: C_19  and  C_21 
REMARK   10  A    between atoms: C_25  and  C_26 
REMARK   11  A    between atoms: C_26  and  O_28 
ROOT
ATOM      1  C   UNL d   1      26.579 -15.639  -1.506  0.00  0.00     0.270 C 
ATOM      2  O   UNL d   1      26.975 -15.598  -2.671  0.00  0.00    -0.266 OA
ATOM      3  N   UNL d   1      27.152 -14.851  -0.512  0.00  0.00    -0.264 N 
ATOM      4  H   UNL d   1      26.821 -14.841   0.450  0.00  0.00     0.190 HD
ENDROOT
BRANCH   3   5
ATOM      5  N   UNL d   1      28.238 -13.915  -0.770  0.00  0.00    -0.273 N 
ATOM      6  H   UNL d   1      28.896 -14.210  -1.489  0.00  0.00     0.189 HD
BRANCH   5   7
ATOM      7  C   UNL d   1      28.287 -12.722  -0.021  0.00  0.00     0.193 C 
ATOM      8  S   UNL d   1      28.005 -11.247  -0.800  0.00  0.00    -0.039 SA
BRANCH   7   9
ATOM      9  N   UNL d   1      28.578 -12.872   1.357  0.00  0.00    -0.298 N 
ATOM     10  C   UNL d   1      27.665 -13.276   2.358  0.00  0.00     0.257 C 
ATOM     11  O   UNL d   1      26.472 -13.505   2.180  0.00  0.00    -0.267 OA
ATOM     12  H   UNL d   1      29.538 -12.754   1.646  0.00  0.00     0.171 HD
BRANCH  10  13
ATOM     13  C   UNL d   1      28.114 -13.485   3.767  0.00  0.00     0.033 A 
ATOM     14  C   UNL d   1      28.142 -14.818   4.232  0.00  0.00     0.017 A 
ATOM     15  C   UNL d   1      28.365 -15.110   5.579  0.00  0.00     0.002 A 
ATOM     16  C   UNL d   1      28.610 -14.071   6.473  0.00  0.00     0.017 A 
ATOM     17  C   UNL d   1      28.550 -12.733   6.043  0.00  0.00     0.040 A 
ATOM     18  C   UNL d   1      28.289 -12.441   4.684  0.00  0.00     0.034 A 
BRANCH  17  19
ATOM     19  C   UNL d   1      28.734 -11.675   7.082  0.00  0.00     0.292 C 
ATOM     20  O   UNL d   1      28.524 -10.484   6.872  0.00  0.00    -0.259 OA
BRANCH  19  21
ATOM     21  O   UNL d   1      29.152 -12.202   8.257  0.00  0.00    -0.323 OA
ATOM     22  C   UNL d   1      30.515 -12.650   8.248  0.00  0.00     0.213 C 
ENDBRANCH  19  21
ENDBRANCH  17  19
ENDBRANCH  10  13
ENDBRANCH   7   9
ENDBRANCH   5   7
ENDBRANCH   3   5
BRANCH   1  23
ATOM     23  C   UNL d   1      25.409 -16.545  -1.123  0.00  0.00     0.033 A 
ATOM     24  C   UNL d   1      24.087 -16.130  -1.395  0.00  0.00     0.019 A 
ATOM     25  C   UNL d   1      22.963 -16.864  -0.939  0.00  0.00     0.030 A 
ATOM     26  C   UNL d   1      23.140 -18.048  -0.226  0.00  0.00     0.034 A 
ATOM     27  C   UNL d   1      24.446 -18.498  -0.009  0.00  0.00     0.030 A 
ATOM     28  C   UNL d   1      25.565 -17.766  -0.456  0.00  0.00     0.019 A 
BRANCH  26  29
ATOM     29  N   UNL d   1      22.024 -18.784   0.260  0.00  0.00    -0.327 N 
ATOM     30  C   UNL d   1      21.115 -19.376  -0.613  0.00  0.00     0.222 C 
ATOM     31  O   UNL d   1      21.209 -19.304  -1.838  0.00  0.00    -0.273 OA
ATOM     32  H   UNL d   1      22.037 -19.092   1.225  0.00  0.00     0.169 HD
BRANCH  30  33
ATOM     33  C   UNL d   1      19.995 -20.183   0.042  0.00  0.00     0.103 C 
BRANCH  33  34
ATOM     34  C   UNL d   1      19.790 -19.696   1.486  0.00  0.00     0.009 C 
BRANCH  34  35
ATOM     35  C   UNL d   1      18.704 -20.462   2.233  0.00  0.00    -0.004 C 
ATOM     36  C   UNL d   1      18.090 -21.531   1.340  0.00  0.00     0.005 C 
ENDBRANCH  34  35
ENDBRANCH  33  34
ENDBRANCH  30  33
ENDBRANCH  26  29
ENDBRANCH   1  23
TORSDOF 11
ENDMDL
MODEL 6
REMARK VINA RESULT:    -9.034      1.735      2.424
REMARK INTER + INTRA:         -14.746
REMARK INTER:                 -12.315
REMARK INTRA:                  -2.431
REMARK CONF_INDEPENDENT:        3.281
REMARK UNBOUND:                -2.431
REMARK  11 active torsions:
REMARK  status: ('A' for Active; 'I' for Inactive)
REMARK    1  A    between atoms: C_2  and  C_3 
REMARK    2  A    between atoms: C_3  and  C_4 
REMARK    3  A    between atoms: C_4  and  C_5 
REMARK       I    between atoms: C_5  and  N_7 
REMARK    4  A    between atoms: N_7  and  C_8 
REMARK    5  A    between atoms: C_11  and  C_12 
REMARK       I    between atoms: C_12  and  N_14 
REMARK    6  A    between atoms: N_14  and  N_15 
REMARK    7  A    between atoms: N_15  and  C_16 
REMARK    8  A    between atoms: C_16  and  N_18 
REMARK       I    between atoms: N_18  and  C_19 
REMARK    9  A    between atoms: C_19  and  C_21 
REMARK   10  A    between atoms: C_25  and  C_26 
REMARK   11  A    between atoms: C_26  and  O_28 
ROOT
ATOM      1  C   UNL d   1      27.965 -16.976  -0.481  0.00  0.00     0.270 C 
ATOM      2  O   UNL d   1      28.501 -17.217  -1.562  0.00  0.00    -0.266 OA
ATOM      3  N   UNL d   1      28.702 -16.539   0.617  0.00  0.00    -0.264 N 
ATOM      4  H   UNL d   1      28.280 -16.301   1.512  0.00  0.00     0.190 HD
ENDROOT
BRANCH   3   5
ATOM      5  N   UNL d   1      30.142 -16.320   0.569  0.00  0.00    -0.273 N 
ATOM      6  H   UNL d   1      30.689 -16.936   1.168  0.00  0.00     0.189 HD
BRANCH   5   7
ATOM      7  C   UNL d   1      30.636 -15.303  -0.271  0.00  0.00     0.193 C 
ATOM      8  S   UNL d   1      32.159 -14.636   0.048  0.00  0.00    -0.039 SA
BRANCH   7   9
ATOM      9  N   UNL d   1      29.788 -14.918  -1.338  0.00  0.00    -0.298 N 
ATOM     10  C   UNL d   1      29.257 -13.624  -1.549  0.00  0.00     0.257 C 
ATOM     11  O   UNL d   1      29.416 -12.661  -0.804  0.00  0.00    -0.267 OA
ATOM     12  H   UNL d   1      29.603 -15.602  -2.056  0.00  0.00     0.171 HD
BRANCH  10  13
ATOM     13  C   UNL d   1      28.445 -13.317  -2.765  0.00  0.00     0.033 A 
ATOM     14  C   UNL d   1      28.460 -11.979  -3.215  0.00  0.00     0.017 A 
ATOM     15  C   UNL d   1      27.597 -11.545  -4.223  0.00  0.00     0.002 A 
ATOM     16  C   UNL d   1      26.736 -12.458  -4.828  0.00  0.00     0.017 A 
ATOM     17  C   UNL d   1      26.675 -13.788  -4.372  0.00  0.00     0.040 A 
ATOM     18  C   UNL d   1      27.527 -14.214  -3.327  0.00  0.00     0.034 A 
BRANCH  17  19
ATOM     19  C   UNL d   1      25.663 -14.681  -5.011  0.00  0.00     0.292 C 
ATOM     20  O   UNL d   1      25.960 -15.598  -5.771  0.00  0.00    -0.259 OA
BRANCH  19  21
ATOM     21  O   UNL d   1      24.403 -14.345  -4.643  0.00  0.00    -0.323 OA
ATOM     22  C   UNL d   1      24.253 -14.077  -3.241  0.00  0.00     0.213 C 
ENDBRANCH  19  21
ENDBRANCH  17  19
ENDBRANCH  10  13
ENDBRANCH   7   9
ENDBRANCH   5   7
ENDBRANCH   3   5
BRANCH   1  23
ATOM     23  C   UNL d   1      26.452 -17.119  -0.322  0.00  0.00     0.033 A 
ATOM     24  C   UNL d   1      25.925 -18.240   0.356  0.00  0.00     0.019 A 
ATOM     25  C   UNL d   1      24.530 -18.493   0.412  0.00  0.00     0.030 A 
ATOM     26  C   UNL d   1      23.631 -17.610  -0.185  0.00  0.00     0.034 A 
ATOM     27  C   UNL d   1      24.144 -16.465  -0.802  0.00  0.00     0.030 A 
ATOM     28  C   UNL d   1      25.530 -16.215  -0.864  0.00  0.00     0.019 A 
BRANCH  26  29
ATOM     29  N   UNL d   1      22.232 -17.861  -0.159  0.00  0.00    -0.327 N 
ATOM     30  C   UNL d   1      21.638 -18.729  -1.071  0.00  0.00     0.222 C 
ATOM     31  O   UNL d   1      22.267 -19.325  -1.946  0.00  0.00    -0.273 OA
ATOM     32  H   UNL d   1      21.717 -17.613   0.676  0.00  0.00     0.169 HD
BRANCH  30  33
ATOM     33  C   UNL d   1      20.137 -18.950  -0.897  0.00  0.00     0.103 C 
BRANCH  33  34
ATOM     34  C   UNL d   1      19.876 -19.659   0.443  0.00  0.00     0.009 C 
BRANCH  34  35
ATOM     35  C   UNL d   1      18.869 -20.799   0.336  0.00  0.00    -0.004 C 
ATOM     36  C   UNL d   1      18.349 -21.186   1.714  0.00  0.00     0.005 C 
ENDBRANCH  34  35
ENDBRANCH  33  34
ENDBRANCH  30  33
ENDBRANCH  26  29
ENDBRANCH   1  23
TORSDOF 11
ENDMDL
MODEL 7
REMARK VINA RESULT:    -8.862      2.365      3.204
REMARK INTER + INTRA:         -14.426
REMARK INTER:                 -12.144
REMARK INTRA:                  -2.282
REMARK CONF_INDEPENDENT:        3.281
REMARK UNBOUND:                -2.282
REMARK  11 active torsions:
REMARK  status: ('A' for Active; 'I' for Inactive)
REMARK    1  A    between atoms: C_2  and  C_3 
REMARK    2  A    between atoms: C_3  and  C_4 
REMARK    3  A    between atoms: C_4  and  C_5 
REMARK       I    between atoms: C_5  and  N_7 
REMARK    4  A    between atoms: N_7  and  C_8 
REMARK    5  A    between atoms: C_11  and  C_12 
REMARK       I    between atoms: C_12  and  N_14 
REMARK    6  A    between atoms: N_14  and  N_15 
REMARK    7  A    between atoms: N_15  and  C_16 
REMARK    8  A    between atoms: C_16  and  N_18 
REMARK       I    between atoms: N_18  and  C_19 
REMARK    9  A    between atoms: C_19  and  C_21 
REMARK   10  A    between atoms: C_25  and  C_26 
REMARK   11  A    between atoms: C_26  and  O_28 
ROOT
ATOM      1  C   UNL d   1      27.787 -16.966  -1.153  0.00  0.00     0.270 C 
ATOM      2  O   UNL d   1      28.650 -17.138  -0.293  0.00  0.00    -0.266 OA
ATOM      3  N   UNL d   1      28.119 -16.671  -2.473  0.00  0.00    -0.264 N 
ATOM      4  H   UNL d   1      27.427 -16.557  -3.209  0.00  0.00     0.190 HD
ENDROOT
BRANCH   3   5
ATOM      5  N   UNL d   1      29.496 -16.562  -2.938  0.00  0.00    -0.273 N 
ATOM      6  H   UNL d   1      30.199 -16.572  -2.201  0.00  0.00     0.189 HD
BRANCH   5   7
ATOM      7  C   UNL d   1      29.729 -16.449  -4.322  0.00  0.00     0.193 C 
ATOM      8  S   UNL d   1      30.461 -17.734  -5.144  0.00  0.00    -0.039 SA
BRANCH   7   9
ATOM      9  N   UNL d   1      29.317 -15.232  -4.919  0.00  0.00    -0.298 N 
ATOM     10  C   UNL d   1      27.985 -14.865  -5.220  0.00  0.00     0.257 C 
ATOM     11  O   UNL d   1      26.997 -15.577  -5.053  0.00  0.00    -0.267 OA
ATOM     12  H   UNL d   1      30.022 -14.528  -5.077  0.00  0.00     0.171 HD
BRANCH  10  13
ATOM     13  C   UNL d   1      27.666 -13.513  -5.768  0.00  0.00     0.033 A 
ATOM     14  C   UNL d   1      26.647 -12.788  -5.112  0.00  0.00     0.017 A 
ATOM     15  C   UNL d   1      26.143 -11.601  -5.648  0.00  0.00     0.002 A 
ATOM     16  C   UNL d   1      26.686 -11.099  -6.828  0.00  0.00     0.017 A 
ATOM     17  C   UNL d   1      27.675 -11.821  -7.521  0.00  0.00     0.040 A 
ATOM     18  C   UNL d   1      28.158 -13.040  -6.991  0.00  0.00     0.034 A 
BRANCH  17  19
ATOM     19  C   UNL d   1      28.140 -11.259  -8.824  0.00  0.00     0.292 C 
ATOM     20  O   UNL d   1      28.829 -11.891  -9.621  0.00  0.00    -0.259 OA
BRANCH  19  21
ATOM     21  O   UNL d   1      27.706  -9.989  -9.000  0.00  0.00    -0.323 OA
ATOM     22  C   UNL d   1      26.697  -9.848 -10.010  0.00  0.00     0.213 C 
ENDBRANCH  19  21
ENDBRANCH  17  19
ENDBRANCH  10  13
ENDBRANCH   7   9
ENDBRANCH   5   7
ENDBRANCH   3   5
BRANCH   1  23
ATOM     23  C   UNL d   1      26.307 -17.106  -0.798  0.00  0.00     0.033 A 
ATOM     24  C   UNL d   1      25.881 -18.193  -0.003  0.00  0.00     0.019 A 
ATOM     25  C   UNL d   1      24.508 -18.449   0.242  0.00  0.00     0.030 A 
ATOM     26  C   UNL d   1      23.531 -17.601  -0.280  0.00  0.00     0.034 A 
ATOM     27  C   UNL d   1      23.951 -16.487  -1.013  0.00  0.00     0.030 A 
ATOM     28  C   UNL d   1      25.315 -16.235  -1.263  0.00  0.00     0.019 A 
BRANCH  26  29
ATOM     29  N   UNL d   1      22.149 -17.856  -0.065  0.00  0.00    -0.327 N 
ATOM     30  C   UNL d   1      21.440 -18.727  -0.887  0.00  0.00     0.222 C 
ATOM     31  O   UNL d   1      21.947 -19.324  -1.837  0.00  0.00    -0.273 OA
ATOM     32  H   UNL d   1      21.751 -17.606   0.832  0.00  0.00     0.169 HD
BRANCH  30  33
ATOM     33  C   UNL d   1      19.977 -18.952  -0.510  0.00  0.00     0.103 C 
BRANCH  33  34
ATOM     34  C   UNL d   1      19.766 -20.427  -0.129  0.00  0.00     0.009 C 
BRANCH  34  35
ATOM     35  C   UNL d   1      19.061 -20.610   1.210  0.00  0.00    -0.004 C 
ATOM     36  C   UNL d   1      19.909 -20.052   2.345  0.00  0.00     0.005 C 
ENDBRANCH  34  35
ENDBRANCH  33  34
ENDBRANCH  30  33
ENDBRANCH  26  29
ENDBRANCH   1  23
TORSDOF 11
ENDMDL
MODEL 8
REMARK VINA RESULT:    -8.785      1.415      1.987
REMARK INTER + INTRA:         -14.220
REMARK INTER:                 -12.066
REMARK INTRA:                  -2.154
REMARK CONF_INDEPENDENT:        3.281
REMARK UNBOUND:                -2.154
REMARK  11 active torsions:
REMARK  status: ('A' for Active; 'I' for Inactive)
REMARK    1  A    between atoms: C_2  and  C_3 
REMARK    2  A    between atoms: C_3  and  C_4 
REMARK    3  A    between atoms: C_4  and  C_5 
REMARK       I    between atoms: C_5  and  N_7 
REMARK    4  A    between atoms: N_7  and  C_8 
REMARK    5  A    between atoms: C_11  and  C_12 
REMARK       I    between atoms: C_12  and  N_14 
REMARK    6  A    between atoms: N_14  and  N_15 
REMARK    7  A    between atoms: N_15  and  C_16 
REMARK    8  A    between atoms: C_16  and  N_18 
REMARK       I    between atoms: N_18  and  C_19 
REMARK    9  A    between atoms: C_19  and  C_21 
REMARK   10  A    between atoms: C_25  and  C_26 
REMARK   11  A    between atoms: C_26  and  O_28 
ROOT
ATOM      1  C   UNL d   1      27.721 -16.725  -0.536  0.00  0.00     0.270 C 
ATOM      2  O   UNL d   1      28.070 -15.545  -0.555  0.00  0.00    -0.266 OA
ATOM      3  N   UNL d   1      28.651 -17.762  -0.511  0.00  0.00    -0.264 N 
ATOM      4  H   UNL d   1      28.389 -18.743  -0.461  0.00  0.00     0.190 HD
ENDROOT
BRANCH   3   5
ATOM      5  N   UNL d   1      30.090 -17.535  -0.490  0.00  0.00    -0.273 N 
ATOM      6  H   UNL d   1      30.564 -17.869   0.347  0.00  0.00     0.189 HD
BRANCH   5   7
ATOM      7  C   UNL d   1      30.682 -16.886  -1.591  0.00  0.00     0.193 C 
ATOM      8  S   UNL d   1      32.278 -17.262  -2.011  0.00  0.00    -0.039 SA
BRANCH   7   9
ATOM      9  N   UNL d   1      29.863 -15.949  -2.268  0.00  0.00    -0.298 N 
ATOM     10  C   UNL d   1      29.473 -16.017  -3.625  0.00  0.00     0.257 C 
ATOM     11  O   UNL d   1      29.836 -16.875  -4.426  0.00  0.00    -0.267 OA
ATOM     12  H   UNL d   1      29.457 -15.205  -1.721  0.00  0.00     0.171 HD
BRANCH  10  13
ATOM     13  C   UNL d   1      28.530 -15.013  -4.204  0.00  0.00     0.033 A 
ATOM     14  C   UNL d   1      27.206 -15.034  -3.716  0.00  0.00     0.017 A 
ATOM     15  C   UNL d   1      26.202 -14.271  -4.315  0.00  0.00     0.002 A 
ATOM     16  C   UNL d   1      26.521 -13.439  -5.386  0.00  0.00     0.017 A 
ATOM     17  C   UNL d   1      27.825 -13.429  -5.915  0.00  0.00     0.040 A 
ATOM     18  C   UNL d   1      28.830 -14.230  -5.326  0.00  0.00     0.034 A 
BRANCH  17  19
ATOM     19  C   UNL d   1      28.064 -12.578  -7.119  0.00  0.00     0.292 C 
ATOM     20  O   UNL d   1      27.669 -11.419  -7.212  0.00  0.00    -0.259 OA
BRANCH  19  21
ATOM     21  O   UNL d   1      28.760 -13.248  -8.069  0.00  0.00    -0.323 OA
ATOM     22  C   UNL d   1      28.830 -12.571  -9.332  0.00  0.00     0.213 C 
ENDBRANCH  19  21
ENDBRANCH  17  19
ENDBRANCH  10  13
ENDBRANCH   7   9
ENDBRANCH   5   7
ENDBRANCH   3   5
BRANCH   1  23
ATOM     23  C   UNL d   1      26.237 -17.088  -0.503  0.00  0.00     0.033 A 
ATOM     24  C   UNL d   1      25.273 -16.113  -0.840  0.00  0.00     0.019 A 
ATOM     25  C   UNL d   1      23.883 -16.352  -0.694  0.00  0.00     0.030 A 
ATOM     26  C   UNL d   1      23.427 -17.587  -0.236  0.00  0.00     0.034 A 
ATOM     27  C   UNL d   1      24.374 -18.579   0.038  0.00  0.00     0.030 A 
ATOM     28  C   UNL d   1      25.757 -18.340  -0.101  0.00  0.00     0.019 A 
BRANCH  26  29
ATOM     29  N   UNL d   1      22.038 -17.837  -0.060  0.00  0.00    -0.327 N 
ATOM     30  C   UNL d   1      21.352 -18.716  -0.894  0.00  0.00     0.222 C 
ATOM     31  O   UNL d   1      21.887 -19.325  -1.821  0.00  0.00    -0.273 OA
ATOM     32  H   UNL d   1      21.612 -17.576   0.821  0.00  0.00     0.169 HD
BRANCH  30  33
ATOM     33  C   UNL d   1      19.877 -18.933  -0.560  0.00  0.00     0.103 C 
BRANCH  33  34
ATOM     34  C   UNL d   1      19.656 -20.398  -0.145  0.00  0.00     0.009 C 
BRANCH  34  35
ATOM     35  C   UNL d   1      18.876 -20.546   1.156  0.00  0.00    -0.004 C 
ATOM     36  C   UNL d   1      17.767 -21.578   1.003  0.00  0.00     0.005 C 
ENDBRANCH  34  35
ENDBRANCH  33  34
ENDBRANCH  30  33
ENDBRANCH  26  29
ENDBRANCH   1  23
TORSDOF 11
ENDMDL
MODEL 9
REMARK VINA RESULT:    -8.740      2.442      3.284
REMARK INTER + INTRA:         -14.254
REMARK INTER:                 -12.021
REMARK INTRA:                  -2.233
REMARK CONF_INDEPENDENT:        3.281
REMARK UNBOUND:                -2.233
REMARK  11 active torsions:
REMARK  status: ('A' for Active; 'I' for Inactive)
REMARK    1  A    between atoms: C_2  and  C_3 
REMARK    2  A    between atoms: C_3  and  C_4 
REMARK    3  A    between atoms: C_4  and  C_5 
REMARK       I    between atoms: C_5  and  N_7 
REMARK    4  A    between atoms: N_7  and  C_8 
REMARK    5  A    between atoms: C_11  and  C_12 
REMARK       I    between atoms: C_12  and  N_14 
REMARK    6  A    between atoms: N_14  and  N_15 
REMARK    7  A    between atoms: N_15  and  C_16 
REMARK    8  A    between atoms: C_16  and  N_18 
REMARK       I    between atoms: N_18  and  C_19 
REMARK    9  A    between atoms: C_19  and  C_21 
REMARK   10  A    between atoms: C_25  and  C_26 
REMARK   11  A    between atoms: C_26  and  O_28 
ROOT
ATOM      1  C   UNL d   1      27.896 -16.099   0.268  0.00  0.00     0.270 C 
ATOM      2  O   UNL d   1      28.836 -15.934  -0.508  0.00  0.00    -0.266 OA
ATOM      3  N   UNL d   1      27.909 -15.567   1.555  0.00  0.00    -0.264 N 
ATOM      4  H   UNL d   1      27.131 -15.661   2.204  0.00  0.00     0.190 HD
ENDROOT
BRANCH   3   5
ATOM      5  N   UNL d   1      29.013 -14.769   2.071  0.00  0.00    -0.273 N 
ATOM      6  H   UNL d   1      29.442 -15.129   2.922  0.00  0.00     0.189 HD
BRANCH   5   7
ATOM      7  C   UNL d   1      29.378 -13.600   1.374  0.00  0.00     0.193 C 
ATOM      8  S   UNL d   1      30.334 -12.440   2.151  0.00  0.00    -0.039 SA
BRANCH   7   9
ATOM      9  N   UNL d   1      28.895 -13.498   0.046  0.00  0.00    -0.298 N 
ATOM     10  C   UNL d   1      27.694 -12.868  -0.353  0.00  0.00     0.257 C 
ATOM     11  O   UNL d   1      26.870 -12.363   0.406  0.00  0.00    -0.267 OA
ATOM     12  H   UNL d   1      29.492 -13.837  -0.693  0.00  0.00     0.171 HD
BRANCH  10  13
ATOM     13  C   UNL d   1      27.335 -12.745  -1.798  0.00  0.00     0.033 A 
ATOM     14  C   UNL d   1      27.016 -11.451  -2.264  0.00  0.00     0.017 A 
ATOM     15  C   UNL d   1      26.490 -11.251  -3.541  0.00  0.00     0.002 A 
ATOM     16  C   UNL d   1      26.318 -12.342  -4.389  0.00  0.00     0.017 A 
ATOM     17  C   UNL d   1      26.592 -13.646  -3.936  0.00  0.00     0.040 A 
ATOM     18  C   UNL d   1      27.092 -13.847  -2.629  0.00  0.00     0.034 A 
BRANCH  17  19
ATOM     19  C   UNL d   1      26.296 -14.769  -4.875  0.00  0.00     0.292 C 
ATOM     20  O   UNL d   1      25.157 -15.147  -5.132  0.00  0.00    -0.259 OA
BRANCH  19  21
ATOM     21  O   UNL d   1      27.432 -15.298  -5.390  0.00  0.00    -0.323 OA
ATOM     22  C   UNL d   1      28.028 -14.508  -6.429  0.00  0.00     0.213 C 
ENDBRANCH  19  21
ENDBRANCH  17  19
ENDBRANCH  10  13
ENDBRANCH   7   9
ENDBRANCH   5   7
ENDBRANCH   3   5
BRANCH   1  23
ATOM     23  C   UNL d   1      26.657 -16.876  -0.177  0.00  0.00     0.033 A 
ATOM     24  C   UNL d   1      25.944 -16.454  -1.321  0.00  0.00     0.019 A 
ATOM     25  C   UNL d   1      24.714 -17.051  -1.699  0.00  0.00     0.030 A 
ATOM     26  C   UNL d   1      24.187 -18.106  -0.955  0.00  0.00     0.034 A 
ATOM     27  C   UNL d   1      24.922 -18.570   0.141  0.00  0.00     0.030 A 
ATOM     28  C   UNL d   1      26.141 -17.973   0.521  0.00  0.00     0.019 A 
BRANCH  26  29
ATOM     29  N   UNL d   1      22.944 -18.700  -1.305  0.00  0.00    -0.327 N 
ATOM     30  C   UNL d   1      21.919 -18.829  -0.373  0.00  0.00     0.222 C 
ATOM     31  O   UNL d   1      22.014 -18.448   0.794  0.00  0.00    -0.273 OA
ATOM     32  H   UNL d   1      22.717 -18.791  -2.288  0.00  0.00     0.169 HD
BRANCH  30  33
ATOM     33  C   UNL d   1      20.618 -19.435  -0.897  0.00  0.00     0.103 C 
BRANCH  33  34
ATOM     34  C   UNL d   1      19.635 -19.626   0.271  0.00  0.00     0.009 C 
BRANCH  34  35
ATOM     35  C   UNL d   1      18.439 -20.502  -0.084  0.00  0.00    -0.004 C 
ATOM     36  C   UNL d   1      18.015 -21.343   1.113  0.00  0.00     0.005 C 
ENDBRANCH  34  35
ENDBRANCH  33  34
ENDBRANCH  30  33
ENDBRANCH  26  29
ENDBRANCH   1  23
TORSDOF 11
ENDMDL
