MODEL 1
REMARK VINA RESULT:    -7.221      0.000      0.000
REMARK INTER + INTRA:          -9.650
REMARK INTER:                  -8.414
REMARK INTRA:                  -1.236
REMARK CONF_INDEPENDENT:        1.193
REMARK UNBOUND:                -1.236
REMARK  4 active torsions:
REMARK  status: ('A' for Active; 'I' for Inactive)
REMARK    1  A    between atoms: O_2  and  C_3 
REMARK    2  A    between atoms: C_9  and  C_10 
REMARK       I    between atoms: C_10  and  N_11 
REMARK    3  A    between atoms: C_13  and  N_14 
REMARK    4  A    between atoms: N_15  and  C_16 
ROOT
ATOM      1  C   UNL d   1      30.296 -16.017  -6.037  0.00  0.00     0.102 C 
ATOM      2  C   UNL d   1      31.139 -15.347  -6.926  0.00  0.00     0.040 C 
ATOM      3  C   UNL d   1      30.759 -14.125  -7.484  0.00  0.00     0.004 C 
ATOM      4  C   UNL d   1      29.479 -13.636  -7.275  0.00  0.00     0.014 C 
ATOM      5  C   UNL d   1      28.682 -14.230  -6.305  0.00  0.00     0.002 A 
ATOM      6  C   UNL d   1      27.460 -13.573  -5.905  0.00  0.00     0.035 A 
ATOM      7  C   UNL d   1      26.758 -14.045  -4.872  0.00  0.00     0.085 A 
ATOM      8  C   UNL d   1      27.222 -15.272  -4.187  0.00  0.00     0.178 A 
ATOM      9  O   UNL d   1      28.342 -15.950  -4.615  0.00  0.00    -0.288 OA
ATOM     10  C   UNL d   1      29.099 -15.401  -5.673  0.00  0.00     0.121 A 
ENDROOT
BRANCH   8  11
ATOM     11  N   UNL d   1      26.621 -15.797  -3.176  0.00  0.00    -0.279 N 
ATOM     12  N   UNL d   1      27.160 -16.489  -2.246  0.00  0.00    -0.299 N 
ATOM     13  H   UNL d   1      28.180 -16.594  -2.162  0.00  0.00     0.186 HD
ATOM     14  H   UNL d   1      25.597 -15.596  -3.129  0.00  0.00     0.189 HD
BRANCH  12  15
ATOM     15  C   UNL d   1      26.421 -17.088  -1.212  0.00  0.00     0.072 A 
ATOM     16  C   UNL d   1      26.920 -17.474  -0.028  0.00  0.00     0.169 A 
ATOM     17  N   UNL d   1      26.205 -18.098   0.953  0.00  0.00    -0.157 NA
ATOM     18  N   UNL d   1      25.010 -18.446   0.837  0.00  0.00    -0.110 NA
ATOM     19  C   UNL d   1      24.299 -18.211  -0.318  0.00  0.00     0.286 A 
ATOM     20  O   UNL d   1      23.133 -18.581  -0.465  0.00  0.00    -0.268 OA
ATOM     21  C   UNL d   1      24.966 -17.434  -1.437  0.00  0.00     0.230 A 
ATOM     22 CL   UNL d   1      23.994 -15.951  -1.634  0.00  0.00    -0.108 Cl
ENDBRANCH  12  15
ENDBRANCH   8  11
BRANCH   7  23
ATOM     23  C   UNL d   1      25.540 -13.341  -4.406  0.00  0.00     0.253 C 
ATOM     24  N   UNL d   1      25.530 -12.004  -4.251  0.00  0.00    -0.366 N 
ATOM     25  H   UNL d   1      26.307 -11.378  -4.406  0.00  0.00     0.159 HD
ATOM     26  H   UNL d   1      24.667 -11.568  -3.943  0.00  0.00     0.159 HD
ATOM     27  O   UNL d   1      24.544 -14.022  -4.161  0.00  0.00    -0.268 OA
ENDBRANCH   7  23
BRANCH   1  28
ATOM     28  O   UNL d   1      30.533 -17.265  -5.534  0.00  0.00    -0.353 OA
ATOM     29  C   UNL d   1      30.781 -18.276  -6.507  0.00  0.00     0.210 C 
ENDBRANCH   1  28
TORSDOF 4
ENDMDL
MODEL 2
REMARK VINA RESULT:    -6.942      2.875      7.086
REMARK INTER + INTRA:          -8.986
REMARK INTER:                  -8.136
REMARK INTRA:                  -0.851
REMARK CONF_INDEPENDENT:        1.193
REMARK UNBOUND:                -0.851
REMARK  4 active torsions:
REMARK  status: ('A' for Active; 'I' for Inactive)
REMARK    1  A    between atoms: O_2  and  C_3 
REMARK    2  A    between atoms: C_9  and  C_10 
REMARK       I    between atoms: C_10  and  N_11 
REMARK    3  A    between atoms: C_13  and  N_14 
REMARK    4  A    between atoms: N_15  and  C_16 
ROOT
ATOM      1  C   UNL d   1      24.941 -18.212  -0.415  0.00  0.00     0.102 C 
ATOM      2  C   UNL d   1      23.649 -18.466   0.050  0.00  0.00     0.040 C 
ATOM      3  C   UNL d   1      22.601 -17.592  -0.247  0.00  0.00     0.004 C 
ATOM      4  C   UNL d   1      22.861 -16.389  -0.883  0.00  0.00     0.014 C 
ATOM      5  C   UNL d   1      24.112 -16.183  -1.451  0.00  0.00     0.002 A 
ATOM      6  C   UNL d   1      24.307 -15.054  -2.329  0.00  0.00     0.035 A 
ATOM      7  C   UNL d   1      25.452 -14.923  -3.002  0.00  0.00     0.085 A 
ATOM      8  C   UNL d   1      26.528 -15.918  -2.792  0.00  0.00     0.178 A 
ATOM      9  O   UNL d   1      26.380 -16.952  -1.896  0.00  0.00    -0.288 OA
ATOM     10  C   UNL d   1      25.140 -17.102  -1.237  0.00  0.00     0.121 A 
ENDROOT
BRANCH   8  11
ATOM     11  N   UNL d   1      27.661 -15.884  -3.404  0.00  0.00    -0.279 N 
ATOM     12  N   UNL d   1      27.855 -15.568  -4.627  0.00  0.00    -0.299 N 
ATOM     13  H   UNL d   1      27.105 -15.191  -5.222  0.00  0.00     0.186 HD
ATOM     14  H   UNL d   1      28.483 -16.118  -2.805  0.00  0.00     0.189 HD
BRANCH  12  15
ATOM     15  C   UNL d   1      29.118 -15.625  -5.240  0.00  0.00     0.072 A 
ATOM     16  C   UNL d   1      29.884 -16.722  -5.331  0.00  0.00     0.169 A 
ATOM     17  N   UNL d   1      31.131 -16.758  -5.887  0.00  0.00    -0.157 NA
ATOM     18  N   UNL d   1      31.736 -15.753  -6.318  0.00  0.00    -0.110 NA
ATOM     19  C   UNL d   1      31.172 -14.498  -6.275  0.00  0.00     0.286 A 
ATOM     20  O   UNL d   1      31.768 -13.490  -6.661  0.00  0.00    -0.268 OA
ATOM     21  C   UNL d   1      29.749 -14.356  -5.770  0.00  0.00     0.230 A 
ATOM     22 CL   UNL d   1      28.813 -13.720  -7.148  0.00  0.00    -0.108 Cl
ENDBRANCH  12  15
ENDBRANCH   8  11
BRANCH   7  23
ATOM     23  C   UNL d   1      25.638 -13.807  -3.958  0.00  0.00     0.253 C 
ATOM     24  N   UNL d   1      24.602 -13.325  -4.670  0.00  0.00    -0.366 N 
ATOM     25  H   UNL d   1      23.651 -13.662  -4.645  0.00  0.00     0.159 HD
ATOM     26  H   UNL d   1      24.780 -12.550  -5.302  0.00  0.00     0.159 HD
ATOM     27  O   UNL d   1      26.772 -13.343  -4.083  0.00  0.00    -0.268 OA
ENDBRANCH   7  23
BRANCH   1  28
ATOM     28  O   UNL d   1      26.044 -18.945  -0.081  0.00  0.00    -0.353 OA
ATOM     29  C   UNL d   1      27.030 -18.249   0.676  0.00  0.00     0.210 C 
ENDBRANCH   1  28
TORSDOF 4
ENDMDL
MODEL 3
REMARK VINA RESULT:    -6.566      2.951      6.870
REMARK INTER + INTRA:          -9.235
REMARK INTER:                  -7.759
REMARK INTRA:                  -1.476
REMARK CONF_INDEPENDENT:        1.193
REMARK UNBOUND:                -1.476
REMARK  4 active torsions:
REMARK  status: ('A' for Active; 'I' for Inactive)
REMARK    1  A    between atoms: O_2  and  C_3 
REMARK    2  A    between atoms: C_9  and  C_10 
REMARK       I    between atoms: C_10  and  N_11 
REMARK    3  A    between atoms: C_13  and  N_14 
REMARK    4  A    between atoms: N_15  and  C_16 
ROOT
ATOM      1  C   UNL d   1      25.141 -18.202  -0.431  0.00  0.00     0.102 C 
ATOM      2  C   UNL d   1      23.861 -18.517   0.030  0.00  0.00     0.040 C 
ATOM      3  C   UNL d   1      22.775 -17.690  -0.265  0.00  0.00     0.004 C 
ATOM      4  C   UNL d   1      22.981 -16.473  -0.893  0.00  0.00     0.014 C 
ATOM      5  C   UNL d   1      24.223 -16.208  -1.457  0.00  0.00     0.002 A 
ATOM      6  C   UNL d   1      24.367 -15.066  -2.328  0.00  0.00     0.035 A 
ATOM      7  C   UNL d   1      25.507 -14.879  -2.998  0.00  0.00     0.085 A 
ATOM      8  C   UNL d   1      26.627 -15.825  -2.791  0.00  0.00     0.178 A 
ATOM      9  O   UNL d   1      26.524 -16.870  -1.900  0.00  0.00    -0.288 OA
ATOM     10  C   UNL d   1      25.291 -17.080  -1.245  0.00  0.00     0.121 A 
ENDROOT
BRANCH   8  11
ATOM     11  N   UNL d   1      27.759 -15.735  -3.399  0.00  0.00    -0.279 N 
ATOM     12  N   UNL d   1      28.786 -16.471  -3.204  0.00  0.00    -0.299 N 
ATOM     13  H   UNL d   1      28.758 -17.304  -2.601  0.00  0.00     0.186 HD
ATOM     14  H   UNL d   1      27.798 -14.995  -4.134  0.00  0.00     0.189 HD
BRANCH  12  15
ATOM     15  C   UNL d   1      30.011 -16.262  -3.860  0.00  0.00     0.072 A 
ATOM     16  C   UNL d   1      30.966 -15.410  -3.461  0.00  0.00     0.169 A 
ATOM     17  N   UNL d   1      32.134 -15.178  -4.129  0.00  0.00    -0.157 NA
ATOM     18  N   UNL d   1      32.422 -15.686  -5.234  0.00  0.00    -0.110 NA
ATOM     19  C   UNL d   1      31.565 -16.552  -5.876  0.00  0.00     0.286 A 
ATOM     20  O   UNL d   1      31.815 -17.032  -6.983  0.00  0.00    -0.268 OA
ATOM     21  C   UNL d   1      30.282 -16.958  -5.176  0.00  0.00     0.230 A 
ATOM     22 CL   UNL d   1      30.405 -18.721  -4.937  0.00  0.00    -0.108 Cl
ENDBRANCH  12  15
ENDBRANCH   8  11
BRANCH   7  23
ATOM     23  C   UNL d   1      25.645 -13.750  -3.947  0.00  0.00     0.253 C 
ATOM     24  N   UNL d   1      24.590 -13.316  -4.663  0.00  0.00    -0.366 N 
ATOM     25  H   UNL d   1      23.656 -13.699  -4.646  0.00  0.00     0.159 HD
ATOM     26  H   UNL d   1      24.734 -12.530  -5.290  0.00  0.00     0.159 HD
ATOM     27  O   UNL d   1      26.755 -13.231  -4.063  0.00  0.00    -0.268 OA
ENDBRANCH   7  23
BRANCH   1  28
ATOM     28  O   UNL d   1      26.276 -18.886  -0.097  0.00  0.00    -0.353 OA
ATOM     29  C   UNL d   1      27.261 -18.127   0.599  0.00  0.00     0.210 C 
ENDBRANCH   1  28
TORSDOF 4
ENDMDL
MODEL 4
REMARK VINA RESULT:    -6.437      5.245      8.343
REMARK INTER + INTRA:          -8.675
REMARK INTER:                  -7.630
REMARK INTRA:                  -1.045
REMARK CONF_INDEPENDENT:        1.193
REMARK UNBOUND:                -1.045
REMARK  4 active torsions:
REMARK  status: ('A' for Active; 'I' for Inactive)
REMARK    1  A    between atoms: O_2  and  C_3 
REMARK    2  A    between atoms: C_9  and  C_10 
REMARK       I    between atoms: C_10  and  N_11 
REMARK    3  A    between atoms: C_13  and  N_14 
REMARK    4  A    between atoms: N_15  and  C_16 
ROOT
ATOM      1  C   UNL d   1      26.817 -10.192   3.139  0.00  0.00     0.102 C 
ATOM      2  C   UNL d   1      27.392  -9.841   4.362  0.00  0.00     0.040 C 
ATOM      3  C   UNL d   1      28.107 -10.781   5.108  0.00  0.00     0.004 C 
ATOM      4  C   UNL d   1      28.128 -12.108   4.712  0.00  0.00     0.014 C 
ATOM      5  C   UNL d   1      27.665 -12.441   3.446  0.00  0.00     0.002 A 
ATOM      6  C   UNL d   1      27.919 -13.767   2.933  0.00  0.00     0.035 A 
ATOM      7  C   UNL d   1      27.618 -14.060   1.666  0.00  0.00     0.085 A 
ATOM      8  C   UNL d   1      26.974 -13.027   0.822  0.00  0.00     0.178 A 
ATOM      9  O   UNL d   1      26.654 -11.788   1.329  0.00  0.00    -0.288 OA
ATOM     10  C   UNL d   1      27.033 -11.482   2.655  0.00  0.00     0.121 A 
ENDROOT
BRANCH   8  11
ATOM     11  N   UNL d   1      26.656 -13.210  -0.412  0.00  0.00    -0.279 N 
ATOM     12  N   UNL d   1      26.107 -14.253  -0.909  0.00  0.00    -0.299 N 
ATOM     13  H   UNL d   1      25.754 -15.020  -0.321  0.00  0.00     0.186 HD
ATOM     14  H   UNL d   1      26.859 -12.399  -1.036  0.00  0.00     0.189 HD
BRANCH  12  15
ATOM     15  C   UNL d   1      25.857 -14.403  -2.284  0.00  0.00     0.072 A 
ATOM     16  C   UNL d   1      24.661 -14.255  -2.872  0.00  0.00     0.169 A 
ATOM     17  N   UNL d   1      24.417 -14.449  -4.201  0.00  0.00    -0.157 NA
ATOM     18  N   UNL d   1      25.270 -14.856  -5.019  0.00  0.00    -0.110 NA
ATOM     19  C   UNL d   1      26.562 -15.137  -4.634  0.00  0.00     0.286 A 
ATOM     20  O   UNL d   1      27.406 -15.575  -5.418  0.00  0.00    -0.268 OA
ATOM     21  C   UNL d   1      26.970 -14.861  -3.200  0.00  0.00     0.230 A 
ATOM     22 CL   UNL d   1      28.250 -13.623  -3.297  0.00  0.00    -0.108 Cl
ENDBRANCH  12  15
ENDBRANCH   8  11
BRANCH   7  23
ATOM     23  C   UNL d   1      27.937 -15.394   1.106  0.00  0.00     0.253 C 
ATOM     24  N   UNL d   1      29.213 -15.803   0.980  0.00  0.00    -0.366 N 
ATOM     25  H   UNL d   1      30.038 -15.273   1.219  0.00  0.00     0.159 HD
ATOM     26  H   UNL d   1      29.378 -16.731   0.603  0.00  0.00     0.159 HD
ATOM     27  O   UNL d   1      26.997 -16.107   0.755  0.00  0.00    -0.268 OA
ENDBRANCH   7  23
BRANCH   1  28
ATOM     28  O   UNL d   1      26.008  -9.376   2.399  0.00  0.00    -0.353 OA
ATOM     29  C   UNL d   1      26.665  -8.636   1.375  0.00  0.00     0.210 C 
ENDBRANCH   1  28
TORSDOF 4
ENDMDL
MODEL 5
REMARK VINA RESULT:    -6.369      5.931      8.433
REMARK INTER + INTRA:          -8.931
REMARK INTER:                  -7.562
REMARK INTRA:                  -1.369
REMARK CONF_INDEPENDENT:        1.193
REMARK UNBOUND:                -1.369
REMARK  4 active torsions:
REMARK  status: ('A' for Active; 'I' for Inactive)
REMARK    1  A    between atoms: O_2  and  C_3 
REMARK    2  A    between atoms: C_9  and  C_10 
REMARK       I    between atoms: C_10  and  N_11 
REMARK    3  A    between atoms: C_13  and  N_14 
REMARK    4  A    between atoms: N_15  and  C_16 
ROOT
ATOM      1  C   UNL d   1      25.936 -14.918  -1.484  0.00  0.00     0.102 C 
ATOM      2  C   UNL d   1      25.774 -16.241  -1.902  0.00  0.00     0.040 C 
ATOM      3  C   UNL d   1      26.289 -17.295  -1.143  0.00  0.00     0.004 C 
ATOM      4  C   UNL d   1      27.092 -17.031  -0.046  0.00  0.00     0.014 C 
ATOM      5  C   UNL d   1      27.159 -15.733   0.443  0.00  0.00     0.002 A 
ATOM      6  C   UNL d   1      27.779 -15.498   1.726  0.00  0.00     0.035 A 
ATOM      7  C   UNL d   1      27.721 -14.286   2.282  0.00  0.00     0.085 A 
ATOM      8  C   UNL d   1      27.062 -13.186   1.543  0.00  0.00     0.178 A 
ATOM      9  O   UNL d   1      26.540 -13.383   0.284  0.00  0.00    -0.288 OA
ATOM     10  C   UNL d   1      26.564 -14.685  -0.260  0.00  0.00     0.121 A 
ENDROOT
BRANCH   8  11
ATOM     11  N   UNL d   1      26.946 -11.988   2.000  0.00  0.00    -0.279 N 
ATOM     12  N   UNL d   1      26.736 -10.929   1.314  0.00  0.00    -0.299 N 
ATOM     13  H   UNL d   1      26.522 -10.961   0.308  0.00  0.00     0.186 HD
ATOM     14  H   UNL d   1      27.009 -11.913   3.039  0.00  0.00     0.189 HD
BRANCH  12  15
ATOM     15  C   UNL d   1      26.692  -9.645   1.884  0.00  0.00     0.072 A 
ATOM     16  C   UNL d   1      27.120  -9.331   3.115  0.00  0.00     0.169 A 
ATOM     17  N   UNL d   1      27.032  -8.091   3.679  0.00  0.00    -0.157 NA
ATOM     18  N   UNL d   1      26.477  -7.112   3.136  0.00  0.00    -0.110 NA
ATOM     19  C   UNL d   1      25.905  -7.208   1.886  0.00  0.00     0.286 A 
ATOM     20  O   UNL d   1      25.321  -6.264   1.351  0.00  0.00    -0.268 OA
ATOM     21  C   UNL d   1      26.034  -8.514   1.126  0.00  0.00     0.230 A 
ATOM     22 CL   UNL d   1      26.964  -8.121  -0.344  0.00  0.00    -0.108 Cl
ENDBRANCH  12  15
ENDBRANCH   8  11
BRANCH   7  23
ATOM     23  C   UNL d   1      28.293 -14.048   3.628  0.00  0.00     0.253 C 
ATOM     24  N   UNL d   1      29.306 -14.803   4.092  0.00  0.00    -0.366 N 
ATOM     25  H   UNL d   1      29.746 -15.575   3.613  0.00  0.00     0.159 HD
ATOM     26  H   UNL d   1      29.672 -14.590   5.016  0.00  0.00     0.159 HD
ATOM     27  O   UNL d   1      27.803 -13.144   4.306  0.00  0.00    -0.268 OA
ENDBRANCH   7  23
BRANCH   1  28
ATOM     28  O   UNL d   1      25.568 -13.824  -2.214  0.00  0.00    -0.353 OA
ATOM     29  C   UNL d   1      25.154 -14.095  -3.550  0.00  0.00     0.210 C 
ENDBRANCH   1  28
TORSDOF 4
ENDMDL
MODEL 6
REMARK VINA RESULT:    -6.317      9.276     12.352
REMARK INTER + INTRA:          -8.991
REMARK INTER:                  -7.510
REMARK INTRA:                  -1.481
REMARK CONF_INDEPENDENT:        1.193
REMARK UNBOUND:                -1.481
REMARK  4 active torsions:
REMARK  status: ('A' for Active; 'I' for Inactive)
REMARK    1  A    between atoms: O_2  and  C_3 
REMARK    2  A    between atoms: C_9  and  C_10 
REMARK       I    between atoms: C_10  and  N_11 
REMARK    3  A    between atoms: C_13  and  N_14 
REMARK    4  A    between atoms: N_15  and  C_16 
ROOT
ATOM      1  C   UNL d   1      29.404 -11.289   8.724  0.00  0.00     0.102 C 
ATOM      2  C   UNL d   1      30.151 -12.012   9.656  0.00  0.00     0.040 C 
ATOM      3  C   UNL d   1      30.336 -13.388   9.506  0.00  0.00     0.004 C 
ATOM      4  C   UNL d   1      29.658 -14.074   8.511  0.00  0.00     0.014 C 
ATOM      5  C   UNL d   1      29.013 -13.352   7.515  0.00  0.00     0.002 A 
ATOM      6  C   UNL d   1      28.531 -14.049   6.346  0.00  0.00     0.035 A 
ATOM      7  C   UNL d   1      28.046 -13.358   5.312  0.00  0.00     0.085 A 
ATOM      8  C   UNL d   1      27.963 -11.883   5.407  0.00  0.00     0.178 A 
ATOM      9  O   UNL d   1      28.346 -11.218   6.550  0.00  0.00    -0.288 OA
ATOM     10  C   UNL d   1      28.907 -11.965   7.609  0.00  0.00     0.121 A 
ENDROOT
BRANCH   8  11
ATOM     11  N   UNL d   1      27.522 -11.130   4.460  0.00  0.00    -0.279 N 
ATOM     12  N   UNL d   1      27.207  -9.894   4.556  0.00  0.00    -0.299 N 
ATOM     13  H   UNL d   1      27.395  -9.345   5.405  0.00  0.00     0.186 HD
ATOM     14  H   UNL d   1      27.450 -11.600   3.531  0.00  0.00     0.189 HD
BRANCH  12  15
ATOM     15  C   UNL d   1      26.664  -9.159   3.488  0.00  0.00     0.072 A 
ATOM     16  C   UNL d   1      25.562  -9.494   2.802  0.00  0.00     0.169 A 
ATOM     17  N   UNL d   1      25.066  -8.800   1.736  0.00  0.00    -0.157 NA
ATOM     18  N   UNL d   1      25.622  -7.802   1.229  0.00  0.00    -0.110 NA
ATOM     19  C   UNL d   1      26.806  -7.305   1.728  0.00  0.00     0.286 A 
ATOM     20  O   UNL d   1      27.388  -6.346   1.218  0.00  0.00    -0.268 OA
ATOM     21  C   UNL d   1      27.394  -7.939   2.973  0.00  0.00     0.230 A 
ATOM     22 CL   UNL d   1      27.405  -6.650   4.206  0.00  0.00    -0.108 Cl
ENDBRANCH  12  15
ENDBRANCH   8  11
BRANCH   7  23
ATOM     23  C   UNL d   1      27.611 -14.056   4.079  0.00  0.00     0.253 C 
ATOM     24  N   UNL d   1      28.202 -15.200   3.687  0.00  0.00    -0.366 N 
ATOM     25  H   UNL d   1      28.968 -15.667   4.150  0.00  0.00     0.159 HD
ATOM     26  H   UNL d   1      27.858 -15.646   2.842  0.00  0.00     0.159 HD
ATOM     27  O   UNL d   1      26.699 -13.548   3.425  0.00  0.00    -0.268 OA
ENDBRANCH   7  23
BRANCH   1  28
ATOM     28  O   UNL d   1      29.076  -9.969   8.849  0.00  0.00    -0.353 OA
ATOM     29  C   UNL d   1      29.859  -9.071   8.067  0.00  0.00     0.210 C 
ENDBRANCH   1  28
TORSDOF 4
ENDMDL
MODEL 7
REMARK VINA RESULT:    -6.166      2.874      5.047
REMARK INTER + INTRA:          -8.322
REMARK INTER:                  -7.360
REMARK INTRA:                  -0.962
REMARK CONF_INDEPENDENT:        1.193
REMARK UNBOUND:                -0.962
REMARK  4 active torsions:
REMARK  status: ('A' for Active; 'I' for Inactive)
REMARK    1  A    between atoms: O_2  and  C_3 
REMARK    2  A    between atoms: C_9  and  C_10 
REMARK       I    between atoms: C_10  and  N_11 
REMARK    3  A    between atoms: C_13  and  N_14 
REMARK    4  A    between atoms: N_15  and  C_16 
ROOT
ATOM      1  C   UNL d   1      25.690  -9.294  -2.998  0.00  0.00     0.102 C 
ATOM      2  C   UNL d   1      25.348  -8.281  -3.896  0.00  0.00     0.040 C 
ATOM      3  C   UNL d   1      25.313  -8.530  -5.270  0.00  0.00     0.004 C 
ATOM      4  C   UNL d   1      25.760  -9.743  -5.765  0.00  0.00     0.014 C 
ATOM      5  C   UNL d   1      25.988 -10.790  -4.881  0.00  0.00     0.002 A 
ATOM      6  C   UNL d   1      26.201 -12.118  -5.407  0.00  0.00     0.035 A 
ATOM      7  C   UNL d   1      26.271 -13.160  -4.575  0.00  0.00     0.085 A 
ATOM      8  C   UNL d   1      26.180 -12.924  -3.117  0.00  0.00     0.178 A 
ATOM      9  O   UNL d   1      26.058 -11.652  -2.604  0.00  0.00    -0.288 OA
ATOM     10  C   UNL d   1      25.930 -10.571  -3.505  0.00  0.00     0.121 A 
ENDROOT
BRANCH   8  11
ATOM     11  N   UNL d   1      26.224 -13.864  -2.237  0.00  0.00    -0.279 N 
ATOM     12  N   UNL d   1      25.707 -15.029  -2.343  0.00  0.00    -0.299 N 
ATOM     13  H   UNL d   1      25.292 -15.367  -3.222  0.00  0.00     0.186 HD
ATOM     14  H   UNL d   1      26.764 -13.627  -1.376  0.00  0.00     0.189 HD
BRANCH  12  15
ATOM     15  C   UNL d   1      25.739 -15.977  -1.306  0.00  0.00     0.072 A 
ATOM     16  C   UNL d   1      26.704 -16.077  -0.381  0.00  0.00     0.169 A 
ATOM     17  N   UNL d   1      26.751 -17.030   0.596  0.00  0.00    -0.157 NA
ATOM     18  N   UNL d   1      25.931 -17.968   0.702  0.00  0.00    -0.110 NA
ATOM     19  C   UNL d   1      24.881 -18.109  -0.178  0.00  0.00     0.286 A 
ATOM     20  O   UNL d   1      24.085 -19.048  -0.112  0.00  0.00    -0.268 OA
ATOM     21  C   UNL d   1      24.674 -17.049  -1.241  0.00  0.00     0.230 A 
ATOM     22 CL   UNL d   1      23.080 -16.328  -0.895  0.00  0.00    -0.108 Cl
ENDBRANCH  12  15
ENDBRANCH   8  11
BRANCH   7  23
ATOM     23  C   UNL d   1      26.420 -14.536  -5.105  0.00  0.00     0.253 C 
ATOM     24  N   UNL d   1      27.576 -14.939  -5.664  0.00  0.00    -0.366 N 
ATOM     25  H   UNL d   1      28.406 -14.379  -5.794  0.00  0.00     0.159 HD
ATOM     26  H   UNL d   1      27.632 -15.896  -6.000  0.00  0.00     0.159 HD
ATOM     27  O   UNL d   1      25.451 -15.290  -5.021  0.00  0.00    -0.268 OA
ENDBRANCH   7  23
BRANCH   1  28
ATOM     28  O   UNL d   1      25.861  -9.115  -1.654  0.00  0.00    -0.353 OA
ATOM     29  C   UNL d   1      27.203  -8.879  -1.238  0.00  0.00     0.210 C 
ENDBRANCH   1  28
TORSDOF 4
ENDMDL
MODEL 8
REMARK VINA RESULT:    -6.096      5.176      7.883
REMARK INTER + INTRA:          -8.815
REMARK INTER:                  -7.289
REMARK INTRA:                  -1.526
REMARK CONF_INDEPENDENT:        1.193
REMARK UNBOUND:                -1.526
REMARK  4 active torsions:
REMARK  status: ('A' for Active; 'I' for Inactive)
REMARK    1  A    between atoms: O_2  and  C_3 
REMARK    2  A    between atoms: C_9  and  C_10 
REMARK       I    between atoms: C_10  and  N_11 
REMARK    3  A    between atoms: C_13  and  N_14 
REMARK    4  A    between atoms: N_15  and  C_16 
ROOT
ATOM      1  C   UNL d   1      26.648  -7.989  -0.521  0.00  0.00     0.102 C 
ATOM      2  C   UNL d   1      26.416  -6.804   0.180  0.00  0.00     0.040 C 
ATOM      3  C   UNL d   1      25.733  -5.743  -0.420  0.00  0.00     0.004 C 
ATOM      4  C   UNL d   1      25.409  -5.802  -1.766  0.00  0.00     0.014 C 
ATOM      5  C   UNL d   1      25.528  -7.013  -2.436  0.00  0.00     0.002 A 
ATOM      6  C   UNL d   1      24.954  -7.144  -3.754  0.00  0.00     0.035 A 
ATOM      7  C   UNL d   1      24.924  -8.337  -4.352  0.00  0.00     0.085 A 
ATOM      8  C   UNL d   1      25.532  -9.500  -3.667  0.00  0.00     0.178 A 
ATOM      9  O   UNL d   1      26.153  -9.367  -2.446  0.00  0.00    -0.288 OA
ATOM     10  C   UNL d   1      26.124  -8.107  -1.808  0.00  0.00     0.121 A 
ENDROOT
BRANCH   8  11
ATOM     11  N   UNL d   1      25.542 -10.692  -4.157  0.00  0.00    -0.279 N 
ATOM     12  N   UNL d   1      26.100 -11.720  -3.641  0.00  0.00    -0.299 N 
ATOM     13  H   UNL d   1      26.508 -11.707  -2.697  0.00  0.00     0.186 HD
ATOM     14  H   UNL d   1      25.012 -10.797  -5.050  0.00  0.00     0.189 HD
BRANCH  12  15
ATOM     15  C   UNL d   1      26.126 -12.974  -4.275  0.00  0.00     0.072 A 
ATOM     16  C   UNL d   1      25.162 -13.902  -4.193  0.00  0.00     0.169 A 
ATOM     17  N   UNL d   1      25.215 -15.136  -4.774  0.00  0.00    -0.157 NA
ATOM     18  N   UNL d   1      26.205 -15.575  -5.399  0.00  0.00    -0.110 NA
ATOM     19  C   UNL d   1      27.346 -14.821  -5.564  0.00  0.00     0.286 A 
ATOM     20  O   UNL d   1      28.345 -15.251  -6.144  0.00  0.00    -0.268 OA
ATOM     21  C   UNL d   1      27.358 -13.396  -5.045  0.00  0.00     0.230 A 
ATOM     22 CL   UNL d   1      27.580 -12.366  -6.484  0.00  0.00    -0.108 Cl
ENDBRANCH  12  15
ENDBRANCH   8  11
BRANCH   7  23
ATOM     23  C   UNL d   1      24.277  -8.499  -5.675  0.00  0.00     0.253 C 
ATOM     24  N   UNL d   1      23.088  -7.924  -5.938  0.00  0.00    -0.366 N 
ATOM     25  H   UNL d   1      22.535  -7.372  -5.298  0.00  0.00     0.159 HD
ATOM     26  H   UNL d   1      22.693  -8.055  -6.864  0.00  0.00     0.159 HD
ATOM     27  O   UNL d   1      24.859  -9.182  -6.517  0.00  0.00    -0.268 OA
ENDBRANCH   7  23
BRANCH   1  28
ATOM     28  O   UNL d   1      27.402  -9.030  -0.058  0.00  0.00    -0.353 OA
ATOM     29  C   UNL d   1      28.569  -9.323  -0.821  0.00  0.00     0.210 C 
ENDBRANCH   1  28
TORSDOF 4
ENDMDL
MODEL 9
REMARK VINA RESULT:    -5.545      4.903      8.027
REMARK INTER + INTRA:          -8.280
REMARK INTER:                  -6.738
REMARK INTRA:                  -1.542
REMARK CONF_INDEPENDENT:        1.193
REMARK UNBOUND:                -1.542
REMARK  4 active torsions:
REMARK  status: ('A' for Active; 'I' for Inactive)
REMARK    1  A    between atoms: O_2  and  C_3 
REMARK    2  A    between atoms: C_9  and  C_10 
REMARK       I    between atoms: C_10  and  N_11 
REMARK    3  A    between atoms: C_13  and  N_14 
REMARK    4  A    between atoms: N_15  and  C_16 
ROOT
ATOM      1  C   UNL d   1      27.713 -11.751   3.174  0.00  0.00     0.102 C 
ATOM      2  C   UNL d   1      28.383 -11.284   4.306  0.00  0.00     0.040 C 
ATOM      3  C   UNL d   1      29.582 -11.872   4.717  0.00  0.00     0.004 C 
ATOM      4  C   UNL d   1      30.041 -13.019   4.091  0.00  0.00     0.014 C 
ATOM      5  C   UNL d   1      29.449 -13.419   2.900  0.00  0.00     0.002 A 
ATOM      6  C   UNL d   1      30.083 -14.453   2.115  0.00  0.00     0.035 A 
ATOM      7  C   UNL d   1      29.617 -14.746   0.899  0.00  0.00     0.085 A 
ATOM      8  C   UNL d   1      28.419 -14.035   0.397  0.00  0.00     0.178 A 
ATOM      9  O   UNL d   1      27.762 -13.107   1.172  0.00  0.00    -0.288 OA
ATOM     10  C   UNL d   1      28.305 -12.773   2.432  0.00  0.00     0.121 A 
ENDROOT
BRANCH   8  11
ATOM     11  N   UNL d   1      27.903 -14.239  -0.765  0.00  0.00    -0.279 N 
ATOM     12  N   UNL d   1      26.862 -13.673  -1.244  0.00  0.00    -0.299 N 
ATOM     13  H   UNL d   1      26.394 -12.891  -0.767  0.00  0.00     0.186 HD
ATOM     14  H   UNL d   1      28.426 -14.922  -1.357  0.00  0.00     0.189 HD
BRANCH  12  15
ATOM     15  C   UNL d   1      26.320 -14.004  -2.498  0.00  0.00     0.072 A 
ATOM     16  C   UNL d   1      25.013 -13.998  -2.801  0.00  0.00     0.169 A 
ATOM     17  N   UNL d   1      24.491 -14.365  -4.007  0.00  0.00    -0.157 NA
ATOM     18  N   UNL d   1      25.167 -14.819  -4.956  0.00  0.00    -0.110 NA
ATOM     19  C   UNL d   1      26.532 -14.976  -4.858  0.00  0.00     0.286 A 
ATOM     20  O   UNL d   1      27.210 -15.457  -5.768  0.00  0.00    -0.268 OA
ATOM     21  C   UNL d   1      27.230 -14.505  -3.597  0.00  0.00     0.230 A 
ATOM     22 CL   UNL d   1      28.346 -13.216  -4.122  0.00  0.00    -0.108 Cl
ENDBRANCH  12  15
ENDBRANCH   8  11
BRANCH   7  23
ATOM     23  C   UNL d   1      30.299 -15.755   0.056  0.00  0.00     0.253 C 
ATOM     24  N   UNL d   1      30.854 -16.853   0.603  0.00  0.00    -0.366 N 
ATOM     25  H   UNL d   1      30.881 -17.083   1.586  0.00  0.00     0.159 HD
ATOM     26  H   UNL d   1      31.297 -17.521  -0.019  0.00  0.00     0.159 HD
ATOM     27  O   UNL d   1      30.346 -15.550  -1.157  0.00  0.00    -0.268 OA
ENDBRANCH   7  23
BRANCH   1  28
ATOM     28  O   UNL d   1      26.484 -11.316   2.765  0.00  0.00    -0.353 OA
ATOM     29  C   UNL d   1      26.499 -10.204   1.875  0.00  0.00     0.210 C 
ENDBRANCH   1  28
TORSDOF 4
ENDMDL
