MODEL 1
REMARK VINA RESULT:    -8.086      0.000      0.000
REMARK INTER + INTRA:         -13.396
REMARK INTER:                 -10.771
REMARK INTRA:                  -2.625
REMARK CONF_INDEPENDENT:        2.685
REMARK UNBOUND:                -2.625
REMARK  9 active torsions:
REMARK  status: ('A' for Active; 'I' for Inactive)
REMARK    1  A    between atoms: O_2  and  C_3 
REMARK    2  A    between atoms: C_9  and  C_10 
REMARK       I    between atoms: C_10  and  N_12 
REMARK    3  A    between atoms: N_12  and  C_13 
REMARK    4  A    between atoms: C_13  and  N_15 
REMARK    5  A    between atoms: N_15  and  C_16 
REMARK    6  A    between atoms: C_19  and  C_20 
REMARK    7  A    between atoms: C_23  and  C_24 
REMARK    8  A    between atoms: C_24  and  O_25 
REMARK    9  A    between atoms: C_27  and  O_28 
ROOT
ATOM      1  N   UNL d   1      28.602 -13.516  -4.399  0.00  0.00    -0.333 N 
ATOM      2  H   UNL d   1      29.244 -12.767  -4.169  0.00  0.00     0.168 HD
ENDROOT
BRANCH   1   3
ATOM      3  C   UNL d   1      27.262 -13.473  -3.925  0.00  0.00     0.179 C 
ATOM      4  S   UNL d   1      26.093 -12.427  -4.570  0.00  0.00    -0.040 SA
BRANCH   3   5
ATOM      5  N   UNL d   1      26.960 -14.407  -2.907  0.00  0.00    -0.299 N 
ATOM      6  C   UNL d   1      25.765 -15.150  -2.810  0.00  0.00     0.260 C 
ATOM      7  O   UNL d   1      24.780 -14.976  -3.540  0.00  0.00    -0.267 OA
ATOM      8  H   UNL d   1      27.652 -14.595  -2.190  0.00  0.00     0.171 HD
BRANCH   6   9
ATOM      9  C   UNL d   1      25.567 -16.220  -1.790  0.00  0.00     0.067 A 
ATOM     10  C   UNL d   1      24.244 -16.709  -1.634  0.00  0.00     0.039 A 
ATOM     11  C   UNL d   1      23.948 -17.712  -0.717  0.00  0.00     0.012 A 
ATOM     12  C   UNL d   1      24.962 -18.252   0.060  0.00  0.00     0.022 A 
ATOM     13 BR   UNL d   1      22.171 -18.330  -0.520  0.00  0.00    -0.051 Br
ATOM     14  C   UNL d   1      26.274 -17.780  -0.084  0.00  0.00     0.039 A 
ATOM     15  C   UNL d   1      26.585 -16.772  -1.013  0.00  0.00     0.084 A 
BRANCH  15  16
ATOM     16  O   UNL d   1      27.840 -16.231  -1.110  0.00  0.00    -0.355 OA
ATOM     17  C   UNL d   1      28.494 -16.061   0.144  0.00  0.00     0.210 C 
ENDBRANCH  15  16
ENDBRANCH   6   9
ENDBRANCH   3   5
ENDBRANCH   1   3
BRANCH   1  18
ATOM     18  C   UNL d   1      29.197 -14.675  -5.019  0.00  0.00     0.036 A 
ATOM     19  C   UNL d   1      29.556 -14.736  -6.367  0.00  0.00     0.030 A 
ATOM     20  C   UNL d   1      30.108 -15.929  -6.907  0.00  0.00     0.019 A 
ATOM     21  C   UNL d   1      30.352 -17.060  -6.105  0.00  0.00     0.031 A 
ATOM     22  C   UNL d   1      29.952 -17.004  -4.755  0.00  0.00     0.083 A 
ATOM     23  C   UNL d   1      29.371 -15.832  -4.258  0.00  0.00     0.067 A 
BRANCH  21  24
ATOM     24  C   UNL d   1      30.824 -18.323  -6.685  0.00  0.00     0.088 A 
ATOM     25  C   UNL d   1      31.446 -19.395  -6.080  0.00  0.00     0.041 A 
ATOM     26  C   UNL d   1      31.676 -20.357  -7.071  0.00  0.00     0.038 A 
ATOM     27  C   UNL d   1      31.223 -19.826  -8.261  0.00  0.00     0.077 A 
ATOM     28  O   UNL d   1      30.679 -18.576  -8.033  0.00  0.00    -0.312 OA
BRANCH  27  29
ATOM     29  C   UNL d   1      31.232 -20.389  -9.641  0.00  0.00     0.229 C 
BRANCH  29  30
ATOM     30  O   UNL d   1      29.991 -20.041 -10.270  0.00  0.00    -0.394 OA
ATOM     31  H   UNL d   1      29.564 -19.376  -9.701  0.00  0.00     0.209 HD
ENDBRANCH  29  30
ENDBRANCH  27  29
ENDBRANCH  21  24
BRANCH  22  32
ATOM     32  O   UNL d   1      30.097 -18.131  -3.976  0.00  0.00    -0.355 OA
ATOM     33  C   UNL d   1      30.537 -17.934  -2.630  0.00  0.00     0.210 C 
ENDBRANCH  22  32
ENDBRANCH   1  18
TORSDOF 9
ENDMDL
MODEL 2
REMARK VINA RESULT:    -7.862      4.374      8.690
REMARK INTER + INTRA:         -13.147
REMARK INTER:                 -10.547
REMARK INTRA:                  -2.601
REMARK CONF_INDEPENDENT:        2.685
REMARK UNBOUND:                -2.601
REMARK  9 active torsions:
REMARK  status: ('A' for Active; 'I' for Inactive)
REMARK    1  A    between atoms: O_2  and  C_3 
REMARK    2  A    between atoms: C_9  and  C_10 
REMARK       I    between atoms: C_10  and  N_12 
REMARK    3  A    between atoms: N_12  and  C_13 
REMARK    4  A    between atoms: C_13  and  N_15 
REMARK    5  A    between atoms: N_15  and  C_16 
REMARK    6  A    between atoms: C_19  and  C_20 
REMARK    7  A    between atoms: C_23  and  C_24 
REMARK    8  A    between atoms: C_24  and  O_25 
REMARK    9  A    between atoms: C_27  and  O_28 
ROOT
ATOM      1  N   UNL d   1      25.847 -13.470  -5.007  0.00  0.00    -0.333 N 
ATOM      2  H   UNL d   1      24.963 -13.672  -5.460  0.00  0.00     0.168 HD
ENDROOT
BRANCH   1   3
ATOM      3  C   UNL d   1      26.819 -14.496  -4.858  0.00  0.00     0.179 C 
ATOM      4  S   UNL d   1      28.104 -14.709  -5.945  0.00  0.00    -0.040 SA
BRANCH   3   5
ATOM      5  N   UNL d   1      26.668 -15.297  -3.702  0.00  0.00    -0.299 N 
ATOM      6  C   UNL d   1      25.470 -15.464  -2.977  0.00  0.00     0.260 C 
ATOM      7  O   UNL d   1      24.433 -14.823  -3.194  0.00  0.00    -0.267 OA
ATOM      8  H   UNL d   1      27.464 -15.825  -3.362  0.00  0.00     0.171 HD
BRANCH   6   9
ATOM      9  C   UNL d   1      25.345 -16.432  -1.849  0.00  0.00     0.067 A 
ATOM     10  C   UNL d   1      24.052 -16.971  -1.617  0.00  0.00     0.039 A 
ATOM     11  C   UNL d   1      23.825 -17.888  -0.597  0.00  0.00     0.012 A 
ATOM     12  C   UNL d   1      24.878 -18.292   0.210  0.00  0.00     0.022 A 
ATOM     13 BR   UNL d   1      22.086 -18.574  -0.301  0.00  0.00    -0.051 Br
ATOM     14  C   UNL d   1      26.160 -17.770  -0.007  0.00  0.00     0.039 A 
ATOM     15  C   UNL d   1      26.403 -16.848  -1.040  0.00  0.00     0.084 A 
BRANCH  15  16
ATOM     16  O   UNL d   1      27.625 -16.256  -1.217  0.00  0.00    -0.355 OA
ATOM     17  C   UNL d   1      28.546 -16.503  -0.159  0.00  0.00     0.210 C 
ENDBRANCH  15  16
ENDBRANCH   6   9
ENDBRANCH   3   5
ENDBRANCH   1   3
BRANCH   1  18
ATOM     18  C   UNL d   1      25.933 -12.182  -4.361  0.00  0.00     0.036 A 
ATOM     19  C   UNL d   1      26.294 -12.008  -3.023  0.00  0.00     0.030 A 
ATOM     20  C   UNL d   1      26.323 -10.706  -2.455  0.00  0.00     0.019 A 
ATOM     21  C   UNL d   1      26.040  -9.558  -3.220  0.00  0.00     0.031 A 
ATOM     22  C   UNL d   1      25.639  -9.745  -4.557  0.00  0.00     0.083 A 
ATOM     23  C   UNL d   1      25.576 -11.041  -5.081  0.00  0.00     0.067 A 
BRANCH  21  24
ATOM     24  C   UNL d   1      25.969  -8.226  -2.605  0.00  0.00     0.088 A 
ATOM     25  C   UNL d   1      26.295  -6.994  -3.131  0.00  0.00     0.041 A 
ATOM     26  C   UNL d   1      26.031  -6.037  -2.142  0.00  0.00     0.038 A 
ATOM     27  C   UNL d   1      25.589  -6.720  -1.028  0.00  0.00     0.077 A 
ATOM     28  O   UNL d   1      25.530  -8.073  -1.307  0.00  0.00    -0.312 OA
BRANCH  27  29
ATOM     29  C   UNL d   1      25.187  -6.223   0.318  0.00  0.00     0.229 C 
BRANCH  29  30
ATOM     30  O   UNL d   1      25.155  -7.345   1.212  0.00  0.00    -0.394 OA
ATOM     31  H   UNL d   1      25.429  -8.123   0.696  0.00  0.00     0.209 HD
ENDBRANCH  29  30
ENDBRANCH  27  29
ENDBRANCH  21  24
BRANCH  22  32
ATOM     32  O   UNL d   1      25.268  -8.643  -5.297  0.00  0.00    -0.355 OA
ATOM     33  C   UNL d   1      23.867  -8.440  -5.496  0.00  0.00     0.210 C 
ENDBRANCH  22  32
ENDBRANCH   1  18
TORSDOF 9
ENDMDL
MODEL 3
REMARK VINA RESULT:    -7.764      4.592      8.610
REMARK INTER + INTRA:         -12.848
REMARK INTER:                 -10.449
REMARK INTRA:                  -2.399
REMARK CONF_INDEPENDENT:        2.685
REMARK UNBOUND:                -2.399
REMARK  9 active torsions:
REMARK  status: ('A' for Active; 'I' for Inactive)
REMARK    1  A    between atoms: O_2  and  C_3 
REMARK    2  A    between atoms: C_9  and  C_10 
REMARK       I    between atoms: C_10  and  N_12 
REMARK    3  A    between atoms: N_12  and  C_13 
REMARK    4  A    between atoms: C_13  and  N_15 
REMARK    5  A    between atoms: N_15  and  C_16 
REMARK    6  A    between atoms: C_19  and  C_20 
REMARK    7  A    between atoms: C_23  and  C_24 
REMARK    8  A    between atoms: C_24  and  O_25 
REMARK    9  A    between atoms: C_27  and  O_28 
ROOT
ATOM      1  N   UNL d   1      27.785 -12.737  -3.892  0.00  0.00    -0.333 N 
ATOM      2  H   UNL d   1      28.691 -12.461  -3.534  0.00  0.00     0.168 HD
ENDROOT
BRANCH   1   3
ATOM      3  C   UNL d   1      27.532 -14.101  -4.206  0.00  0.00     0.179 C 
ATOM      4  S   UNL d   1      27.702 -14.730  -5.772  0.00  0.00    -0.040 SA
BRANCH   3   5
ATOM      5  N   UNL d   1      27.178 -14.911  -3.102  0.00  0.00    -0.299 N 
ATOM      6  C   UNL d   1      25.881 -15.389  -2.824  0.00  0.00     0.260 C 
ATOM      7  O   UNL d   1      24.867 -15.049  -3.449  0.00  0.00    -0.267 OA
ATOM      8  H   UNL d   1      27.902 -15.207  -2.456  0.00  0.00     0.171 HD
BRANCH   6   9
ATOM      9  C   UNL d   1      25.602 -16.353  -1.720  0.00  0.00     0.067 A 
ATOM     10  C   UNL d   1      24.279 -16.864  -1.645  0.00  0.00     0.039 A 
ATOM     11  C   UNL d   1      23.913 -17.776  -0.660  0.00  0.00     0.012 A 
ATOM     12  C   UNL d   1      24.853 -18.200   0.266  0.00  0.00     0.022 A 
ATOM     13 BR   UNL d   1      22.137 -18.424  -0.575  0.00  0.00    -0.051 Br
ATOM     14  C   UNL d   1      26.163 -17.705   0.204  0.00  0.00     0.039 A 
ATOM     15  C   UNL d   1      26.547 -16.790  -0.792  0.00  0.00     0.084 A 
BRANCH  15  16
ATOM     16  O   UNL d   1      27.793 -16.224  -0.821  0.00  0.00    -0.355 OA
ATOM     17  C   UNL d   1      28.796 -17.001  -0.173  0.00  0.00     0.210 C 
ENDBRANCH  15  16
ENDBRANCH   6   9
ENDBRANCH   3   5
ENDBRANCH   1   3
BRANCH   1  18
ATOM     18  C   UNL d   1      26.902 -11.654  -4.252  0.00  0.00     0.036 A 
ATOM     19  C   UNL d   1      26.521 -11.366  -5.564  0.00  0.00     0.030 A 
ATOM     20  C   UNL d   1      25.672 -10.259  -5.835  0.00  0.00     0.019 A 
ATOM     21  C   UNL d   1      25.155  -9.453  -4.803  0.00  0.00     0.031 A 
ATOM     22  C   UNL d   1      25.575  -9.726  -3.486  0.00  0.00     0.083 A 
ATOM     23  C   UNL d   1      26.446 -10.796  -3.250  0.00  0.00     0.067 A 
BRANCH  21  24
ATOM     24  C   UNL d   1      24.364  -8.251  -5.093  0.00  0.00     0.088 A 
ATOM     25  C   UNL d   1      23.512  -7.989  -6.145  0.00  0.00     0.041 A 
ATOM     26  C   UNL d   1      22.993  -6.702  -5.950  0.00  0.00     0.038 A 
ATOM     27  C   UNL d   1      23.576  -6.202  -4.803  0.00  0.00     0.077 A 
ATOM     28  O   UNL d   1      24.413  -7.156  -4.255  0.00  0.00    -0.312 OA
BRANCH  27  29
ATOM     29  C   UNL d   1      23.419  -4.881  -4.132  0.00  0.00     0.229 C 
BRANCH  29  30
ATOM     30  O   UNL d   1      23.405  -5.105  -2.715  0.00  0.00    -0.394 OA
ATOM     31  H   UNL d   1      23.655  -6.035  -2.574  0.00  0.00     0.209 HD
ENDBRANCH  29  30
ENDBRANCH  27  29
ENDBRANCH  21  24
BRANCH  22  32
ATOM     32  O   UNL d   1      25.155  -8.893  -2.472  0.00  0.00    -0.355 OA
ATOM     33  C   UNL d   1      26.151  -8.080  -1.849  0.00  0.00     0.210 C 
ENDBRANCH  22  32
ENDBRANCH   1  18
TORSDOF 9
ENDMDL
MODEL 4
REMARK VINA RESULT:    -7.636      0.953      1.692
REMARK INTER + INTRA:         -12.971
REMARK INTER:                 -10.320
REMARK INTRA:                  -2.650
REMARK CONF_INDEPENDENT:        2.685
REMARK UNBOUND:                -2.650
REMARK  9 active torsions:
REMARK  status: ('A' for Active; 'I' for Inactive)
REMARK    1  A    between atoms: O_2  and  C_3 
REMARK    2  A    between atoms: C_9  and  C_10 
REMARK       I    between atoms: C_10  and  N_12 
REMARK    3  A    between atoms: N_12  and  C_13 
REMARK    4  A    between atoms: C_13  and  N_15 
REMARK    5  A    between atoms: N_15  and  C_16 
REMARK    6  A    between atoms: C_19  and  C_20 
REMARK    7  A    between atoms: C_23  and  C_24 
REMARK    8  A    between atoms: C_24  and  O_25 
REMARK    9  A    between atoms: C_27  and  O_28 
ROOT
ATOM      1  N   UNL d   1      28.711 -13.683  -3.774  0.00  0.00    -0.333 N 
ATOM      2  H   UNL d   1      29.435 -13.027  -3.505  0.00  0.00     0.168 HD
ENDROOT
BRANCH   1   3
ATOM      3  C   UNL d   1      27.374 -13.483  -3.336  0.00  0.00     0.179 C 
ATOM      4  S   UNL d   1      26.376 -12.261  -3.959  0.00  0.00    -0.040 SA
BRANCH   3   5
ATOM      5  N   UNL d   1      26.915 -14.416  -2.377  0.00  0.00    -0.299 N 
ATOM      6  C   UNL d   1      25.832 -15.301  -2.553  0.00  0.00     0.260 C 
ATOM      7  O   UNL d   1      25.068 -15.277  -3.528  0.00  0.00    -0.267 OA
ATOM      8  H   UNL d   1      27.404 -14.492  -1.492  0.00  0.00     0.171 HD
BRANCH   6   9
ATOM      9  C   UNL d   1      25.488 -16.356  -1.555  0.00  0.00     0.067 A 
ATOM     10  C   UNL d   1      24.177 -16.895  -1.631  0.00  0.00     0.039 A 
ATOM     11  C   UNL d   1      23.754 -17.889  -0.754  0.00  0.00     0.012 A 
ATOM     12  C   UNL d   1      24.626 -18.369   0.211  0.00  0.00     0.022 A 
ATOM     13 BR   UNL d   1      21.995 -18.575  -0.869  0.00  0.00    -0.051 Br
ATOM     14  C   UNL d   1      25.924 -17.846   0.298  0.00  0.00     0.039 A 
ATOM     15  C   UNL d   1      26.364 -16.847  -0.588  0.00  0.00     0.084 A 
BRANCH  15  16
ATOM     16  O   UNL d   1      27.594 -16.258  -0.469  0.00  0.00    -0.355 OA
ATOM     17  C   UNL d   1      28.682 -17.177  -0.504  0.00  0.00     0.210 C 
ENDBRANCH  15  16
ENDBRANCH   6   9
ENDBRANCH   3   5
ENDBRANCH   1   3
BRANCH   1  18
ATOM     18  C   UNL d   1      29.175 -14.891  -4.412  0.00  0.00     0.036 A 
ATOM     19  C   UNL d   1      29.145 -16.150  -3.807  0.00  0.00     0.030 A 
ATOM     20  C   UNL d   1      29.652 -17.286  -4.494  0.00  0.00     0.019 A 
ATOM     21  C   UNL d   1      30.151 -17.193  -5.808  0.00  0.00     0.031 A 
ATOM     22  C   UNL d   1      30.214 -15.916  -6.397  0.00  0.00     0.083 A 
ATOM     23  C   UNL d   1      29.748 -14.806  -5.682  0.00  0.00     0.067 A 
BRANCH  21  24
ATOM     24  C   UNL d   1      30.768 -18.347  -6.475  0.00  0.00     0.088 A 
ATOM     25  C   UNL d   1      31.592 -19.326  -5.961  0.00  0.00     0.041 A 
ATOM     26  C   UNL d   1      31.894 -20.207  -7.007  0.00  0.00     0.038 A 
ATOM     27  C   UNL d   1      31.276 -19.716  -8.138  0.00  0.00     0.077 A 
ATOM     28  O   UNL d   1      30.563 -18.575  -7.819  0.00  0.00    -0.312 OA
BRANCH  27  29
ATOM     29  C   UNL d   1      31.269 -20.226  -9.539  0.00  0.00     0.229 C 
BRANCH  29  30
ATOM     30  O   UNL d   1      30.086 -19.733 -10.183  0.00  0.00    -0.394 OA
ATOM     31  H   UNL d   1      29.534 -19.333  -9.489  0.00  0.00     0.209 HD
ENDBRANCH  29  30
ENDBRANCH  27  29
ENDBRANCH  21  24
BRANCH  22  32
ATOM     32  O   UNL d   1      30.784 -15.789  -7.644  0.00  0.00    -0.355 OA
ATOM     33  C   UNL d   1      31.975 -15.004  -7.735  0.00  0.00     0.210 C 
ENDBRANCH  22  32
ENDBRANCH   1  18
TORSDOF 9
ENDMDL
MODEL 5
REMARK VINA RESULT:    -7.600      1.031      1.170
REMARK INTER + INTRA:         -13.025
REMARK INTER:                 -10.285
REMARK INTRA:                  -2.740
REMARK CONF_INDEPENDENT:        2.685
REMARK UNBOUND:                -2.740
REMARK  9 active torsions:
REMARK  status: ('A' for Active; 'I' for Inactive)
REMARK    1  A    between atoms: O_2  and  C_3 
REMARK    2  A    between atoms: C_9  and  C_10 
REMARK       I    between atoms: C_10  and  N_12 
REMARK    3  A    between atoms: N_12  and  C_13 
REMARK    4  A    between atoms: C_13  and  N_15 
REMARK    5  A    between atoms: N_15  and  C_16 
REMARK    6  A    between atoms: C_19  and  C_20 
REMARK    7  A    between atoms: C_23  and  C_24 
REMARK    8  A    between atoms: C_24  and  O_25 
REMARK    9  A    between atoms: C_27  and  O_28 
ROOT
ATOM      1  N   UNL d   1      26.787 -13.486  -4.708  0.00  0.00    -0.333 N 
ATOM      2  H   UNL d   1      26.104 -13.131  -5.367  0.00  0.00     0.168 HD
ENDROOT
BRANCH   1   3
ATOM      3  C   UNL d   1      26.785 -13.020  -3.365  0.00  0.00     0.179 C 
ATOM      4  S   UNL d   1      27.062 -11.398  -2.954  0.00  0.00    -0.040 SA
BRANCH   3   5
ATOM      5  N   UNL d   1      26.483 -14.003  -2.394  0.00  0.00    -0.299 N 
ATOM      6  C   UNL d   1      25.546 -15.046  -2.553  0.00  0.00     0.260 C 
ATOM      7  O   UNL d   1      24.780 -15.148  -3.520  0.00  0.00    -0.267 OA
ATOM      8  H   UNL d   1      26.985 -13.996  -1.513  0.00  0.00     0.171 HD
BRANCH   6   9
ATOM      9  C   UNL d   1      25.376 -16.130  -1.543  0.00  0.00     0.067 A 
ATOM     10  C   UNL d   1      24.101 -16.752  -1.491  0.00  0.00     0.039 A 
ATOM     11  C   UNL d   1      23.835 -17.780  -0.592  0.00  0.00     0.012 A 
ATOM     12  C   UNL d   1      24.832 -18.214   0.268  0.00  0.00     0.022 A 
ATOM     13 BR   UNL d   1      22.120 -18.576  -0.534  0.00  0.00    -0.051 Br
ATOM     14  C   UNL d   1      26.097 -17.610   0.228  0.00  0.00     0.039 A 
ATOM     15  C   UNL d   1      26.378 -16.575  -0.681  0.00  0.00     0.084 A 
BRANCH  15  16
ATOM     16  O   UNL d   1      27.575 -15.910  -0.681  0.00  0.00    -0.355 OA
ATOM     17  C   UNL d   1      28.253 -15.941   0.572  0.00  0.00     0.210 C 
ENDBRANCH  15  16
ENDBRANCH   6   9
ENDBRANCH   3   5
ENDBRANCH   1   3
BRANCH   1  18
ATOM     18  C   UNL d   1      27.844 -14.285  -5.280  0.00  0.00     0.036 A 
ATOM     19  C   UNL d   1      28.443 -14.014  -6.511  0.00  0.00     0.030 A 
ATOM     20  C   UNL d   1      29.457 -14.871  -7.017  0.00  0.00     0.019 A 
ATOM     21  C   UNL d   1      29.919 -15.982  -6.285  0.00  0.00     0.031 A 
ATOM     22  C   UNL d   1      29.283 -16.272  -5.063  0.00  0.00     0.083 A 
ATOM     23  C   UNL d   1      28.257 -15.436  -4.607  0.00  0.00     0.067 A 
BRANCH  21  24
ATOM     24  C   UNL d   1      30.891 -16.924  -6.856  0.00  0.00     0.088 A 
ATOM     25  C   UNL d   1      32.265 -16.949  -6.744  0.00  0.00     0.041 A 
ATOM     26  C   UNL d   1      32.720 -18.062  -7.463  0.00  0.00     0.038 A 
ATOM     27  C   UNL d   1      31.611 -18.661  -8.024  0.00  0.00     0.077 A 
ATOM     28  O   UNL d   1      30.472 -17.976  -7.643  0.00  0.00    -0.312 OA
BRANCH  27  29
ATOM     29  C   UNL d   1      31.496 -19.859  -8.903  0.00  0.00     0.229 C 
BRANCH  29  30
ATOM     30  O   UNL d   1      30.324 -19.700  -9.715  0.00  0.00    -0.394 OA
ATOM     31  H   UNL d   1      29.650 -19.274  -9.157  0.00  0.00     0.209 HD
ENDBRANCH  29  30
ENDBRANCH  27  29
ENDBRANCH  21  24
BRANCH  22  32
ATOM     32  O   UNL d   1      29.656 -17.406  -4.376  0.00  0.00    -0.355 OA
ATOM     33  C   UNL d   1      30.090 -17.231  -3.026  0.00  0.00     0.210 C 
ENDBRANCH  22  32
ENDBRANCH   1  18
TORSDOF 9
ENDMDL
MODEL 6
REMARK VINA RESULT:    -7.469      3.098      7.608
REMARK INTER + INTRA:         -12.834
REMARK INTER:                 -10.154
REMARK INTRA:                  -2.680
REMARK CONF_INDEPENDENT:        2.685
REMARK UNBOUND:                -2.680
REMARK  9 active torsions:
REMARK  status: ('A' for Active; 'I' for Inactive)
REMARK    1  A    between atoms: O_2  and  C_3 
REMARK    2  A    between atoms: C_9  and  C_10 
REMARK       I    between atoms: C_10  and  N_12 
REMARK    3  A    between atoms: N_12  and  C_13 
REMARK    4  A    between atoms: C_13  and  N_15 
REMARK    5  A    between atoms: N_15  and  C_16 
REMARK    6  A    between atoms: C_19  and  C_20 
REMARK    7  A    between atoms: C_23  and  C_24 
REMARK    8  A    between atoms: C_24  and  O_25 
REMARK    9  A    between atoms: C_27  and  O_28 
ROOT
ATOM      1  N   UNL d   1      26.977 -12.333  -4.204  0.00  0.00    -0.333 N 
ATOM      2  H   UNL d   1      26.986 -11.472  -3.671  0.00  0.00     0.168 HD
ENDROOT
BRANCH   1   3
ATOM      3  C   UNL d   1      27.392 -12.332  -5.563  0.00  0.00     0.179 C 
ATOM      4  S   UNL d   1      26.652 -11.369  -6.748  0.00  0.00    -0.040 SA
BRANCH   3   5
ATOM      5  N   UNL d   1      28.506 -13.155  -5.847  0.00  0.00    -0.299 N 
ATOM      6  C   UNL d   1      28.467 -14.557  -5.998  0.00  0.00     0.260 C 
ATOM      7  O   UNL d   1      27.467 -15.251  -5.771  0.00  0.00    -0.267 OA
ATOM      8  H   UNL d   1      29.414 -12.725  -5.984  0.00  0.00     0.171 HD
BRANCH   6   9
ATOM      9  C   UNL d   1      29.653 -15.349  -6.434  0.00  0.00     0.067 A 
ATOM     10  C   UNL d   1      29.705 -16.701  -6.004  0.00  0.00     0.039 A 
ATOM     11  C   UNL d   1      30.762 -17.532  -6.360  0.00  0.00     0.012 A 
ATOM     12  C   UNL d   1      31.786 -17.037  -7.154  0.00  0.00     0.022 A 
ATOM     13 BR   UNL d   1      30.811 -19.324  -5.756  0.00  0.00    -0.051 Br
ATOM     14  C   UNL d   1      31.748 -15.705  -7.588  0.00  0.00     0.039 A 
ATOM     15  C   UNL d   1      30.681 -14.858  -7.240  0.00  0.00     0.084 A 
BRANCH  15  16
ATOM     16  O   UNL d   1      30.664 -13.531  -7.574  0.00  0.00    -0.355 OA
ATOM     17  C   UNL d   1      31.665 -13.160  -8.518  0.00  0.00     0.210 C 
ENDBRANCH  15  16
ENDBRANCH   6   9
ENDBRANCH   3   5
ENDBRANCH   1   3
BRANCH   1  18
ATOM     18  C   UNL d   1      26.325 -13.451  -3.564  0.00  0.00     0.036 A 
ATOM     19  C   UNL d   1      24.940 -13.577  -3.443  0.00  0.00     0.030 A 
ATOM     20  C   UNL d   1      24.379 -14.695  -2.770  0.00  0.00     0.019 A 
ATOM     21  C   UNL d   1      25.186 -15.726  -2.249  0.00  0.00     0.031 A 
ATOM     22  C   UNL d   1      26.583 -15.573  -2.341  0.00  0.00     0.083 A 
ATOM     23  C   UNL d   1      27.111 -14.440  -2.971  0.00  0.00     0.067 A 
BRANCH  21  24
ATOM     24  C   UNL d   1      24.612 -16.825  -1.464  0.00  0.00     0.088 A 
ATOM     25  C   UNL d   1      25.214 -17.667  -0.553  0.00  0.00     0.041 A 
ATOM     26  C   UNL d   1      24.225 -18.534  -0.071  0.00  0.00     0.038 A 
ATOM     27  C   UNL d   1      23.056 -18.220  -0.733  0.00  0.00     0.077 A 
ATOM     28  O   UNL d   1      23.278 -17.154  -1.585  0.00  0.00    -0.312 OA
BRANCH  27  29
ATOM     29  C   UNL d   1      21.697 -18.825  -0.641  0.00  0.00     0.229 C 
BRANCH  29  30
ATOM     30  O   UNL d   1      20.741 -17.823  -1.016  0.00  0.00    -0.394 OA
ATOM     31  H   UNL d   1      21.238 -17.110  -1.456  0.00  0.00     0.209 HD
ENDBRANCH  29  30
ENDBRANCH  27  29
ENDBRANCH  21  24
BRANCH  22  32
ATOM     32  O   UNL d   1      27.392 -16.523  -1.756  0.00  0.00    -0.355 OA
ATOM     33  C   UNL d   1      28.800 -16.390  -1.964  0.00  0.00     0.210 C 
ENDBRANCH  22  32
ENDBRANCH   1  18
TORSDOF 9
ENDMDL
MODEL 7
REMARK VINA RESULT:    -7.344      4.194      8.099
REMARK INTER + INTRA:         -12.802
REMARK INTER:                 -10.029
REMARK INTRA:                  -2.774
REMARK CONF_INDEPENDENT:        2.685
REMARK UNBOUND:                -2.774
REMARK  9 active torsions:
REMARK  status: ('A' for Active; 'I' for Inactive)
REMARK    1  A    between atoms: O_2  and  C_3 
REMARK    2  A    between atoms: C_9  and  C_10 
REMARK       I    between atoms: C_10  and  N_12 
REMARK    3  A    between atoms: N_12  and  C_13 
REMARK    4  A    between atoms: C_13  and  N_15 
REMARK    5  A    between atoms: N_15  and  C_16 
REMARK    6  A    between atoms: C_19  and  C_20 
REMARK    7  A    between atoms: C_23  and  C_24 
REMARK    8  A    between atoms: C_24  and  O_25 
REMARK    9  A    between atoms: C_27  and  O_28 
ROOT
ATOM      1  N   UNL d   1      26.368 -13.784  -5.144  0.00  0.00    -0.333 N 
ATOM      2  H   UNL d   1      25.585 -14.029  -5.737  0.00  0.00     0.168 HD
ENDROOT
BRANCH   1   3
ATOM      3  C   UNL d   1      27.339 -14.766  -4.807  0.00  0.00     0.179 C 
ATOM      4  S   UNL d   1      28.749 -15.014  -5.717  0.00  0.00    -0.040 SA
BRANCH   3   5
ATOM      5  N   UNL d   1      27.069 -15.488  -3.621  0.00  0.00    -0.299 N 
ATOM      6  C   UNL d   1      25.802 -15.621  -3.016  0.00  0.00     0.260 C 
ATOM      7  O   UNL d   1      24.791 -15.009  -3.386  0.00  0.00    -0.267 OA
ATOM      8  H   UNL d   1      27.827 -15.982  -3.162  0.00  0.00     0.171 HD
BRANCH   6   9
ATOM      9  C   UNL d   1      25.563 -16.511  -1.844  0.00  0.00     0.067 A 
ATOM     10  C   UNL d   1      24.250 -17.032  -1.702  0.00  0.00     0.039 A 
ATOM     11  C   UNL d   1      23.919 -17.880  -0.650  0.00  0.00     0.012 A 
ATOM     12  C   UNL d   1      24.887 -18.229   0.279  0.00  0.00     0.022 A 
ATOM     13 BR   UNL d   1      22.156 -18.542  -0.478  0.00  0.00    -0.051 Br
ATOM     14  C   UNL d   1      26.188 -17.724   0.152  0.00  0.00     0.039 A 
ATOM     15  C   UNL d   1      26.535 -16.873  -0.912  0.00  0.00     0.084 A 
BRANCH  15  16
ATOM     16  O   UNL d   1      27.773 -16.295  -1.009  0.00  0.00    -0.355 OA
ATOM     17  C   UNL d   1      28.264 -15.768   0.220  0.00  0.00     0.210 C 
ENDBRANCH  15  16
ENDBRANCH   6   9
ENDBRANCH   3   5
ENDBRANCH   1   3
BRANCH   1  18
ATOM     18  C   UNL d   1      26.290 -12.485  -4.520  0.00  0.00     0.036 A 
ATOM     19  C   UNL d   1      25.904 -11.323  -5.192  0.00  0.00     0.030 A 
ATOM     20  C   UNL d   1      25.885 -10.076  -4.511  0.00  0.00     0.019 A 
ATOM     21  C   UNL d   1      26.204  -9.975  -3.143  0.00  0.00     0.031 A 
ATOM     22  C   UNL d   1      26.630 -11.144  -2.482  0.00  0.00     0.083 A 
ATOM     23  C   UNL d   1      26.681 -12.352  -3.187  0.00  0.00     0.067 A 
BRANCH  21  24
ATOM     24  C   UNL d   1      26.284  -8.673  -2.470  0.00  0.00     0.088 A 
ATOM     25  C   UNL d   1      26.616  -7.436  -2.979  0.00  0.00     0.041 A 
ATOM     26  C   UNL d   1      26.527  -6.515  -1.927  0.00  0.00     0.038 A 
ATOM     27  C   UNL d   1      26.181  -7.227  -0.797  0.00  0.00     0.077 A 
ATOM     28  O   UNL d   1      26.012  -8.560  -1.122  0.00  0.00    -0.312 OA
BRANCH  27  29
ATOM     29  C   UNL d   1      25.972  -6.775   0.608  0.00  0.00     0.229 C 
BRANCH  29  30
ATOM     30  O   UNL d   1      25.385  -7.861   1.339  0.00  0.00    -0.394 OA
ATOM     31  H   UNL d   1      25.392  -8.634   0.747  0.00  0.00     0.209 HD
ENDBRANCH  29  30
ENDBRANCH  27  29
ENDBRANCH  21  24
BRANCH  22  32
ATOM     32  O   UNL d   1      27.035 -11.051  -1.169  0.00  0.00    -0.355 OA
ATOM     33  C   UNL d   1      27.526 -12.246  -0.557  0.00  0.00     0.210 C 
ENDBRANCH  22  32
ENDBRANCH   1  18
TORSDOF 9
ENDMDL
MODEL 8
REMARK VINA RESULT:    -7.169      1.712      2.750
REMARK INTER + INTRA:         -12.384
REMARK INTER:                  -9.854
REMARK INTRA:                  -2.530
REMARK CONF_INDEPENDENT:        2.685
REMARK UNBOUND:                -2.530
REMARK  9 active torsions:
REMARK  status: ('A' for Active; 'I' for Inactive)
REMARK    1  A    between atoms: O_2  and  C_3 
REMARK    2  A    between atoms: C_9  and  C_10 
REMARK       I    between atoms: C_10  and  N_12 
REMARK    3  A    between atoms: N_12  and  C_13 
REMARK    4  A    between atoms: C_13  and  N_15 
REMARK    5  A    between atoms: N_15  and  C_16 
REMARK    6  A    between atoms: C_19  and  C_20 
REMARK    7  A    between atoms: C_23  and  C_24 
REMARK    8  A    between atoms: C_24  and  O_25 
REMARK    9  A    between atoms: C_27  and  O_28 
ROOT
ATOM      1  N   UNL d   1      28.805 -14.578  -5.015  0.00  0.00    -0.333 N 
ATOM      2  H   UNL d   1      29.387 -13.859  -5.428  0.00  0.00     0.168 HD
ENDROOT
BRANCH   1   3
ATOM      3  C   UNL d   1      27.581 -14.224  -4.384  0.00  0.00     0.179 C 
ATOM      4  S   UNL d   1      26.567 -12.996  -4.969  0.00  0.00    -0.040 SA
BRANCH   3   5
ATOM      5  N   UNL d   1      27.242 -15.009  -3.259  0.00  0.00    -0.299 N 
ATOM      6  C   UNL d   1      25.941 -15.439  -2.925  0.00  0.00     0.260 C 
ATOM      7  O   UNL d   1      24.917 -15.068  -3.513  0.00  0.00    -0.267 OA
ATOM      8  H   UNL d   1      27.980 -15.325  -2.638  0.00  0.00     0.171 HD
BRANCH   6   9
ATOM      9  C   UNL d   1      25.672 -16.381  -1.800  0.00  0.00     0.067 A 
ATOM     10  C   UNL d   1      24.341 -16.863  -1.682  0.00  0.00     0.039 A 
ATOM     11  C   UNL d   1      23.982 -17.752  -0.675  0.00  0.00     0.012 A 
ATOM     12  C   UNL d   1      24.938 -18.184   0.232  0.00  0.00     0.022 A 
ATOM     13 BR   UNL d   1      22.197 -18.361  -0.533  0.00  0.00    -0.051 Br
ATOM     14  C   UNL d   1      26.256 -17.718   0.128  0.00  0.00     0.039 A 
ATOM     15  C   UNL d   1      26.632 -16.825  -0.891  0.00  0.00     0.084 A 
BRANCH  15  16
ATOM     16  O   UNL d   1      27.889 -16.286  -0.962  0.00  0.00    -0.355 OA
ATOM     17  C   UNL d   1      28.880 -17.038  -0.267  0.00  0.00     0.210 C 
ENDBRANCH  15  16
ENDBRANCH   6   9
ENDBRANCH   3   5
ENDBRANCH   1   3
BRANCH   1  18
ATOM     18  C   UNL d   1      29.404 -15.888  -4.927  0.00  0.00     0.036 A 
ATOM     19  C   UNL d   1      29.650 -16.549  -3.722  0.00  0.00     0.030 A 
ATOM     20  C   UNL d   1      30.274 -17.826  -3.722  0.00  0.00     0.019 A 
ATOM     21  C   UNL d   1      30.618 -18.481  -4.920  0.00  0.00     0.031 A 
ATOM     22  C   UNL d   1      30.402 -17.792  -6.129  0.00  0.00     0.083 A 
ATOM     23  C   UNL d   1      29.825 -16.517  -6.100  0.00  0.00     0.067 A 
BRANCH  21  24
ATOM     24  C   UNL d   1      31.355 -19.751  -4.914  0.00  0.00     0.088 A 
ATOM     25  C   UNL d   1      32.605 -20.047  -5.414  0.00  0.00     0.041 A 
ATOM     26  C   UNL d   1      32.854 -21.398  -5.139  0.00  0.00     0.038 A 
ATOM     27  C   UNL d   1      31.730 -21.896  -4.512  0.00  0.00     0.077 A 
ATOM     28  O   UNL d   1      30.802 -20.883  -4.352  0.00  0.00    -0.312 OA
BRANCH  27  29
ATOM     29  C   UNL d   1      31.422 -23.267  -4.016  0.00  0.00     0.229 C 
BRANCH  29  30
ATOM     30  O   UNL d   1      29.998 -23.383  -3.893  0.00  0.00    -0.394 OA
ATOM     31  H   UNL d   1      29.612 -22.615  -4.350  0.00  0.00     0.209 HD
ENDBRANCH  29  30
ENDBRANCH  27  29
ENDBRANCH  21  24
BRANCH  22  32
ATOM     32  O   UNL d   1      30.816 -18.375  -7.306  0.00  0.00    -0.355 OA
ATOM     33  C   UNL d   1      31.853 -17.709  -8.029  0.00  0.00     0.210 C 
ENDBRANCH  22  32
ENDBRANCH   1  18
TORSDOF 9
ENDMDL
MODEL 9
REMARK VINA RESULT:    -7.148      5.437      9.013
REMARK INTER + INTRA:         -12.406
REMARK INTER:                  -9.833
REMARK INTRA:                  -2.573
REMARK CONF_INDEPENDENT:        2.685
REMARK UNBOUND:                -2.573
REMARK  9 active torsions:
REMARK  status: ('A' for Active; 'I' for Inactive)
REMARK    1  A    between atoms: O_2  and  C_3 
REMARK    2  A    between atoms: C_9  and  C_10 
REMARK       I    between atoms: C_10  and  N_12 
REMARK    3  A    between atoms: N_12  and  C_13 
REMARK    4  A    between atoms: C_13  and  N_15 
REMARK    5  A    between atoms: N_15  and  C_16 
REMARK    6  A    between atoms: C_19  and  C_20 
REMARK    7  A    between atoms: C_23  and  C_24 
REMARK    8  A    between atoms: C_24  and  O_25 
REMARK    9  A    between atoms: C_27  and  O_28 
ROOT
ATOM      1  N   UNL d   1      27.367 -12.362  -1.236  0.00  0.00    -0.333 N 
ATOM      2  H   UNL d   1      27.562 -11.411  -1.527  0.00  0.00     0.168 HD
ENDROOT
BRANCH   1   3
ATOM      3  C   UNL d   1      26.603 -13.219  -2.074  0.00  0.00     0.179 C 
ATOM      4  S   UNL d   1      26.307 -12.879  -3.710  0.00  0.00    -0.040 SA
BRANCH   3   5
ATOM      5  N   UNL d   1      26.149 -14.407  -1.457  0.00  0.00    -0.299 N 
ATOM      6  C   UNL d   1      25.047 -15.178  -1.880  0.00  0.00     0.260 C 
ATOM      7  O   UNL d   1      24.262 -14.833  -2.774  0.00  0.00    -0.267 OA
ATOM      8  H   UNL d   1      26.657 -14.771  -0.657  0.00  0.00     0.171 HD
BRANCH   6   9
ATOM      9  C   UNL d   1      24.707 -16.495  -1.268  0.00  0.00     0.067 A 
ATOM     10  C   UNL d   1      23.345 -16.889  -1.329  0.00  0.00     0.039 A 
ATOM     11  C   UNL d   1      22.919 -18.102  -0.796  0.00  0.00     0.012 A 
ATOM     12  C   UNL d   1      23.840 -18.948  -0.197  0.00  0.00     0.022 A 
ATOM     13 BR   UNL d   1      21.093 -18.589  -0.876  0.00  0.00    -0.051 Br
ATOM     14  C   UNL d   1      25.189 -18.574  -0.131  0.00  0.00     0.039 A 
ATOM     15  C   UNL d   1      25.631 -17.354  -0.672  0.00  0.00     0.084 A 
BRANCH  15  16
ATOM     16  O   UNL d   1      26.924 -16.924  -0.542  0.00  0.00    -0.355 OA
ATOM     17  C   UNL d   1      27.401 -16.924   0.801  0.00  0.00     0.210 C 
ENDBRANCH  15  16
ENDBRANCH   6   9
ENDBRANCH   3   5
ENDBRANCH   1   3
BRANCH   1  18
ATOM     18  C   UNL d   1      27.717 -12.677   0.128  0.00  0.00     0.036 A 
ATOM     19  C   UNL d   1      28.456 -13.802   0.500  0.00  0.00     0.030 A 
ATOM     20  C   UNL d   1      28.731 -14.056   1.871  0.00  0.00     0.019 A 
ATOM     21  C   UNL d   1      28.314 -13.172   2.885  0.00  0.00     0.031 A 
ATOM     22  C   UNL d   1      27.536 -12.061   2.506  0.00  0.00     0.083 A 
ATOM     23  C   UNL d   1      27.243 -11.856   1.153  0.00  0.00     0.067 A 
BRANCH  21  24
ATOM     24  C   UNL d   1      28.508 -13.490   4.305  0.00  0.00     0.088 A 
ATOM     25  C   UNL d   1      28.814 -14.693   4.905  0.00  0.00     0.041 A 
ATOM     26  C   UNL d   1      28.906 -14.459   6.283  0.00  0.00     0.038 A 
ATOM     27  C   UNL d   1      28.614 -13.126   6.486  0.00  0.00     0.077 A 
ATOM     28  O   UNL d   1      28.383 -12.512   5.269  0.00  0.00    -0.312 OA
BRANCH  27  29
ATOM     29  C   UNL d   1      28.538 -12.329   7.743  0.00  0.00     0.229 C 
BRANCH  29  30
ATOM     30  O   UNL d   1      28.169 -10.988   7.395  0.00  0.00    -0.394 OA
ATOM     31  H   UNL d   1      27.810 -11.020   6.491  0.00  0.00     0.209 HD
ENDBRANCH  29  30
ENDBRANCH  27  29
ENDBRANCH  21  24
BRANCH  22  32
ATOM     32  O   UNL d   1      27.040 -11.234   3.490  0.00  0.00    -0.355 OA
ATOM     33  C   UNL d   1      27.751 -10.018   3.732  0.00  0.00     0.210 C 
ENDBRANCH  22  32
ENDBRANCH   1  18
TORSDOF 9
ENDMDL
