MODEL 1
REMARK VINA RESULT:    -9.497      0.000      0.000
REMARK INTER + INTRA:         -16.377
REMARK INTER:                 -13.673
REMARK INTRA:                  -2.704
REMARK CONF_INDEPENDENT:        4.176
REMARK UNBOUND:                -2.704
REMARK  14 active torsions:
REMARK  status: ('A' for Active; 'I' for Inactive)
REMARK    1  A    between atoms: C_2  and  C_3 
REMARK    2  A    between atoms: C_2  and  O_29 
REMARK    3  A    between atoms: C_3  and  C_4 
REMARK    4  A    between atoms: C_5  and  C_4 
REMARK    5  A    between atoms: C_5  and  C_17 
REMARK    6  A    between atoms: C_5  and  N_6 
REMARK       I    between atoms: N_6  and  C_7 
REMARK    7  A    between atoms: C_7  and  O_9 
REMARK    8  A    between atoms: O_9  and  C_10 
REMARK    9  A    between atoms: C_10  and  C_11 
REMARK   10  A    between atoms: C_17  and  O_19 
REMARK   11  A    between atoms: O_19  and  C_20 
REMARK   12  A    between atoms: C_23  and  N_24 
REMARK   13  A    between atoms: O_29  and  C_30 
REMARK   14  A    between atoms: C_30  and  C_31 
ROOT
ATOM      1  C   UNL d   1      26.036 -14.676  -1.552  0.00  0.00     0.187 C 
ENDROOT
BRANCH   1   2
ATOM      2  C   UNL d   1      26.888 -14.369  -0.283  0.00  0.00     0.287 C 
ATOM      3  O   UNL d   1      26.826 -15.010   0.760  0.00  0.00    -0.263 OA
BRANCH   2   4
ATOM      4  O   UNL d   1      27.693 -13.234  -0.475  0.00  0.00    -0.277 OA
BRANCH   4   5
ATOM      5  C   UNL d   1      27.301 -12.053   0.182  0.00  0.00     0.079 A 
ATOM      6  C   UNL d   1      27.656 -10.806  -0.342  0.00  0.00     0.040 A 
ATOM      7  C   UNL d   1      27.380  -9.637   0.372  0.00  0.00     0.039 A 
ATOM      8  C   UNL d   1      26.680  -9.729   1.579  0.00  0.00     0.103 A 
ATOM      9  C   UNL d   1      26.332 -10.979   2.105  0.00  0.00     0.039 A 
ATOM     10  C   UNL d   1      26.662 -12.139   1.412  0.00  0.00     0.040 A 
BRANCH   8  11
ATOM     11  N   UNL d   1      26.264  -8.510   2.279  0.00  0.00    -0.116 N 
ATOM     12  O   UNL d   1      25.530  -7.718   1.670  0.00  0.00    -0.532 OA
ATOM     13  O   UNL d   1      26.655  -8.354   3.445  0.00  0.00    -0.532 OA
ENDBRANCH   8  11
ENDBRANCH   4   5
ENDBRANCH   2   4
ENDBRANCH   1   2
BRANCH   1  14
ATOM     14  N   UNL d   1      26.848 -14.290  -2.724  0.00  0.00    -0.323 N 
ATOM     15  C   UNL d   1      26.157 -14.119  -3.906  0.00  0.00     0.361 C 
ATOM     16  O   UNL d   1      25.094 -14.705  -4.136  0.00  0.00    -0.238 OA
ATOM     17  H   UNL d   1      27.709 -13.766  -2.608  0.00  0.00     0.165 HD
BRANCH  15  18
ATOM     18  O   UNL d   1      26.696 -13.176  -4.715  0.00  0.00    -0.299 OA
BRANCH  18  19
ATOM     19  C   UNL d   1      25.712 -12.242  -5.231  0.00  0.00     0.219 C 
BRANCH  19  20
ATOM     20  C   UNL d   1      25.905 -10.850  -4.662  0.00  0.00    -0.034 A 
ATOM     21  C   UNL d   1      25.815 -10.628  -3.285  0.00  0.00     0.009 A 
ATOM     22  C   UNL d   1      25.830  -9.332  -2.770  0.00  0.00     0.001 A 
ATOM     23  C   UNL d   1      26.054  -8.246  -3.613  0.00  0.00     0.000 A 
ATOM     24  C   UNL d   1      26.238  -8.456  -4.979  0.00  0.00     0.001 A 
ATOM     25  C   UNL d   1      26.163  -9.751  -5.503  0.00  0.00     0.009 A 
ENDBRANCH  19  20
ENDBRANCH  18  19
ENDBRANCH  15  18
ENDBRANCH   1  14
BRANCH   1  26
ATOM     26  C   UNL d   1      25.570 -16.146  -1.597  0.00  0.00     0.045 C 
BRANCH  26  27
ATOM     27  C   UNL d   1      24.145 -16.342  -1.057  0.00  0.00     0.113 C 
BRANCH  27  28
ATOM     28  C   UNL d   1      23.930 -17.635  -0.330  0.00  0.00     0.259 C 
ATOM     29  O   UNL d   1      24.854 -18.386  -0.041  0.00  0.00    -0.265 OA
BRANCH  28  30
ATOM     30  O   UNL d   1      22.652 -17.931   0.007  0.00  0.00    -0.317 OA
BRANCH  30  31
ATOM     31  C   UNL d   1      21.717 -18.548  -0.905  0.00  0.00     0.217 C 
BRANCH  31  32
ATOM     32  C   UNL d   1      20.596 -19.209  -0.143  0.00  0.00    -0.034 A 
ATOM     33  C   UNL d   1      20.653 -19.343   1.255  0.00  0.00     0.009 A 
ATOM     34  C   UNL d   1      19.682 -20.086   1.930  0.00  0.00     0.001 A 
ATOM     35  C   UNL d   1      18.597 -20.614   1.233  0.00  0.00     0.000 A 
ATOM     36  C   UNL d   1      18.497 -20.427  -0.143  0.00  0.00     0.001 A 
ATOM     37  C   UNL d   1      19.489 -19.728  -0.824  0.00  0.00     0.009 A 
ENDBRANCH  31  32
ENDBRANCH  30  31
ENDBRANCH  28  30
ENDBRANCH  27  28
ENDBRANCH  26  27
ENDBRANCH   1  26
TORSDOF 14
ENDMDL
MODEL 2
REMARK VINA RESULT:    -9.246      2.925      8.854
REMARK INTER + INTRA:         -15.864
REMARK INTER:                 -13.422
REMARK INTRA:                  -2.443
REMARK CONF_INDEPENDENT:        4.176
REMARK UNBOUND:                -2.443
REMARK  14 active torsions:
REMARK  status: ('A' for Active; 'I' for Inactive)
REMARK    1  A    between atoms: C_2  and  C_3 
REMARK    2  A    between atoms: C_2  and  O_29 
REMARK    3  A    between atoms: C_3  and  C_4 
REMARK    4  A    between atoms: C_5  and  C_4 
REMARK    5  A    between atoms: C_5  and  C_17 
REMARK    6  A    between atoms: C_5  and  N_6 
REMARK       I    between atoms: N_6  and  C_7 
REMARK    7  A    between atoms: C_7  and  O_9 
REMARK    8  A    between atoms: O_9  and  C_10 
REMARK    9  A    between atoms: C_10  and  C_11 
REMARK   10  A    between atoms: C_17  and  O_19 
REMARK   11  A    between atoms: O_19  and  C_20 
REMARK   12  A    between atoms: C_23  and  N_24 
REMARK   13  A    between atoms: O_29  and  C_30 
REMARK   14  A    between atoms: C_30  and  C_31 
ROOT
ATOM      1  C   UNL d   1      27.318 -15.492  -1.378  0.00  0.00     0.187 C 
ENDROOT
BRANCH   1   2
ATOM      2  C   UNL d   1      26.943 -16.816  -0.646  0.00  0.00     0.287 C 
ATOM      3  O   UNL d   1      27.463 -17.902  -0.877  0.00  0.00    -0.263 OA
BRANCH   2   4
ATOM      4  O   UNL d   1      25.899 -16.610   0.271  0.00  0.00    -0.277 OA
BRANCH   4   5
ATOM      5  C   UNL d   1      24.640 -17.144  -0.063  0.00  0.00     0.079 A 
ATOM      6  C   UNL d   1      24.449 -18.529  -0.089  0.00  0.00     0.040 A 
ATOM      7  C   UNL d   1      23.240 -19.065  -0.542  0.00  0.00     0.039 A 
ATOM      8  C   UNL d   1      22.204 -18.195  -0.898  0.00  0.00     0.103 A 
ATOM      9  C   UNL d   1      22.401 -16.809  -0.878  0.00  0.00     0.039 A 
ATOM     10  C   UNL d   1      23.628 -16.289  -0.478  0.00  0.00     0.040 A 
BRANCH   8  11
ATOM     11  N   UNL d   1      20.886 -18.732  -1.250  0.00  0.00    -0.116 N 
ATOM     12  O   UNL d   1      20.846 -19.699  -2.025  0.00  0.00    -0.532 OA
ATOM     13  O   UNL d   1      19.892 -18.198  -0.737  0.00  0.00    -0.532 OA
ENDBRANCH   8  11
ENDBRANCH   4   5
ENDBRANCH   2   4
ENDBRANCH   1   2
BRANCH   1  14
ATOM     14  N   UNL d   1      28.120 -14.687  -0.435  0.00  0.00    -0.323 N 
ATOM     15  C   UNL d   1      27.408 -13.851   0.401  0.00  0.00     0.361 C 
ATOM     16  O   UNL d   1      26.298 -13.404   0.093  0.00  0.00    -0.238 OA
ATOM     17  H   UNL d   1      29.021 -15.019  -0.106  0.00  0.00     0.165 HD
BRANCH  15  18
ATOM     18  O   UNL d   1      27.989 -13.675   1.611  0.00  0.00    -0.299 OA
BRANCH  18  19
ATOM     19  C   UNL d   1      27.031 -13.626   2.700  0.00  0.00     0.219 C 
BRANCH  19  20
ATOM     20  C   UNL d   1      27.714 -13.627   4.053  0.00  0.00    -0.034 A 
ATOM     21  C   UNL d   1      28.224 -12.442   4.591  0.00  0.00     0.009 A 
ATOM     22  C   UNL d   1      28.993 -12.461   5.754  0.00  0.00     0.001 A 
ATOM     23  C   UNL d   1      29.164 -13.649   6.462  0.00  0.00     0.000 A 
ATOM     24  C   UNL d   1      28.586 -14.826   5.989  0.00  0.00     0.001 A 
ATOM     25  C   UNL d   1      27.864 -14.817   4.790  0.00  0.00     0.009 A 
ENDBRANCH  19  20
ENDBRANCH  18  19
ENDBRANCH  15  18
ENDBRANCH   1  14
BRANCH   1  26
ATOM     26  C   UNL d   1      28.040 -15.753  -2.717  0.00  0.00     0.045 C 
BRANCH  26  27
ATOM     27  C   UNL d   1      27.786 -14.655  -3.761  0.00  0.00     0.113 C 
BRANCH  27  28
ATOM     28  C   UNL d   1      26.774 -15.016  -4.806  0.00  0.00     0.259 C 
ATOM     29  O   UNL d   1      27.094 -15.361  -5.938  0.00  0.00    -0.265 OA
BRANCH  28  30
ATOM     30  O   UNL d   1      25.474 -14.955  -4.431  0.00  0.00    -0.317 OA
BRANCH  30  31
ATOM     31  C   UNL d   1      24.967 -13.979  -3.494  0.00  0.00     0.217 C 
BRANCH  31  32
ATOM     32  C   UNL d   1      25.540 -12.616  -3.793  0.00  0.00    -0.034 A 
ATOM     33  C   UNL d   1      25.530 -12.099  -5.099  0.00  0.00     0.009 A 
ATOM     34  C   UNL d   1      26.194 -10.903  -5.387  0.00  0.00     0.001 A 
ATOM     35  C   UNL d   1      26.783 -10.168  -4.360  0.00  0.00     0.000 A 
ATOM     36  C   UNL d   1      26.738 -10.640  -3.052  0.00  0.00     0.001 A 
ATOM     37  C   UNL d   1      26.118 -11.854  -2.771  0.00  0.00     0.009 A 
ENDBRANCH  31  32
ENDBRANCH  30  31
ENDBRANCH  28  30
ENDBRANCH  27  28
ENDBRANCH  26  27
ENDBRANCH   1  26
TORSDOF 14
ENDMDL
MODEL 3
REMARK VINA RESULT:    -9.159      3.981      8.466
REMARK INTER + INTRA:         -15.997
REMARK INTER:                 -13.335
REMARK INTRA:                  -2.661
REMARK CONF_INDEPENDENT:        4.176
REMARK UNBOUND:                -2.661
REMARK  14 active torsions:
REMARK  status: ('A' for Active; 'I' for Inactive)
REMARK    1  A    between atoms: C_2  and  C_3 
REMARK    2  A    between atoms: C_2  and  O_29 
REMARK    3  A    between atoms: C_3  and  C_4 
REMARK    4  A    between atoms: C_5  and  C_4 
REMARK    5  A    between atoms: C_5  and  C_17 
REMARK    6  A    between atoms: C_5  and  N_6 
REMARK       I    between atoms: N_6  and  C_7 
REMARK    7  A    between atoms: C_7  and  O_9 
REMARK    8  A    between atoms: O_9  and  C_10 
REMARK    9  A    between atoms: C_10  and  C_11 
REMARK   10  A    between atoms: C_17  and  O_19 
REMARK   11  A    between atoms: O_19  and  C_20 
REMARK   12  A    between atoms: C_23  and  N_24 
REMARK   13  A    between atoms: O_29  and  C_30 
REMARK   14  A    between atoms: C_30  and  C_31 
ROOT
ATOM      1  C   UNL d   1      26.249 -15.666  -2.182  0.00  0.00     0.187 C 
ENDROOT
BRANCH   1   2
ATOM      2  C   UNL d   1      26.014 -15.633  -0.641  0.00  0.00     0.287 C 
ATOM      3  O   UNL d   1      26.089 -14.621   0.046  0.00  0.00    -0.263 OA
BRANCH   2   4
ATOM      4  O   UNL d   1      25.760 -16.920  -0.139  0.00  0.00    -0.277 OA
BRANCH   4   5
ATOM      5  C   UNL d   1      24.458 -17.428  -0.310  0.00  0.00     0.079 A 
ATOM      6  C   UNL d   1      24.228 -18.806  -0.248  0.00  0.00     0.040 A 
ATOM      7  C   UNL d   1      22.963 -19.323  -0.542  0.00  0.00     0.039 A 
ATOM      8  C   UNL d   1      21.918 -18.438  -0.826  0.00  0.00     0.103 A 
ATOM      9  C   UNL d   1      22.153 -17.059  -0.894  0.00  0.00     0.039 A 
ATOM     10  C   UNL d   1      23.430 -16.561  -0.654  0.00  0.00     0.040 A 
BRANCH   8  11
ATOM     11  N   UNL d   1      20.556 -18.948  -1.008  0.00  0.00    -0.116 N 
ATOM     12  O   UNL d   1      19.689 -18.576  -0.203  0.00  0.00    -0.532 OA
ATOM     13  O   UNL d   1      20.348 -19.704  -1.967  0.00  0.00    -0.532 OA
ENDBRANCH   8  11
ENDBRANCH   4   5
ENDBRANCH   2   4
ENDBRANCH   1   2
BRANCH   1  14
ATOM     14  N   UNL d   1      26.099 -14.282  -2.673  0.00  0.00    -0.323 N 
ATOM     15  C   UNL d   1      25.310 -14.122  -3.795  0.00  0.00     0.361 C 
ATOM     16  O   UNL d   1      25.157 -15.026  -4.623  0.00  0.00    -0.238 OA
ATOM     17  H   UNL d   1      26.167 -13.495  -2.036  0.00  0.00     0.165 HD
BRANCH  15  18
ATOM     18  O   UNL d   1      24.648 -12.942  -3.826  0.00  0.00    -0.299 OA
BRANCH  18  19
ATOM     19  C   UNL d   1      25.534 -11.793  -3.794  0.00  0.00     0.219 C 
BRANCH  19  20
ATOM     20  C   UNL d   1      26.381 -11.699  -5.048  0.00  0.00    -0.034 A 
ATOM     21  C   UNL d   1      25.905 -11.025  -6.177  0.00  0.00     0.009 A 
ATOM     22  C   UNL d   1      26.605 -11.072  -7.382  0.00  0.00     0.001 A 
ATOM     23  C   UNL d   1      27.850 -11.694  -7.445  0.00  0.00     0.000 A 
ATOM     24  C   UNL d   1      28.383 -12.294  -6.306  0.00  0.00     0.001 A 
ATOM     25  C   UNL d   1      27.653 -12.298  -5.112  0.00  0.00     0.009 A 
ENDBRANCH  19  20
ENDBRANCH  18  19
ENDBRANCH  15  18
ENDBRANCH   1  14
BRANCH   1  26
ATOM     26  C   UNL d   1      27.610 -16.294  -2.548  0.00  0.00     0.045 C 
BRANCH  26  27
ATOM     27  C   UNL d   1      28.505 -15.351  -3.369  0.00  0.00     0.113 C 
BRANCH  27  28
ATOM     28  C   UNL d   1      28.456 -15.583  -4.849  0.00  0.00     0.259 C 
ATOM     29  O   UNL d   1      27.431 -15.430  -5.503  0.00  0.00    -0.265 OA
BRANCH  28  30
ATOM     30  O   UNL d   1      29.616 -15.961  -5.437  0.00  0.00    -0.317 OA
BRANCH  30  31
ATOM     31  C   UNL d   1      30.352 -17.141  -5.047  0.00  0.00     0.217 C 
BRANCH  31  32
ATOM     32  C   UNL d   1      30.757 -17.935  -6.264  0.00  0.00    -0.034 A 
ATOM     33  C   UNL d   1      30.401 -19.288  -6.395  0.00  0.00     0.009 A 
ATOM     34  C   UNL d   1      30.907 -20.049  -7.452  0.00  0.00     0.001 A 
ATOM     35  C   UNL d   1      31.686 -19.444  -8.437  0.00  0.00     0.000 A 
ATOM     36  C   UNL d   1      31.987 -18.088  -8.350  0.00  0.00     0.001 A 
ATOM     37  C   UNL d   1      31.523 -17.340  -7.272  0.00  0.00     0.009 A 
ENDBRANCH  31  32
ENDBRANCH  30  31
ENDBRANCH  28  30
ENDBRANCH  27  28
ENDBRANCH  26  27
ENDBRANCH   1  26
TORSDOF 14
ENDMDL
MODEL 4
REMARK VINA RESULT:    -8.701      2.028      2.759
REMARK INTER + INTRA:         -15.882
REMARK INTER:                 -12.878
REMARK INTRA:                  -3.004
REMARK CONF_INDEPENDENT:        4.176
REMARK UNBOUND:                -3.004
REMARK  14 active torsions:
REMARK  status: ('A' for Active; 'I' for Inactive)
REMARK    1  A    between atoms: C_2  and  C_3 
REMARK    2  A    between atoms: C_2  and  O_29 
REMARK    3  A    between atoms: C_3  and  C_4 
REMARK    4  A    between atoms: C_5  and  C_4 
REMARK    5  A    between atoms: C_5  and  C_17 
REMARK    6  A    between atoms: C_5  and  N_6 
REMARK       I    between atoms: N_6  and  C_7 
REMARK    7  A    between atoms: C_7  and  O_9 
REMARK    8  A    between atoms: O_9  and  C_10 
REMARK    9  A    between atoms: C_10  and  C_11 
REMARK   10  A    between atoms: C_17  and  O_19 
REMARK   11  A    between atoms: O_19  and  C_20 
REMARK   12  A    between atoms: C_23  and  N_24 
REMARK   13  A    between atoms: O_29  and  C_30 
REMARK   14  A    between atoms: C_30  and  C_31 
ROOT
ATOM      1  C   UNL d   1      25.804 -15.856  -0.839  0.00  0.00     0.187 C 
ENDROOT
BRANCH   1   2
ATOM      2  C   UNL d   1      27.265 -15.623  -1.330  0.00  0.00     0.287 C 
ATOM      3  O   UNL d   1      27.679 -15.943  -2.438  0.00  0.00    -0.263 OA
BRANCH   2   4
ATOM      4  O   UNL d   1      28.054 -15.050  -0.318  0.00  0.00    -0.277 OA
BRANCH   4   5
ATOM      5  C   UNL d   1      27.606 -13.836   0.232  0.00  0.00     0.079 A 
ATOM      6  C   UNL d   1      27.836 -12.632  -0.443  0.00  0.00     0.040 A 
ATOM      7  C   UNL d   1      27.506 -11.413   0.158  0.00  0.00     0.039 A 
ATOM      8  C   UNL d   1      26.879 -11.421   1.408  0.00  0.00     0.103 A 
ATOM      9  C   UNL d   1      26.657 -12.627   2.084  0.00  0.00     0.039 A 
ATOM     10  C   UNL d   1      27.040 -13.831   1.500  0.00  0.00     0.040 A 
BRANCH   8  11
ATOM     11  N   UNL d   1      26.406 -10.165   1.998  0.00  0.00    -0.116 N 
ATOM     12  O   UNL d   1      26.216 -10.140   3.223  0.00  0.00    -0.532 OA
ATOM     13  O   UNL d   1      26.244  -9.199   1.240  0.00  0.00    -0.532 OA
ENDBRANCH   8  11
ENDBRANCH   4   5
ENDBRANCH   2   4
ENDBRANCH   1   2
BRANCH   1  14
ATOM     14  N   UNL d   1      24.917 -15.637  -2.000  0.00  0.00    -0.323 N 
ATOM     15  C   UNL d   1      25.135 -14.476  -2.715  0.00  0.00     0.361 C 
ATOM     16  O   UNL d   1      25.633 -13.471  -2.198  0.00  0.00    -0.238 OA
ATOM     17  H   UNL d   1      24.512 -16.422  -2.499  0.00  0.00     0.165 HD
BRANCH  15  18
ATOM     18  O   UNL d   1      24.861 -14.596  -4.035  0.00  0.00    -0.299 OA
BRANCH  18  19
ATOM     19  C   UNL d   1      25.835 -15.406  -4.746  0.00  0.00     0.219 C 
BRANCH  19  20
ATOM     20  C   UNL d   1      27.020 -14.583  -5.210  0.00  0.00    -0.034 A 
ATOM     21  C   UNL d   1      26.946 -13.187  -5.242  0.00  0.00     0.009 A 
ATOM     22  C   UNL d   1      27.968 -12.433  -5.818  0.00  0.00     0.001 A 
ATOM     23  C   UNL d   1      29.133 -13.055  -6.262  0.00  0.00     0.000 A 
ATOM     24  C   UNL d   1      29.263 -14.439  -6.154  0.00  0.00     0.001 A 
ATOM     25  C   UNL d   1      28.213 -15.201  -5.631  0.00  0.00     0.009 A 
ENDBRANCH  19  20
ENDBRANCH  18  19
ENDBRANCH  15  18
ENDBRANCH   1  14
BRANCH   1  26
ATOM     26  C   UNL d   1      25.622 -17.245  -0.194  0.00  0.00     0.045 C 
BRANCH  26  27
ATOM     27  C   UNL d   1      24.147 -17.627   0.007  0.00  0.00     0.113 C 
BRANCH  27  28
ATOM     28  C   UNL d   1      23.519 -18.312  -1.169  0.00  0.00     0.259 C 
ATOM     29  O   UNL d   1      23.961 -18.200  -2.306  0.00  0.00    -0.265 OA
BRANCH  28  30
ATOM     30  O   UNL d   1      22.434 -19.081  -0.909  0.00  0.00    -0.317 OA
BRANCH  30  31
ATOM     31  C   UNL d   1      21.078 -18.593  -1.007  0.00  0.00     0.217 C 
BRANCH  31  32
ATOM     32  C   UNL d   1      20.182 -19.331  -0.044  0.00  0.00    -0.034 A 
ATOM     33  C   UNL d   1      20.444 -19.325   1.336  0.00  0.00     0.009 A 
ATOM     34  C   UNL d   1      19.696 -20.131   2.197  0.00  0.00     0.001 A 
ATOM     35  C   UNL d   1      18.620 -20.868   1.705  0.00  0.00     0.000 A 
ATOM     36  C   UNL d   1      18.311 -20.825   0.348  0.00  0.00     0.001 A 
ATOM     37  C   UNL d   1      19.086 -20.061  -0.518  0.00  0.00     0.009 A 
ENDBRANCH  31  32
ENDBRANCH  30  31
ENDBRANCH  28  30
ENDBRANCH  27  28
ENDBRANCH  26  27
ENDBRANCH   1  26
TORSDOF 14
ENDMDL
MODEL 5
REMARK VINA RESULT:    -8.679      3.879      8.177
REMARK INTER + INTRA:         -16.268
REMARK INTER:                 -12.855
REMARK INTRA:                  -3.413
REMARK CONF_INDEPENDENT:        4.176
REMARK UNBOUND:                -3.413
REMARK  14 active torsions:
REMARK  status: ('A' for Active; 'I' for Inactive)
REMARK    1  A    between atoms: C_2  and  C_3 
REMARK    2  A    between atoms: C_2  and  O_29 
REMARK    3  A    between atoms: C_3  and  C_4 
REMARK    4  A    between atoms: C_5  and  C_4 
REMARK    5  A    between atoms: C_5  and  C_17 
REMARK    6  A    between atoms: C_5  and  N_6 
REMARK       I    between atoms: N_6  and  C_7 
REMARK    7  A    between atoms: C_7  and  O_9 
REMARK    8  A    between atoms: O_9  and  C_10 
REMARK    9  A    between atoms: C_10  and  C_11 
REMARK   10  A    between atoms: C_17  and  O_19 
REMARK   11  A    between atoms: O_19  and  C_20 
REMARK   12  A    between atoms: C_23  and  N_24 
REMARK   13  A    between atoms: O_29  and  C_30 
REMARK   14  A    between atoms: C_30  and  C_31 
ROOT
ATOM      1  C   UNL d   1      27.113 -16.699  -2.033  0.00  0.00     0.187 C 
ENDROOT
BRANCH   1   2
ATOM      2  C   UNL d   1      26.791 -17.260  -0.614  0.00  0.00     0.287 C 
ATOM      3  O   UNL d   1      27.414 -18.167  -0.074  0.00  0.00    -0.263 OA
BRANCH   2   4
ATOM      4  O   UNL d   1      25.665 -16.627  -0.062  0.00  0.00    -0.277 OA
BRANCH   4   5
ATOM      5  C   UNL d   1      24.405 -17.157  -0.397  0.00  0.00     0.079 A 
ATOM      6  C   UNL d   1      23.337 -16.300  -0.686  0.00  0.00     0.040 A 
ATOM      7  C   UNL d   1      22.056 -16.817  -0.894  0.00  0.00     0.039 A 
ATOM      8  C   UNL d   1      21.874 -18.204  -0.882  0.00  0.00     0.103 A 
ATOM      9  C   UNL d   1      22.943 -19.058  -0.585  0.00  0.00     0.039 A 
ATOM     10  C   UNL d   1      24.203 -18.528  -0.324  0.00  0.00     0.040 A 
BRANCH   8  11
ATOM     11  N   UNL d   1      20.568 -18.775  -1.227  0.00  0.00    -0.116 N 
ATOM     12  O   UNL d   1      19.565 -18.284  -0.689  0.00  0.00    -0.532 OA
ATOM     13  O   UNL d   1      20.545 -19.702  -2.049  0.00  0.00    -0.532 OA
ENDBRANCH   8  11
ENDBRANCH   4   5
ENDBRANCH   2   4
ENDBRANCH   1   2
BRANCH   1  14
ATOM     14  N   UNL d   1      26.382 -15.423  -2.171  0.00  0.00    -0.323 N 
ATOM     15  C   UNL d   1      25.560 -15.316  -3.275  0.00  0.00     0.361 C 
ATOM     16  O   UNL d   1      25.769 -15.953  -4.313  0.00  0.00    -0.238 OA
ATOM     17  H   UNL d   1      26.138 -14.874  -1.354  0.00  0.00     0.165 HD
BRANCH  15  18
ATOM     18  O   UNL d   1      24.465 -14.549  -3.061  0.00  0.00    -0.299 OA
BRANCH  18  19
ATOM     19  C   UNL d   1      24.393 -13.403  -3.948  0.00  0.00     0.219 C 
BRANCH  19  20
ATOM     20  C   UNL d   1      25.703 -12.642  -3.995  0.00  0.00    -0.034 A 
ATOM     21  C   UNL d   1      26.332 -12.240  -2.813  0.00  0.00     0.009 A 
ATOM     22  C   UNL d   1      27.447 -11.404  -2.849  0.00  0.00     0.001 A 
ATOM     23  C   UNL d   1      28.022 -11.055  -4.068  0.00  0.00     0.000 A 
ATOM     24  C   UNL d   1      27.462 -11.521  -5.256  0.00  0.00     0.001 A 
ATOM     25  C   UNL d   1      26.308 -12.311  -5.222  0.00  0.00     0.009 A 
ENDBRANCH  19  20
ENDBRANCH  18  19
ENDBRANCH  15  18
ENDBRANCH   1  14
BRANCH   1  26
ATOM     26  C   UNL d   1      28.631 -16.555  -2.270  0.00  0.00     0.045 C 
BRANCH  26  27
ATOM     27  C   UNL d   1      28.999 -15.283  -3.050  0.00  0.00     0.113 C 
BRANCH  27  28
ATOM     28  C   UNL d   1      29.040 -15.460  -4.538  0.00  0.00     0.259 C 
ATOM     29  O   UNL d   1      28.032 -15.404  -5.233  0.00  0.00    -0.265 OA
BRANCH  28  30
ATOM     30  O   UNL d   1      30.260 -15.674  -5.086  0.00  0.00    -0.317 OA
BRANCH  30  31
ATOM     31  C   UNL d   1      30.447 -16.155  -6.435  0.00  0.00     0.217 C 
BRANCH  31  32
ATOM     32  C   UNL d   1      30.633 -17.652  -6.439  0.00  0.00    -0.034 A 
ATOM     33  C   UNL d   1      30.997 -18.332  -7.613  0.00  0.00     0.009 A 
ATOM     34  C   UNL d   1      31.020 -19.729  -7.639  0.00  0.00     0.001 A 
ATOM     35  C   UNL d   1      30.780 -20.452  -6.472  0.00  0.00     0.000 A 
ATOM     36  C   UNL d   1      30.485 -19.783  -5.288  0.00  0.00     0.001 A 
ATOM     37  C   UNL d   1      30.414 -18.393  -5.272  0.00  0.00     0.009 A 
ENDBRANCH  31  32
ENDBRANCH  30  31
ENDBRANCH  28  30
ENDBRANCH  27  28
ENDBRANCH  26  27
ENDBRANCH   1  26
TORSDOF 14
ENDMDL
MODEL 6
REMARK VINA RESULT:    -8.564      3.055      7.621
REMARK INTER + INTRA:         -16.710
REMARK INTER:                 -12.740
REMARK INTRA:                  -3.970
REMARK CONF_INDEPENDENT:        4.176
REMARK UNBOUND:                -3.970
REMARK  14 active torsions:
REMARK  status: ('A' for Active; 'I' for Inactive)
REMARK    1  A    between atoms: C_2  and  C_3 
REMARK    2  A    between atoms: C_2  and  O_29 
REMARK    3  A    between atoms: C_3  and  C_4 
REMARK    4  A    between atoms: C_5  and  C_4 
REMARK    5  A    between atoms: C_5  and  C_17 
REMARK    6  A    between atoms: C_5  and  N_6 
REMARK       I    between atoms: N_6  and  C_7 
REMARK    7  A    between atoms: C_7  and  O_9 
REMARK    8  A    between atoms: O_9  and  C_10 
REMARK    9  A    between atoms: C_10  and  C_11 
REMARK   10  A    between atoms: C_17  and  O_19 
REMARK   11  A    between atoms: O_19  and  C_20 
REMARK   12  A    between atoms: C_23  and  N_24 
REMARK   13  A    between atoms: O_29  and  C_30 
REMARK   14  A    between atoms: C_30  and  C_31 
ROOT
ATOM      1  C   UNL d   1      27.637 -16.475  -1.329  0.00  0.00     0.187 C 
ENDROOT
BRANCH   1   2
ATOM      2  C   UNL d   1      26.887 -17.432  -0.354  0.00  0.00     0.287 C 
ATOM      3  O   UNL d   1      27.213 -18.595  -0.142  0.00  0.00    -0.263 OA
BRANCH   2   4
ATOM      4  O   UNL d   1      25.761 -16.805   0.206  0.00  0.00    -0.277 OA
BRANCH   4   5
ATOM      5  C   UNL d   1      24.499 -17.270  -0.206  0.00  0.00     0.079 A 
ATOM      6  C   UNL d   1      23.484 -16.360  -0.522  0.00  0.00     0.040 A 
ATOM      7  C   UNL d   1      22.194 -16.816  -0.809  0.00  0.00     0.039 A 
ATOM      8  C   UNL d   1      21.953 -18.193  -0.846  0.00  0.00     0.103 A 
ATOM      9  C   UNL d   1      22.969 -19.101  -0.522  0.00  0.00     0.039 A 
ATOM     10  C   UNL d   1      24.235 -18.633  -0.184  0.00  0.00     0.040 A 
BRANCH   8  11
ATOM     11  N   UNL d   1      20.644 -18.697  -1.272  0.00  0.00    -0.116 N 
ATOM     12  O   UNL d   1      19.639 -18.078  -0.894  0.00  0.00    -0.532 OA
ATOM     13  O   UNL d   1      20.623 -19.700  -1.999  0.00  0.00    -0.532 OA
ENDBRANCH   8  11
ENDBRANCH   4   5
ENDBRANCH   2   4
ENDBRANCH   1   2
BRANCH   1  14
ATOM     14  N   UNL d   1      26.622 -15.588  -1.933  0.00  0.00    -0.323 N 
ATOM     15  C   UNL d   1      26.620 -15.525  -3.312  0.00  0.00     0.361 C 
ATOM     16  O   UNL d   1      27.636 -15.744  -3.980  0.00  0.00    -0.238 OA
ATOM     17  H   UNL d   1      25.746 -15.404  -1.457  0.00  0.00     0.165 HD
BRANCH  15  18
ATOM     18  O   UNL d   1      25.391 -15.319  -3.840  0.00  0.00    -0.299 OA
BRANCH  18  19
ATOM     19  C   UNL d   1      24.737 -14.136  -3.313  0.00  0.00     0.219 C 
BRANCH  19  20
ATOM     20  C   UNL d   1      25.554 -12.883  -3.559  0.00  0.00    -0.034 A 
ATOM     21  C   UNL d   1      26.325 -12.326  -2.534  0.00  0.00     0.009 A 
ATOM     22  C   UNL d   1      26.949 -11.091  -2.703  0.00  0.00     0.001 A 
ATOM     23  C   UNL d   1      26.910 -10.450  -3.939  0.00  0.00     0.000 A 
ATOM     24  C   UNL d   1      26.222 -11.035  -5.001  0.00  0.00     0.001 A 
ATOM     25  C   UNL d   1      25.546 -12.246  -4.813  0.00  0.00     0.009 A 
ENDBRANCH  19  20
ENDBRANCH  18  19
ENDBRANCH  15  18
ENDBRANCH   1  14
BRANCH   1  26
ATOM     26  C   UNL d   1      28.774 -15.703  -0.625  0.00  0.00     0.045 C 
BRANCH  26  27
ATOM     27  C   UNL d   1      28.440 -14.221  -0.394  0.00  0.00     0.113 C 
BRANCH  27  28
ATOM     28  C   UNL d   1      27.267 -13.984   0.509  0.00  0.00     0.259 C 
ATOM     29  O   UNL d   1      26.118 -13.920   0.088  0.00  0.00    -0.265 OA
BRANCH  28  30
ATOM     30  O   UNL d   1      27.540 -13.855   1.829  0.00  0.00    -0.317 OA
BRANCH  30  31
ATOM     31  C   UNL d   1      28.881 -13.715   2.348  0.00  0.00     0.217 C 
BRANCH  31  32
ATOM     32  C   UNL d   1      28.860 -13.678   3.856  0.00  0.00    -0.034 A 
ATOM     33  C   UNL d   1      29.804 -14.396   4.610  0.00  0.00     0.009 A 
ATOM     34  C   UNL d   1      29.683 -14.472   6.000  0.00  0.00     0.001 A 
ATOM     35  C   UNL d   1      28.683 -13.754   6.654  0.00  0.00     0.000 A 
ATOM     36  C   UNL d   1      27.785 -12.985   5.919  0.00  0.00     0.001 A 
ATOM     37  C   UNL d   1      27.875 -12.947   4.531  0.00  0.00     0.009 A 
ENDBRANCH  31  32
ENDBRANCH  30  31
ENDBRANCH  28  30
ENDBRANCH  27  28
ENDBRANCH  26  27
ENDBRANCH   1  26
TORSDOF 14
ENDMDL
MODEL 7
REMARK VINA RESULT:    -8.094      2.120      7.033
REMARK INTER + INTRA:         -16.463
REMARK INTER:                 -12.270
REMARK INTRA:                  -4.193
REMARK CONF_INDEPENDENT:        4.176
REMARK UNBOUND:                -4.193
REMARK  14 active torsions:
REMARK  status: ('A' for Active; 'I' for Inactive)
REMARK    1  A    between atoms: C_2  and  C_3 
REMARK    2  A    between atoms: C_2  and  O_29 
REMARK    3  A    between atoms: C_3  and  C_4 
REMARK    4  A    between atoms: C_5  and  C_4 
REMARK    5  A    between atoms: C_5  and  C_17 
REMARK    6  A    between atoms: C_5  and  N_6 
REMARK       I    between atoms: N_6  and  C_7 
REMARK    7  A    between atoms: C_7  and  O_9 
REMARK    8  A    between atoms: O_9  and  C_10 
REMARK    9  A    between atoms: C_10  and  C_11 
REMARK   10  A    between atoms: C_17  and  O_19 
REMARK   11  A    between atoms: O_19  and  C_20 
REMARK   12  A    between atoms: C_23  and  N_24 
REMARK   13  A    between atoms: O_29  and  C_30 
REMARK   14  A    between atoms: C_30  and  C_31 
ROOT
ATOM      1  C   UNL d   1      28.214 -14.700  -1.817  0.00  0.00     0.187 C 
ENDROOT
BRANCH   1   2
ATOM      2  C   UNL d   1      27.409 -13.760  -0.869  0.00  0.00     0.287 C 
ATOM      3  O   UNL d   1      26.192 -13.802  -0.728  0.00  0.00    -0.263 OA
BRANCH   2   4
ATOM      4  O   UNL d   1      28.253 -12.829  -0.242  0.00  0.00    -0.277 OA
BRANCH   4   5
ATOM      5  C   UNL d   1      27.647 -11.683   0.305  0.00  0.00     0.079 A 
ATOM      6  C   UNL d   1      27.797 -10.442  -0.322  0.00  0.00     0.040 A 
ATOM      7  C   UNL d   1      27.305  -9.282   0.284  0.00  0.00     0.039 A 
ATOM      8  C   UNL d   1      26.599  -9.392   1.486  0.00  0.00     0.103 A 
ATOM      9  C   UNL d   1      26.457 -10.635   2.115  0.00  0.00     0.039 A 
ATOM     10  C   UNL d   1      26.999 -11.775   1.530  0.00  0.00     0.040 A 
BRANCH   8  11
ATOM     11  N   UNL d   1      25.961  -8.210   2.072  0.00  0.00    -0.116 N 
ATOM     12  O   UNL d   1      26.280  -7.898   3.229  0.00  0.00    -0.532 OA
ATOM     13  O   UNL d   1      25.157  -7.582   1.369  0.00  0.00    -0.532 OA
ENDBRANCH   8  11
ENDBRANCH   4   5
ENDBRANCH   2   4
ENDBRANCH   1   2
BRANCH   1  14
ATOM     14  N   UNL d   1      27.496 -15.991  -1.861  0.00  0.00    -0.323 N 
ATOM     15  C   UNL d   1      28.110 -17.043  -1.212  0.00  0.00     0.361 C 
ATOM     16  O   UNL d   1      29.335 -17.093  -1.055  0.00  0.00    -0.238 OA
ATOM     17  H   UNL d   1      26.485 -16.019  -1.942  0.00  0.00     0.165 HD
BRANCH  15  18
ATOM     18  O   UNL d   1      27.238 -17.932  -0.680  0.00  0.00    -0.299 OA
BRANCH  18  19
ATOM     19  C   UNL d   1      26.305 -17.323   0.250  0.00  0.00     0.219 C 
BRANCH  19  20
ATOM     20  C   UNL d   1      24.869 -17.467  -0.218  0.00  0.00    -0.034 A 
ATOM     21  C   UNL d   1      24.091 -16.335  -0.477  0.00  0.00     0.009 A 
ATOM     22  C   UNL d   1      22.729 -16.455  -0.750  0.00  0.00     0.001 A 
ATOM     23  C   UNL d   1      22.150 -17.715  -0.885  0.00  0.00     0.000 A 
ATOM     24  C   UNL d   1      22.931 -18.858  -0.720  0.00  0.00     0.001 A 
ATOM     25  C   UNL d   1      24.285 -18.736  -0.388  0.00  0.00     0.009 A 
ENDBRANCH  19  20
ENDBRANCH  18  19
ENDBRANCH  15  18
ENDBRANCH   1  14
BRANCH   1  26
ATOM     26  C   UNL d   1      28.421 -14.077  -3.214  0.00  0.00     0.045 C 
BRANCH  26  27
ATOM     27  C   UNL d   1      28.125 -15.057  -4.360  0.00  0.00     0.113 C 
BRANCH  27  28
ATOM     28  C   UNL d   1      26.668 -15.221  -4.674  0.00  0.00     0.259 C 
ATOM     29  O   UNL d   1      26.273 -15.613  -5.766  0.00  0.00    -0.265 OA
BRANCH  28  30
ATOM     30  O   UNL d   1      25.801 -14.922  -3.678  0.00  0.00    -0.317 OA
BRANCH  30  31
ATOM     31  C   UNL d   1      24.803 -13.883  -3.784  0.00  0.00     0.217 C 
BRANCH  31  32
ATOM     32  C   UNL d   1      25.455 -12.554  -4.076  0.00  0.00    -0.034 A 
ATOM     33  C   UNL d   1      25.679 -12.135  -5.398  0.00  0.00     0.009 A 
ATOM     34  C   UNL d   1      26.416 -10.974  -5.652  0.00  0.00     0.001 A 
ATOM     35  C   UNL d   1      26.845 -10.175  -4.595  0.00  0.00     0.000 A 
ATOM     36  C   UNL d   1      26.568 -10.549  -3.283  0.00  0.00     0.001 A 
ATOM     37  C   UNL d   1      25.876 -11.729  -3.027  0.00  0.00     0.009 A 
ENDBRANCH  31  32
ENDBRANCH  30  31
ENDBRANCH  28  30
ENDBRANCH  27  28
ENDBRANCH  26  27
ENDBRANCH   1  26
TORSDOF 14
ENDMDL
MODEL 8
REMARK VINA RESULT:    -8.077      2.582      3.755
REMARK INTER + INTRA:         -15.895
REMARK INTER:                 -12.254
REMARK INTRA:                  -3.641
REMARK CONF_INDEPENDENT:        4.176
REMARK UNBOUND:                -3.641
REMARK  14 active torsions:
REMARK  status: ('A' for Active; 'I' for Inactive)
REMARK    1  A    between atoms: C_2  and  C_3 
REMARK    2  A    between atoms: C_2  and  O_29 
REMARK    3  A    between atoms: C_3  and  C_4 
REMARK    4  A    between atoms: C_5  and  C_4 
REMARK    5  A    between atoms: C_5  and  C_17 
REMARK    6  A    between atoms: C_5  and  N_6 
REMARK       I    between atoms: N_6  and  C_7 
REMARK    7  A    between atoms: C_7  and  O_9 
REMARK    8  A    between atoms: O_9  and  C_10 
REMARK    9  A    between atoms: C_10  and  C_11 
REMARK   10  A    between atoms: C_17  and  O_19 
REMARK   11  A    between atoms: O_19  and  C_20 
REMARK   12  A    between atoms: C_23  and  N_24 
REMARK   13  A    between atoms: O_29  and  C_30 
REMARK   14  A    between atoms: C_30  and  C_31 
ROOT
ATOM      1  C   UNL d   1      26.467 -13.769  -1.451  0.00  0.00     0.187 C 
ENDROOT
BRANCH   1   2
ATOM      2  C   UNL d   1      27.680 -12.808  -1.641  0.00  0.00     0.287 C 
ATOM      3  O   UNL d   1      28.105 -12.443  -2.731  0.00  0.00    -0.263 OA
BRANCH   2   4
ATOM      4  O   UNL d   1      28.250 -12.462  -0.405  0.00  0.00    -0.277 OA
BRANCH   4   5
ATOM      5  C   UNL d   1      27.726 -11.330   0.246  0.00  0.00     0.079 A 
ATOM      6  C   UNL d   1      28.029 -10.047  -0.222  0.00  0.00     0.040 A 
ATOM      7  C   UNL d   1      27.616  -8.920   0.494  0.00  0.00     0.039 A 
ATOM      8  C   UNL d   1      26.837  -9.094   1.643  0.00  0.00     0.103 A 
ATOM      9  C   UNL d   1      26.542 -10.380   2.113  0.00  0.00     0.039 A 
ATOM     10  C   UNL d   1      27.005 -11.495   1.422  0.00  0.00     0.040 A 
BRANCH   8  11
ATOM     11  N   UNL d   1      26.283  -7.927   2.336  0.00  0.00    -0.116 N 
ATOM     12  O   UNL d   1      25.449  -7.239   1.729  0.00  0.00    -0.532 OA
ATOM     13  O   UNL d   1      26.667  -7.710   3.494  0.00  0.00    -0.532 OA
ENDBRANCH   8  11
ENDBRANCH   4   5
ENDBRANCH   2   4
ENDBRANCH   1   2
BRANCH   1  14
ATOM     14  N   UNL d   1      26.349 -14.569  -2.688  0.00  0.00    -0.323 N 
ATOM     15  C   UNL d   1      25.125 -14.518  -3.324  0.00  0.00     0.361 C 
ATOM     16  O   UNL d   1      24.078 -14.280  -2.714  0.00  0.00    -0.238 OA
ATOM     17  H   UNL d   1      27.164 -14.761  -3.261  0.00  0.00     0.165 HD
BRANCH  15  18
ATOM     18  O   UNL d   1      25.211 -14.637  -4.670  0.00  0.00    -0.299 OA
BRANCH  18  19
ATOM     19  C   UNL d   1      26.241 -15.568  -5.093  0.00  0.00     0.219 C 
BRANCH  19  20
ATOM     20  C   UNL d   1      27.520 -14.854  -5.485  0.00  0.00    -0.034 A 
ATOM     21  C   UNL d   1      27.481 -13.540  -5.961  0.00  0.00     0.009 A 
ATOM     22  C   UNL d   1      28.628 -12.934  -6.473  0.00  0.00     0.001 A 
ATOM     23  C   UNL d   1      29.855 -13.590  -6.409  0.00  0.00     0.000 A 
ATOM     24  C   UNL d   1      29.930 -14.867  -5.853  0.00  0.00     0.001 A 
ATOM     25  C   UNL d   1      28.768 -15.497  -5.393  0.00  0.00     0.009 A 
ENDBRANCH  19  20
ENDBRANCH  18  19
ENDBRANCH  15  18
ENDBRANCH   1  14
BRANCH   1  26
ATOM     26  C   UNL d   1      26.606 -14.636  -0.182  0.00  0.00     0.045 C 
BRANCH  26  27
ATOM     27  C   UNL d   1      27.779 -15.626  -0.256  0.00  0.00     0.113 C 
BRANCH  27  28
ATOM     28  C   UNL d   1      27.602 -16.723  -1.262  0.00  0.00     0.259 C 
ATOM     29  O   UNL d   1      27.957 -16.607  -2.429  0.00  0.00    -0.265 OA
BRANCH  28  30
ATOM     30  O   UNL d   1      27.035 -17.867  -0.810  0.00  0.00    -0.317 OA
BRANCH  30  31
ATOM     31  C   UNL d   1      26.205 -17.925   0.370  0.00  0.00     0.217 C 
BRANCH  31  32
ATOM     32  C   UNL d   1      24.747 -17.830  -0.006  0.00  0.00    -0.034 A 
ATOM     33  C   UNL d   1      23.959 -18.985  -0.144  0.00  0.00     0.009 A 
ATOM     34  C   UNL d   1      22.655 -18.892  -0.636  0.00  0.00     0.001 A 
ATOM     35  C   UNL d   1      22.095 -17.643  -0.898  0.00  0.00     0.000 A 
ATOM     36  C   UNL d   1      22.847 -16.489  -0.699  0.00  0.00     0.001 A 
ATOM     37  C   UNL d   1      24.162 -16.583  -0.255  0.00  0.00     0.009 A 
ENDBRANCH  31  32
ENDBRANCH  30  31
ENDBRANCH  28  30
ENDBRANCH  27  28
ENDBRANCH  26  27
ENDBRANCH   1  26
TORSDOF 14
ENDMDL
MODEL 9
REMARK VINA RESULT:    -7.849      2.330      6.744
REMARK INTER + INTRA:         -16.080
REMARK INTER:                 -12.025
REMARK INTRA:                  -4.055
REMARK CONF_INDEPENDENT:        4.176
REMARK UNBOUND:                -4.055
REMARK  14 active torsions:
REMARK  status: ('A' for Active; 'I' for Inactive)
REMARK    1  A    between atoms: C_2  and  C_3 
REMARK    2  A    between atoms: C_2  and  O_29 
REMARK    3  A    between atoms: C_3  and  C_4 
REMARK    4  A    between atoms: C_5  and  C_4 
REMARK    5  A    between atoms: C_5  and  C_17 
REMARK    6  A    between atoms: C_5  and  N_6 
REMARK       I    between atoms: N_6  and  C_7 
REMARK    7  A    between atoms: C_7  and  O_9 
REMARK    8  A    between atoms: O_9  and  C_10 
REMARK    9  A    between atoms: C_10  and  C_11 
REMARK   10  A    between atoms: C_17  and  O_19 
REMARK   11  A    between atoms: O_19  and  C_20 
REMARK   12  A    between atoms: C_23  and  N_24 
REMARK   13  A    between atoms: O_29  and  C_30 
REMARK   14  A    between atoms: C_30  and  C_31 
ROOT
ATOM      1  C   UNL d   1      27.220 -13.196  -3.294  0.00  0.00     0.187 C 
ENDROOT
BRANCH   1   2
ATOM      2  C   UNL d   1      28.159 -12.612  -2.194  0.00  0.00     0.287 C 
ATOM      3  O   UNL d   1      29.199 -12.006  -2.426  0.00  0.00    -0.263 OA
BRANCH   2   4
ATOM      4  O   UNL d   1      27.684 -12.919  -0.908  0.00  0.00    -0.277 OA
BRANCH   4   5
ATOM      5  C   UNL d   1      27.289 -11.838  -0.098  0.00  0.00     0.079 A 
ATOM      6  C   UNL d   1      27.387 -10.528  -0.578  0.00  0.00     0.040 A 
ATOM      7  C   UNL d   1      27.116  -9.446   0.266  0.00  0.00     0.039 A 
ATOM      8  C   UNL d   1      26.679  -9.697   1.570  0.00  0.00     0.103 A 
ATOM      9  C   UNL d   1      26.590 -11.009   2.050  0.00  0.00     0.039 A 
ATOM     10  C   UNL d   1      26.915 -12.076   1.218  0.00  0.00     0.040 A 
BRANCH   8  11
ATOM     11  N   UNL d   1      26.264  -8.584   2.430  0.00  0.00    -0.116 N 
ATOM     12  O   UNL d   1      25.530  -7.717   1.935  0.00  0.00    -0.532 OA
ATOM     13  O   UNL d   1      26.658  -8.588   3.605  0.00  0.00    -0.532 OA
ENDBRANCH   8  11
ENDBRANCH   4   5
ENDBRANCH   2   4
ENDBRANCH   1   2
BRANCH   1  14
ATOM     14  N   UNL d   1      25.875 -13.316  -2.697  0.00  0.00    -0.323 N 
ATOM     15  C   UNL d   1      25.042 -14.255  -3.273  0.00  0.00     0.361 C 
ATOM     16  O   UNL d   1      25.160 -14.602  -4.453  0.00  0.00    -0.238 OA
ATOM     17  H   UNL d   1      25.719 -13.092  -1.720  0.00  0.00     0.165 HD
BRANCH  15  18
ATOM     18  O   UNL d   1      24.183 -14.824  -2.395  0.00  0.00    -0.299 OA
BRANCH  18  19
ATOM     19  C   UNL d   1      24.846 -15.668  -1.417  0.00  0.00     0.219 C 
BRANCH  19  20
ATOM     20  C   UNL d   1      23.978 -16.841  -1.005  0.00  0.00    -0.034 A 
ATOM     21  C   UNL d   1      24.551 -18.088  -0.738  0.00  0.00     0.009 A 
ATOM     22  C   UNL d   1      23.750 -19.207  -0.517  0.00  0.00     0.001 A 
ATOM     23  C   UNL d   1      22.365 -19.073  -0.441  0.00  0.00     0.000 A 
ATOM     24  C   UNL d   1      21.780 -17.820  -0.614  0.00  0.00     0.001 A 
ATOM     25  C   UNL d   1      22.581 -16.708  -0.895  0.00  0.00     0.009 A 
ENDBRANCH  19  20
ENDBRANCH  18  19
ENDBRANCH  15  18
ENDBRANCH   1  14
BRANCH   1  26
ATOM     26  C   UNL d   1      27.237 -12.345  -4.582  0.00  0.00     0.045 C 
BRANCH  26  27
ATOM     27  C   UNL d   1      27.730 -13.125  -5.811  0.00  0.00     0.113 C 
BRANCH  27  28
ATOM     28  C   UNL d   1      28.131 -14.541  -5.526  0.00  0.00     0.259 C 
ATOM     29  O   UNL d   1      27.665 -15.491  -6.142  0.00  0.00    -0.265 OA
BRANCH  28  30
ATOM     30  O   UNL d   1      29.055 -14.719  -4.552  0.00  0.00    -0.317 OA
BRANCH  30  31
ATOM     31  C   UNL d   1      29.389 -16.015  -4.008  0.00  0.00     0.217 C 
BRANCH  31  32
ATOM     32  C   UNL d   1      29.145 -16.040  -2.519  0.00  0.00    -0.034 A 
ATOM     33  C   UNL d   1      28.022 -16.691  -1.982  0.00  0.00     0.009 A 
ATOM     34  C   UNL d   1      27.730 -16.580  -0.620  0.00  0.00     0.001 A 
ATOM     35  C   UNL d   1      28.606 -15.907   0.229  0.00  0.00     0.000 A 
ATOM     36  C   UNL d   1      29.757 -15.317  -0.285  0.00  0.00     0.001 A 
ATOM     37  C   UNL d   1      30.024 -15.386  -1.649  0.00  0.00     0.009 A 
ENDBRANCH  31  32
ENDBRANCH  30  31
ENDBRANCH  28  30
ENDBRANCH  27  28
ENDBRANCH  26  27
ENDBRANCH   1  26
TORSDOF 14
ENDMDL
