MODEL 1
REMARK VINA RESULT:    -9.968      0.000      0.000
REMARK INTER + INTRA:         -15.533
REMARK INTER:                 -13.846
REMARK INTRA:                  -1.687
REMARK CONF_INDEPENDENT:        3.878
REMARK UNBOUND:                -1.687
REMARK  13 active torsions:
REMARK  status: ('A' for Active; 'I' for Inactive)
REMARK    1  A    between atoms: C_2  and  C_3 
REMARK    2  A    between atoms: C_3  and  C_4 
REMARK    3  A    between atoms: C_4  and  C_5 
REMARK    4  A    between atoms: C_5  and  O_6 
REMARK    5  A    between atoms: O_6  and  C_7 
REMARK    6  A    between atoms: C_10  and  C_11 
REMARK    7  A    between atoms: N_12  and  N_13 
REMARK       I    between atoms: N_13  and  C_14 
REMARK    8  A    between atoms: C_14  and  C_16 
REMARK    9  A    between atoms: C_16  and  S_17 
REMARK   10  A    between atoms: S_17  and  C_18 
REMARK   11  A    between atoms: C_21  and  S_22 
REMARK   12  A    between atoms: S_22  and  C_23 
REMARK   13  A    between atoms: C_23  and  C_24 
ROOT
ATOM      1  N   UNL d   1      28.289 -16.198   0.512  0.00  0.00    -0.247 N 
ATOM      2  C   UNL d   1      29.164 -15.854  -0.530  0.00  0.00     0.247 C 
ATOM      3  O   UNL d   1      28.738 -15.615  -1.671  0.00  0.00    -0.271 OA
ATOM      4  H   UNL d   1      28.609 -16.415   1.449  0.00  0.00     0.192 HD
ENDROOT
BRANCH   2   5
ATOM      5  C   UNL d   1      30.680 -15.779  -0.187  0.00  0.00     0.186 C 
BRANCH   5   6
ATOM      6  S   UNL d   1      30.981 -14.267   0.813  0.00  0.00    -0.092 SA
BRANCH   6   7
ATOM      7  C   UNL d   1      29.839 -14.217   2.130  0.00  0.00     0.159 A 
ATOM      8  N   UNL d   1      28.532 -14.275   2.016  0.00  0.00    -0.134 NA
ATOM      9  N   UNL d   1      27.910 -14.262   3.264  0.00  0.00    -0.134 NA
ATOM     10  C   UNL d   1      28.763 -14.179   4.269  0.00  0.00     0.159 A 
ATOM     11  S   UNL d   1      30.395 -14.143   3.767  0.00  0.00    -0.033 SA
BRANCH  10  12
ATOM     12  S   UNL d   1      28.163 -14.081   5.911  0.00  0.00    -0.097 SA
BRANCH  12  13
ATOM     13  C   UNL d   1      29.457 -13.278   6.913  0.00  0.00     0.120 C 
BRANCH  13  14
ATOM     14  C   UNL d   1      29.837 -14.059   8.167  0.00  0.00    -0.049 A 
ATOM     15  C   UNL d   1      28.890 -14.276   9.183  0.00  0.00     0.008 A 
ATOM     16  C   UNL d   1      29.269 -14.836  10.412  0.00  0.00     0.007 A 
ATOM     17  C   UNL d   1      30.582 -15.267  10.623  0.00  0.00    -0.062 A 
ATOM     18  C   UNL d   1      30.976 -15.981  11.880  0.00  0.00     0.048 C 
ATOM     19  C   UNL d   1      31.527 -15.068   9.616  0.00  0.00     0.007 A 
ATOM     20  C   UNL d   1      31.161 -14.457   8.414  0.00  0.00     0.008 A 
ENDBRANCH  13  14
ENDBRANCH  12  13
ENDBRANCH  10  12
ENDBRANCH   6   7
ENDBRANCH   5   6
ENDBRANCH   2   5
BRANCH   1  21
ATOM     21  N   UNL d   1      26.934 -16.268   0.220  0.00  0.00    -0.184 NA
ATOM     22  C   UNL d   1      26.316 -17.409   0.260  0.00  0.00     0.150 C 
BRANCH  22  23
ATOM     23  C   UNL d   1      24.862 -17.528  -0.095  0.00  0.00    -0.017 A 
ATOM     24  C   UNL d   1      24.229 -18.778  -0.103  0.00  0.00     0.015 A 
ATOM     25  C   UNL d   1      22.894 -18.894  -0.536  0.00  0.00     0.037 A 
ATOM     26  C   UNL d   1      22.153 -17.766  -0.900  0.00  0.00     0.068 A 
ATOM     27  C   UNL d   1      22.773 -16.519  -0.868  0.00  0.00     0.037 A 
ATOM     28  C   UNL d   1      24.119 -16.401  -0.469  0.00  0.00     0.015 A 
BRANCH  26  29
ATOM     29  O   UNL d   1      20.826 -17.994  -1.153  0.00  0.00    -0.351 OA
BRANCH  29  30
ATOM     30  C   UNL d   1      20.397 -19.353  -1.261  0.00  0.00     0.175 C 
BRANCH  30  31
ATOM     31  C   UNL d   1      19.062 -19.502  -0.526  0.00  0.00     0.027 C 
BRANCH  31  32
ATOM     32  C   UNL d   1      19.018 -20.801   0.277  0.00  0.00     0.002 C 
BRANCH  32  33
ATOM     33  C   UNL d   1      18.708 -20.544   1.750  0.00  0.00    -0.004 C 
ATOM     34  C   UNL d   1      19.936 -20.023   2.479  0.00  0.00     0.005 C 
ENDBRANCH  32  33
ENDBRANCH  31  32
ENDBRANCH  30  31
ENDBRANCH  29  30
ENDBRANCH  26  29
ENDBRANCH  22  23
ENDBRANCH   1  21
TORSDOF 13
ENDMDL
MODEL 2
REMARK VINA RESULT:    -9.878      7.755     11.860
REMARK INTER + INTRA:         -15.096
REMARK INTER:                 -13.756
REMARK INTRA:                  -1.340
REMARK CONF_INDEPENDENT:        3.878
REMARK UNBOUND:                -1.340
REMARK  13 active torsions:
REMARK  status: ('A' for Active; 'I' for Inactive)
REMARK    1  A    between atoms: C_2  and  C_3 
REMARK    2  A    between atoms: C_3  and  C_4 
REMARK    3  A    between atoms: C_4  and  C_5 
REMARK    4  A    between atoms: C_5  and  O_6 
REMARK    5  A    between atoms: O_6  and  C_7 
REMARK    6  A    between atoms: C_10  and  C_11 
REMARK    7  A    between atoms: N_12  and  N_13 
REMARK       I    between atoms: N_13  and  C_14 
REMARK    8  A    between atoms: C_14  and  C_16 
REMARK    9  A    between atoms: C_16  and  S_17 
REMARK   10  A    between atoms: S_17  and  C_18 
REMARK   11  A    between atoms: C_21  and  S_22 
REMARK   12  A    between atoms: S_22  and  C_23 
REMARK   13  A    between atoms: C_23  and  C_24 
ROOT
ATOM      1  N   UNL d   1      26.034 -13.937  -4.083  0.00  0.00    -0.247 N 
ATOM      2  C   UNL d   1      26.653 -14.424  -5.244  0.00  0.00     0.247 C 
ATOM      3  O   UNL d   1      26.433 -15.575  -5.652  0.00  0.00    -0.271 OA
ATOM      4  H   UNL d   1      26.209 -13.008  -3.716  0.00  0.00     0.192 HD
ENDROOT
BRANCH   2   5
ATOM      5  C   UNL d   1      27.615 -13.457  -5.994  0.00  0.00     0.186 C 
BRANCH   5   6
ATOM      6  S   UNL d   1      27.897 -11.977  -4.941  0.00  0.00    -0.092 SA
BRANCH   6   7
ATOM      7  C   UNL d   1      26.717 -10.757  -5.344  0.00  0.00     0.159 A 
ATOM      8  N   UNL d   1      26.493 -10.272  -6.543  0.00  0.00    -0.134 NA
ATOM      9  N   UNL d   1      25.449  -9.348  -6.533  0.00  0.00    -0.134 NA
ATOM     10  C   UNL d   1      24.935  -9.158  -5.331  0.00  0.00     0.159 A 
ATOM     11  S   UNL d   1      25.667 -10.120  -4.125  0.00  0.00    -0.033 SA
BRANCH  10  12
ATOM     12  S   UNL d   1      23.658  -7.982  -5.110  0.00  0.00    -0.097 SA
BRANCH  12  13
ATOM     13  C   UNL d   1      23.661  -6.897  -6.575  0.00  0.00     0.120 C 
BRANCH  13  14
ATOM     14  C   UNL d   1      22.271  -6.615  -7.136  0.00  0.00    -0.049 A 
ATOM     15  C   UNL d   1      22.050  -6.626  -8.524  0.00  0.00     0.008 A 
ATOM     16  C   UNL d   1      20.827  -6.198  -9.060  0.00  0.00     0.007 A 
ATOM     17  C   UNL d   1      19.771  -5.831  -8.221  0.00  0.00    -0.062 A 
ATOM     18  C   UNL d   1      18.418  -5.493  -8.771  0.00  0.00     0.048 C 
ATOM     19  C   UNL d   1      19.976  -5.829  -6.841  0.00  0.00     0.007 A 
ATOM     20  C   UNL d   1      21.213  -6.200  -6.311  0.00  0.00     0.008 A 
ENDBRANCH  13  14
ENDBRANCH  12  13
ENDBRANCH  10  12
ENDBRANCH   6   7
ENDBRANCH   5   6
ENDBRANCH   2   5
BRANCH   1  21
ATOM     21  N   UNL d   1      25.174 -14.788  -3.405  0.00  0.00    -0.184 NA
ATOM     22  C   UNL d   1      25.522 -15.291  -2.260  0.00  0.00     0.150 C 
BRANCH  22  23
ATOM     23  C   UNL d   1      24.634 -16.252  -1.522  0.00  0.00    -0.017 A 
ATOM     24  C   UNL d   1      23.286 -15.948  -1.294  0.00  0.00     0.015 A 
ATOM     25  C   UNL d   1      22.487 -16.805  -0.514  0.00  0.00     0.037 A 
ATOM     26  C   UNL d   1      22.997 -18.005  -0.008  0.00  0.00     0.068 A 
ATOM     27  C   UNL d   1      24.332 -18.322  -0.255  0.00  0.00     0.037 A 
ATOM     28  C   UNL d   1      25.144 -17.450  -1.006  0.00  0.00     0.015 A 
BRANCH  26  29
ATOM     29  O   UNL d   1      22.081 -18.820   0.602  0.00  0.00    -0.351 OA
BRANCH  29  30
ATOM     30  C   UNL d   1      21.322 -19.700  -0.231  0.00  0.00     0.175 C 
BRANCH  30  31
ATOM     31  C   UNL d   1      20.084 -18.949  -0.731  0.00  0.00     0.027 C 
BRANCH  31  32
ATOM     32  C   UNL d   1      18.804 -19.707  -0.383  0.00  0.00     0.002 C 
BRANCH  32  33
ATOM     33  C   UNL d   1      18.899 -20.380   0.984  0.00  0.00    -0.004 C 
ATOM     34  C   UNL d   1      18.163 -21.710   0.984  0.00  0.00     0.005 C 
ENDBRANCH  32  33
ENDBRANCH  31  32
ENDBRANCH  30  31
ENDBRANCH  29  30
ENDBRANCH  26  29
ENDBRANCH  22  23
ENDBRANCH   1  21
TORSDOF 13
ENDMDL
MODEL 3
REMARK VINA RESULT:    -9.578      5.702      8.080
REMARK INTER + INTRA:         -15.835
REMARK INTER:                 -13.455
REMARK INTRA:                  -2.379
REMARK CONF_INDEPENDENT:        3.878
REMARK UNBOUND:                -2.379
REMARK  13 active torsions:
REMARK  status: ('A' for Active; 'I' for Inactive)
REMARK    1  A    between atoms: C_2  and  C_3 
REMARK    2  A    between atoms: C_3  and  C_4 
REMARK    3  A    between atoms: C_4  and  C_5 
REMARK    4  A    between atoms: C_5  and  O_6 
REMARK    5  A    between atoms: O_6  and  C_7 
REMARK    6  A    between atoms: C_10  and  C_11 
REMARK    7  A    between atoms: N_12  and  N_13 
REMARK       I    between atoms: N_13  and  C_14 
REMARK    8  A    between atoms: C_14  and  C_16 
REMARK    9  A    between atoms: C_16  and  S_17 
REMARK   10  A    between atoms: S_17  and  C_18 
REMARK   11  A    between atoms: C_21  and  S_22 
REMARK   12  A    between atoms: S_22  and  C_23 
REMARK   13  A    between atoms: C_23  and  C_24 
ROOT
ATOM      1  N   UNL d   1      28.449 -16.493   0.425  0.00  0.00    -0.247 N 
ATOM      2  C   UNL d   1      29.244 -16.916  -0.651  0.00  0.00     0.247 C 
ATOM      3  O   UNL d   1      28.731 -17.299  -1.714  0.00  0.00    -0.271 OA
ATOM      4  H   UNL d   1      28.840 -16.192   1.312  0.00  0.00     0.192 HD
ENDROOT
BRANCH   2   5
ATOM      5  C   UNL d   1      30.787 -16.877  -0.451  0.00  0.00     0.186 C 
BRANCH   5   6
ATOM      6  S   UNL d   1      31.566 -17.997  -1.682  0.00  0.00    -0.092 SA
BRANCH   6   7
ATOM      7  C   UNL d   1      31.081 -17.510  -3.285  0.00  0.00     0.159 A 
ATOM      8  N   UNL d   1      30.364 -18.225  -4.121  0.00  0.00    -0.134 NA
ATOM      9  N   UNL d   1      30.108 -17.526  -5.300  0.00  0.00    -0.134 NA
ATOM     10  C   UNL d   1      30.649 -16.321  -5.318  0.00  0.00     0.159 A 
ATOM     11  S   UNL d   1      31.487 -15.937  -3.880  0.00  0.00    -0.033 SA
BRANCH  10  12
ATOM     12  S   UNL d   1      30.491 -15.320  -6.746  0.00  0.00    -0.097 SA
BRANCH  12  13
ATOM     13  C   UNL d   1      28.740 -14.828  -6.871  0.00  0.00     0.120 C 
BRANCH  13  14
ATOM     14  C   UNL d   1      28.038 -14.702  -5.522  0.00  0.00    -0.049 A 
ATOM     15  C   UNL d   1      26.732 -15.193  -5.353  0.00  0.00     0.008 A 
ATOM     16  C   UNL d   1      26.011 -14.930  -4.179  0.00  0.00     0.007 A 
ATOM     17  C   UNL d   1      26.607 -14.244  -3.116  0.00  0.00    -0.062 A 
ATOM     18  C   UNL d   1      25.898 -14.065  -1.809  0.00  0.00     0.048 C 
ATOM     19  C   UNL d   1      27.908 -13.764  -3.269  0.00  0.00     0.007 A 
ATOM     20  C   UNL d   1      28.604 -13.977  -4.461  0.00  0.00     0.008 A 
ENDBRANCH  13  14
ENDBRANCH  12  13
ENDBRANCH  10  12
ENDBRANCH   6   7
ENDBRANCH   5   6
ENDBRANCH   2   5
BRANCH   1  21
ATOM     21  N   UNL d   1      27.072 -16.523   0.261  0.00  0.00    -0.184 NA
ATOM     22  C   UNL d   1      26.466 -17.649   0.035  0.00  0.00     0.150 C 
BRANCH  22  23
ATOM     23  C   UNL d   1      24.983 -17.711  -0.194  0.00  0.00    -0.017 A 
ATOM     24  C   UNL d   1      24.309 -18.939  -0.170  0.00  0.00     0.015 A 
ATOM     25  C   UNL d   1      22.938 -19.001  -0.487  0.00  0.00     0.037 A 
ATOM     26  C   UNL d   1      22.208 -17.841  -0.765  0.00  0.00     0.068 A 
ATOM     27  C   UNL d   1      22.872 -16.616  -0.764  0.00  0.00     0.037 A 
ATOM     28  C   UNL d   1      24.251 -16.552  -0.481  0.00  0.00     0.015 A 
BRANCH  26  29
ATOM     29  O   UNL d   1      20.857 -18.018  -0.904  0.00  0.00    -0.351 OA
BRANCH  29  30
ATOM     30  C   UNL d   1      20.395 -19.322  -1.265  0.00  0.00     0.175 C 
BRANCH  30  31
ATOM     31  C   UNL d   1      19.091 -19.601  -0.512  0.00  0.00     0.027 C 
BRANCH  31  32
ATOM     32  C   UNL d   1      19.286 -19.464   0.997  0.00  0.00     0.002 C 
BRANCH  32  33
ATOM     33  C   UNL d   1      19.045 -20.787   1.721  0.00  0.00    -0.004 C 
ATOM     34  C   UNL d   1      17.993 -21.614   0.999  0.00  0.00     0.005 C 
ENDBRANCH  32  33
ENDBRANCH  31  32
ENDBRANCH  30  31
ENDBRANCH  29  30
ENDBRANCH  26  29
ENDBRANCH  22  23
ENDBRANCH   1  21
TORSDOF 13
ENDMDL
MODEL 4
REMARK VINA RESULT:    -9.359      1.971      2.922
REMARK INTER + INTRA:         -15.219
REMARK INTER:                 -13.237
REMARK INTRA:                  -1.982
REMARK CONF_INDEPENDENT:        3.878
REMARK UNBOUND:                -1.982
REMARK  13 active torsions:
REMARK  status: ('A' for Active; 'I' for Inactive)
REMARK    1  A    between atoms: C_2  and  C_3 
REMARK    2  A    between atoms: C_3  and  C_4 
REMARK    3  A    between atoms: C_4  and  C_5 
REMARK    4  A    between atoms: C_5  and  O_6 
REMARK    5  A    between atoms: O_6  and  C_7 
REMARK    6  A    between atoms: C_10  and  C_11 
REMARK    7  A    between atoms: N_12  and  N_13 
REMARK       I    between atoms: N_13  and  C_14 
REMARK    8  A    between atoms: C_14  and  C_16 
REMARK    9  A    between atoms: C_16  and  S_17 
REMARK   10  A    between atoms: S_17  and  C_18 
REMARK   11  A    between atoms: C_21  and  S_22 
REMARK   12  A    between atoms: S_22  and  C_23 
REMARK   13  A    between atoms: C_23  and  C_24 
ROOT
ATOM      1  N   UNL d   1      28.645 -16.767   0.017  0.00  0.00    -0.247 N 
ATOM      2  C   UNL d   1      29.552 -16.927  -1.043  0.00  0.00     0.247 C 
ATOM      3  O   UNL d   1      29.154 -17.053  -2.212  0.00  0.00    -0.271 OA
ATOM      4  H   UNL d   1      28.940 -16.679   0.983  0.00  0.00     0.192 HD
ENDROOT
BRANCH   2   5
ATOM      5  C   UNL d   1      31.067 -16.932  -0.685  0.00  0.00     0.186 C 
BRANCH   5   6
ATOM      6  S   UNL d   1      31.670 -15.196  -0.666  0.00  0.00    -0.092 SA
BRANCH   6   7
ATOM      7  C   UNL d   1      30.335 -14.132  -0.310  0.00  0.00     0.159 A 
ATOM      8  N   UNL d   1      29.731 -13.343  -1.168  0.00  0.00    -0.134 NA
ATOM      9  N   UNL d   1      28.670 -12.661  -0.575  0.00  0.00    -0.134 NA
ATOM     10  C   UNL d   1      28.521 -12.945   0.707  0.00  0.00     0.159 A 
ATOM     11  S   UNL d   1      29.648 -14.094   1.278  0.00  0.00    -0.033 SA
BRANCH  10  12
ATOM     12  S   UNL d   1      27.281 -12.132   1.637  0.00  0.00    -0.097 SA
BRANCH  12  13
ATOM     13  C   UNL d   1      26.657 -13.325   2.867  0.00  0.00     0.120 C 
BRANCH  13  14
ATOM     14  C   UNL d   1      27.532 -13.440   4.112  0.00  0.00    -0.049 A 
ATOM     15  C   UNL d   1      27.891 -14.703   4.613  0.00  0.00     0.008 A 
ATOM     16  C   UNL d   1      28.543 -14.828   5.848  0.00  0.00     0.007 A 
ATOM     17  C   UNL d   1      28.926 -13.692   6.569  0.00  0.00    -0.062 A 
ATOM     18  C   UNL d   1      29.733 -13.803   7.826  0.00  0.00     0.048 C 
ATOM     19  C   UNL d   1      28.585 -12.434   6.074  0.00  0.00     0.007 A 
ATOM     20  C   UNL d   1      27.884 -12.313   4.872  0.00  0.00     0.008 A 
ENDBRANCH  13  14
ENDBRANCH  12  13
ENDBRANCH  10  12
ENDBRANCH   6   7
ENDBRANCH   5   6
ENDBRANCH   2   5
BRANCH   1  21
ATOM     21  N   UNL d   1      27.292 -16.760  -0.288  0.00  0.00    -0.184 NA
ATOM     22  C   UNL d   1      26.498 -17.636   0.250  0.00  0.00     0.150 C 
BRANCH  22  23
ATOM     23  C   UNL d   1      25.037 -17.686  -0.093  0.00  0.00    -0.017 A 
ATOM     24  C   UNL d   1      24.358 -18.911  -0.142  0.00  0.00     0.015 A 
ATOM     25  C   UNL d   1      23.015 -18.960  -0.564  0.00  0.00     0.037 A 
ATOM     26  C   UNL d   1      22.313 -17.792  -0.877  0.00  0.00     0.068 A 
ATOM     27  C   UNL d   1      22.980 -16.571  -0.803  0.00  0.00     0.037 A 
ATOM     28  C   UNL d   1      24.333 -16.519  -0.415  0.00  0.00     0.015 A 
BRANCH  26  29
ATOM     29  O   UNL d   1      20.976 -17.960  -1.123  0.00  0.00    -0.351 OA
BRANCH  29  30
ATOM     30  C   UNL d   1      20.499 -19.296  -1.296  0.00  0.00     0.175 C 
BRANCH  30  31
ATOM     31  C   UNL d   1      19.121 -19.409  -0.637  0.00  0.00     0.027 C 
BRANCH  31  32
ATOM     32  C   UNL d   1      19.033 -20.655   0.243  0.00  0.00     0.002 C 
BRANCH  32  33
ATOM     33  C   UNL d   1      18.751 -20.298   1.701  0.00  0.00    -0.004 C 
ATOM     34  C   UNL d   1      20.047 -20.063   2.460  0.00  0.00     0.005 C 
ENDBRANCH  32  33
ENDBRANCH  31  32
ENDBRANCH  30  31
ENDBRANCH  29  30
ENDBRANCH  26  29
ENDBRANCH  22  23
ENDBRANCH   1  21
TORSDOF 13
ENDMDL
MODEL 5
REMARK VINA RESULT:    -9.007      5.392      7.860
REMARK INTER + INTRA:         -15.541
REMARK INTER:                 -12.885
REMARK INTRA:                  -2.657
REMARK CONF_INDEPENDENT:        3.878
REMARK UNBOUND:                -2.657
REMARK  13 active torsions:
REMARK  status: ('A' for Active; 'I' for Inactive)
REMARK    1  A    between atoms: C_2  and  C_3 
REMARK    2  A    between atoms: C_3  and  C_4 
REMARK    3  A    between atoms: C_4  and  C_5 
REMARK    4  A    between atoms: C_5  and  O_6 
REMARK    5  A    between atoms: O_6  and  C_7 
REMARK    6  A    between atoms: C_10  and  C_11 
REMARK    7  A    between atoms: N_12  and  N_13 
REMARK       I    between atoms: N_13  and  C_14 
REMARK    8  A    between atoms: C_14  and  C_16 
REMARK    9  A    between atoms: C_16  and  S_17 
REMARK   10  A    between atoms: S_17  and  C_18 
REMARK   11  A    between atoms: C_21  and  S_22 
REMARK   12  A    between atoms: S_22  and  C_23 
REMARK   13  A    between atoms: C_23  and  C_24 
ROOT
ATOM      1  N   UNL d   1      28.623 -17.041   0.224  0.00  0.00    -0.247 N 
ATOM      2  C   UNL d   1      29.470 -16.966  -0.892  0.00  0.00     0.247 C 
ATOM      3  O   UNL d   1      29.061 -17.254  -2.027  0.00  0.00    -0.271 OA
ATOM      4  H   UNL d   1      28.934 -16.830   1.166  0.00  0.00     0.192 HD
ENDROOT
BRANCH   2   5
ATOM      5  C   UNL d   1      30.934 -16.502  -0.640  0.00  0.00     0.186 C 
BRANCH   5   6
ATOM      6  S   UNL d   1      30.920 -14.709  -0.235  0.00  0.00    -0.092 SA
BRANCH   6   7
ATOM      7  C   UNL d   1      29.364 -14.042  -0.655  0.00  0.00     0.159 A 
ATOM      8  N   UNL d   1      28.296 -14.044   0.109  0.00  0.00    -0.134 NA
ATOM      9  N   UNL d   1      27.230 -13.386  -0.503  0.00  0.00    -0.134 NA
ATOM     10  C   UNL d   1      27.525 -12.928  -1.706  0.00  0.00     0.159 A 
ATOM     11  S   UNL d   1      29.139 -13.237  -2.170  0.00  0.00    -0.033 SA
BRANCH  10  12
ATOM     12  S   UNL d   1      26.289 -12.132  -2.658  0.00  0.00    -0.097 SA
BRANCH  12  13
ATOM     13  C   UNL d   1      25.853 -13.254  -4.027  0.00  0.00     0.120 C 
BRANCH  13  14
ATOM     14  C   UNL d   1      27.046 -14.005  -4.611  0.00  0.00    -0.049 A 
ATOM     15  C   UNL d   1      27.621 -13.591  -5.825  0.00  0.00     0.008 A 
ATOM     16  C   UNL d   1      28.598 -14.370  -6.460  0.00  0.00     0.007 A 
ATOM     17  C   UNL d   1      29.084 -15.534  -5.857  0.00  0.00    -0.062 A 
ATOM     18  C   UNL d   1      30.216 -16.311  -6.458  0.00  0.00     0.048 C 
ATOM     19  C   UNL d   1      28.529 -15.947  -4.645  0.00  0.00     0.007 A 
ATOM     20  C   UNL d   1      27.515 -15.201  -4.042  0.00  0.00     0.008 A 
ENDBRANCH  13  14
ENDBRANCH  12  13
ENDBRANCH  10  12
ENDBRANCH   6   7
ENDBRANCH   5   6
ENDBRANCH   2   5
BRANCH   1  21
ATOM     21  N   UNL d   1      27.314 -17.453   0.014  0.00  0.00    -0.184 NA
ATOM     22  C   UNL d   1      26.388 -16.580  -0.239  0.00  0.00     0.150 C 
BRANCH  22  23
ATOM     23  C   UNL d   1      24.955 -16.986  -0.425  0.00  0.00    -0.017 A 
ATOM     24  C   UNL d   1      23.993 -16.048  -0.822  0.00  0.00     0.015 A 
ATOM     25  C   UNL d   1      22.635 -16.413  -0.895  0.00  0.00     0.037 A 
ATOM     26  C   UNL d   1      22.225 -17.725  -0.641  0.00  0.00     0.068 A 
ATOM     27  C   UNL d   1      23.184 -18.666  -0.271  0.00  0.00     0.037 A 
ATOM     28  C   UNL d   1      24.540 -18.298  -0.163  0.00  0.00     0.015 A 
BRANCH  26  29
ATOM     29  O   UNL d   1      20.904 -17.986  -0.895  0.00  0.00    -0.351 OA
BRANCH  29  30
ATOM     30  C   UNL d   1      20.552 -19.325  -1.253  0.00  0.00     0.175 C 
BRANCH  30  31
ATOM     31  C   UNL d   1      19.286 -19.717  -0.485  0.00  0.00     0.027 C 
BRANCH  31  32
ATOM     32  C   UNL d   1      19.545 -19.751   1.020  0.00  0.00     0.002 C 
BRANCH  32  33
ATOM     33  C   UNL d   1      18.454 -20.518   1.764  0.00  0.00    -0.004 C 
ATOM     34  C   UNL d   1      18.030 -21.750   0.980  0.00  0.00     0.005 C 
ENDBRANCH  32  33
ENDBRANCH  31  32
ENDBRANCH  30  31
ENDBRANCH  29  30
ENDBRANCH  26  29
ENDBRANCH  22  23
ENDBRANCH   1  21
TORSDOF 13
ENDMDL
MODEL 6
REMARK VINA RESULT:    -8.735      5.808      7.136
REMARK INTER + INTRA:         -16.142
REMARK INTER:                 -12.613
REMARK INTRA:                  -3.529
REMARK CONF_INDEPENDENT:        3.878
REMARK UNBOUND:                -3.529
REMARK  13 active torsions:
REMARK  status: ('A' for Active; 'I' for Inactive)
REMARK    1  A    between atoms: C_2  and  C_3 
REMARK    2  A    between atoms: C_3  and  C_4 
REMARK    3  A    between atoms: C_4  and  C_5 
REMARK    4  A    between atoms: C_5  and  O_6 
REMARK    5  A    between atoms: O_6  and  C_7 
REMARK    6  A    between atoms: C_10  and  C_11 
REMARK    7  A    between atoms: N_12  and  N_13 
REMARK       I    between atoms: N_13  and  C_14 
REMARK    8  A    between atoms: C_14  and  C_16 
REMARK    9  A    between atoms: C_16  and  S_17 
REMARK   10  A    between atoms: S_17  and  C_18 
REMARK   11  A    between atoms: C_21  and  S_22 
REMARK   12  A    between atoms: S_22  and  C_23 
REMARK   13  A    between atoms: C_23  and  C_24 
ROOT
ATOM      1  N   UNL d   1      25.836 -13.748  -5.006  0.00  0.00    -0.247 N 
ATOM      2  C   UNL d   1      26.115 -12.449  -4.553  0.00  0.00     0.247 C 
ATOM      3  O   UNL d   1      25.731 -12.064  -3.437  0.00  0.00    -0.271 OA
ATOM      4  H   UNL d   1      26.121 -14.085  -5.919  0.00  0.00     0.192 HD
ENDROOT
BRANCH   2   5
ATOM      5  C   UNL d   1      26.928 -11.526  -5.506  0.00  0.00     0.186 C 
BRANCH   5   6
ATOM      6  S   UNL d   1      27.858 -12.579  -6.691  0.00  0.00    -0.092 SA
BRANCH   6   7
ATOM      7  C   UNL d   1      28.468 -13.980  -5.851  0.00  0.00     0.159 A 
ATOM      8  N   UNL d   1      27.983 -15.197  -5.934  0.00  0.00    -0.134 NA
ATOM      9  N   UNL d   1      28.731 -16.098  -5.178  0.00  0.00    -0.134 NA
ATOM     10  C   UNL d   1      29.740 -15.529  -4.541  0.00  0.00     0.159 A 
ATOM     11  S   UNL d   1      29.871 -13.854  -4.846  0.00  0.00    -0.033 SA
BRANCH  10  12
ATOM     12  S   UNL d   1      30.752 -16.491  -3.485  0.00  0.00    -0.097 SA
BRANCH  12  13
ATOM     13  C   UNL d   1      29.656 -17.300  -2.273  0.00  0.00     0.120 C 
BRANCH  13  14
ATOM     14  C   UNL d   1      28.949 -16.325  -1.337  0.00  0.00    -0.049 A 
ATOM     15  C   UNL d   1      28.348 -16.787  -0.153  0.00  0.00     0.008 A 
ATOM     16  C   UNL d   1      27.547 -15.938   0.625  0.00  0.00     0.007 A 
ATOM     17  C   UNL d   1      27.397 -14.591   0.284  0.00  0.00    -0.062 A 
ATOM     18  C   UNL d   1      26.650 -13.641   1.171  0.00  0.00     0.048 C 
ATOM     19  C   UNL d   1      28.000 -14.120  -0.882  0.00  0.00     0.007 A 
ATOM     20  C   UNL d   1      28.750 -14.979  -1.687  0.00  0.00     0.008 A 
ENDBRANCH  13  14
ENDBRANCH  12  13
ENDBRANCH  10  12
ENDBRANCH   6   7
ENDBRANCH   5   6
ENDBRANCH   2   5
BRANCH   1  21
ATOM     21  N   UNL d   1      25.112 -14.582  -4.166  0.00  0.00    -0.184 NA
ATOM     22  C   UNL d   1      25.611 -14.953  -3.026  0.00  0.00     0.150 C 
BRANCH  22  23
ATOM     23  C   UNL d   1      24.875 -15.892  -2.115  0.00  0.00    -0.017 A 
ATOM     24  C   UNL d   1      23.593 -15.575  -1.648  0.00  0.00     0.015 A 
ATOM     25  C   UNL d   1      22.952 -16.411  -0.713  0.00  0.00     0.037 A 
ATOM     26  C   UNL d   1      23.545 -17.601  -0.283  0.00  0.00     0.068 A 
ATOM     27  C   UNL d   1      24.810 -17.931  -0.766  0.00  0.00     0.037 A 
ATOM     28  C   UNL d   1      25.471 -17.081  -1.675  0.00  0.00     0.015 A 
BRANCH  26  29
ATOM     29  O   UNL d   1      22.757 -18.398   0.504  0.00  0.00    -0.351 OA
BRANCH  29  30
ATOM     30  C   UNL d   1      21.975 -19.402  -0.145  0.00  0.00     0.175 C 
BRANCH  30  31
ATOM     31  C   UNL d   1      20.826 -18.718  -0.892  0.00  0.00     0.027 C 
BRANCH  31  32
ATOM     32  C   UNL d   1      19.474 -19.279  -0.454  0.00  0.00     0.002 C 
BRANCH  32  33
ATOM     33  C   UNL d   1      19.622 -20.630   0.244  0.00  0.00    -0.004 C 
ATOM     34  C   UNL d   1      18.342 -21.004   0.973  0.00  0.00     0.005 C 
ENDBRANCH  32  33
ENDBRANCH  31  32
ENDBRANCH  30  31
ENDBRANCH  29  30
ENDBRANCH  26  29
ENDBRANCH  22  23
ENDBRANCH   1  21
TORSDOF 13
ENDMDL
MODEL 7
REMARK VINA RESULT:    -8.453      4.788      6.927
REMARK INTER + INTRA:         -15.353
REMARK INTER:                 -12.331
REMARK INTRA:                  -3.022
REMARK CONF_INDEPENDENT:        3.878
REMARK UNBOUND:                -3.022
REMARK  13 active torsions:
REMARK  status: ('A' for Active; 'I' for Inactive)
REMARK    1  A    between atoms: C_2  and  C_3 
REMARK    2  A    between atoms: C_3  and  C_4 
REMARK    3  A    between atoms: C_4  and  C_5 
REMARK    4  A    between atoms: C_5  and  O_6 
REMARK    5  A    between atoms: O_6  and  C_7 
REMARK    6  A    between atoms: C_10  and  C_11 
REMARK    7  A    between atoms: N_12  and  N_13 
REMARK       I    between atoms: N_13  and  C_14 
REMARK    8  A    between atoms: C_14  and  C_16 
REMARK    9  A    between atoms: C_16  and  S_17 
REMARK   10  A    between atoms: S_17  and  C_18 
REMARK   11  A    between atoms: C_21  and  S_22 
REMARK   12  A    between atoms: S_22  and  C_23 
REMARK   13  A    between atoms: C_23  and  C_24 
ROOT
ATOM      1  N   UNL d   1      28.980 -16.831   0.177  0.00  0.00    -0.247 N 
ATOM      2  C   UNL d   1      29.948 -17.165  -0.782  0.00  0.00     0.247 C 
ATOM      3  O   UNL d   1      29.626 -17.432  -1.951  0.00  0.00    -0.271 OA
ATOM      4  H   UNL d   1      29.212 -16.626   1.143  0.00  0.00     0.192 HD
ENDROOT
BRANCH   2   5
ATOM      5  C   UNL d   1      31.433 -17.178  -0.316  0.00  0.00     0.186 C 
BRANCH   5   6
ATOM      6  S   UNL d   1      31.926 -15.462   0.120  0.00  0.00    -0.092 SA
BRANCH   6   7
ATOM      7  C   UNL d   1      30.497 -14.537   0.498  0.00  0.00     0.159 A 
ATOM      8  N   UNL d   1      29.759 -14.668   1.576  0.00  0.00    -0.134 NA
ATOM      9  N   UNL d   1      28.718 -13.742   1.597  0.00  0.00    -0.134 NA
ATOM     10  C   UNL d   1      28.696 -12.959   0.534  0.00  0.00     0.159 A 
ATOM     11  S   UNL d   1      29.969 -13.273  -0.560  0.00  0.00    -0.033 SA
BRANCH  10  12
ATOM     12  S   UNL d   1      27.417 -11.777   0.352  0.00  0.00    -0.097 SA
BRANCH  12  13
ATOM     13  C   UNL d   1      27.324 -11.348  -1.418  0.00  0.00     0.120 C 
BRANCH  13  14
ATOM     14  C   UNL d   1      26.795 -12.477  -2.297  0.00  0.00    -0.049 A 
ATOM     15  C   UNL d   1      27.377 -13.755  -2.239  0.00  0.00     0.008 A 
ATOM     16  C   UNL d   1      27.022 -14.750  -3.161  0.00  0.00     0.007 A 
ATOM     17  C   UNL d   1      26.020 -14.518  -4.107  0.00  0.00    -0.062 A 
ATOM     18  C   UNL d   1      25.539 -15.608  -5.017  0.00  0.00     0.048 C 
ATOM     19  C   UNL d   1      25.427 -13.257  -4.165  0.00  0.00     0.007 A 
ATOM     20  C   UNL d   1      25.822 -12.249  -3.284  0.00  0.00     0.008 A 
ENDBRANCH  13  14
ENDBRANCH  12  13
ENDBRANCH  10  12
ENDBRANCH   6   7
ENDBRANCH   5   6
ENDBRANCH   2   5
BRANCH   1  21
ATOM     21  N   UNL d   1      27.652 -16.815  -0.225  0.00  0.00    -0.184 NA
ATOM     22  C   UNL d   1      26.743 -17.383   0.507  0.00  0.00     0.150 C 
BRANCH  22  23
ATOM     23  C   UNL d   1      25.304 -17.425   0.079  0.00  0.00    -0.017 A 
ATOM     24  C   UNL d   1      24.547 -18.594   0.232  0.00  0.00     0.015 A 
ATOM     25  C   UNL d   1      23.232 -18.658  -0.265  0.00  0.00     0.037 A 
ATOM     26  C   UNL d   1      22.629 -17.544  -0.857  0.00  0.00     0.068 A 
ATOM     27  C   UNL d   1      23.371 -16.372  -0.988  0.00  0.00     0.037 A 
ATOM     28  C   UNL d   1      24.700 -16.314  -0.523  0.00  0.00     0.015 A 
BRANCH  26  29
ATOM     29  O   UNL d   1      21.300 -17.687  -1.158  0.00  0.00    -0.351 OA
BRANCH  29  30
ATOM     30  C   UNL d   1      20.786 -19.016  -1.266  0.00  0.00     0.175 C 
BRANCH  30  31
ATOM     31  C   UNL d   1      19.599 -19.159  -0.308  0.00  0.00     0.027 C 
BRANCH  31  32
ATOM     32  C   UNL d   1      20.037 -19.767   1.023  0.00  0.00     0.002 C 
BRANCH  32  33
ATOM     33  C   UNL d   1      18.859 -20.376   1.781  0.00  0.00    -0.004 C 
ATOM     34  C   UNL d   1      18.031 -21.265   0.867  0.00  0.00     0.005 C 
ENDBRANCH  32  33
ENDBRANCH  31  32
ENDBRANCH  30  31
ENDBRANCH  29  30
ENDBRANCH  26  29
ENDBRANCH  22  23
ENDBRANCH   1  21
TORSDOF 13
ENDMDL
MODEL 8
REMARK VINA RESULT:    -8.187      4.408      7.580
REMARK INTER + INTRA:         -15.263
REMARK INTER:                 -12.065
REMARK INTRA:                  -3.198
REMARK CONF_INDEPENDENT:        3.878
REMARK UNBOUND:                -3.198
REMARK  13 active torsions:
REMARK  status: ('A' for Active; 'I' for Inactive)
REMARK    1  A    between atoms: C_2  and  C_3 
REMARK    2  A    between atoms: C_3  and  C_4 
REMARK    3  A    between atoms: C_4  and  C_5 
REMARK    4  A    between atoms: C_5  and  O_6 
REMARK    5  A    between atoms: O_6  and  C_7 
REMARK    6  A    between atoms: C_10  and  C_11 
REMARK    7  A    between atoms: N_12  and  N_13 
REMARK       I    between atoms: N_13  and  C_14 
REMARK    8  A    between atoms: C_14  and  C_16 
REMARK    9  A    between atoms: C_16  and  S_17 
REMARK   10  A    between atoms: S_17  and  C_18 
REMARK   11  A    between atoms: C_21  and  S_22 
REMARK   12  A    between atoms: S_22  and  C_23 
REMARK   13  A    between atoms: C_23  and  C_24 
ROOT
ATOM      1  N   UNL d   1      28.750 -15.214   1.138  0.00  0.00    -0.247 N 
ATOM      2  C   UNL d   1      29.138 -13.880   0.936  0.00  0.00     0.247 C 
ATOM      3  O   UNL d   1      28.402 -13.085   0.329  0.00  0.00    -0.271 OA
ATOM      4  H   UNL d   1      29.338 -15.890   1.615  0.00  0.00     0.192 HD
ENDROOT
BRANCH   2   5
ATOM      5  C   UNL d   1      30.518 -13.448   1.510  0.00  0.00     0.186 C 
BRANCH   5   6
ATOM      6  S   UNL d   1      31.692 -14.851   1.334  0.00  0.00    -0.092 SA
BRANCH   6   7
ATOM      7  C   UNL d   1      31.177 -15.864   0.011  0.00  0.00     0.159 A 
ATOM      8  N   UNL d   1      30.514 -16.992   0.119  0.00  0.00    -0.134 NA
ATOM      9  N   UNL d   1      30.211 -17.528  -1.131  0.00  0.00    -0.134 NA
ATOM     10  C   UNL d   1      30.667 -16.798  -2.134  0.00  0.00     0.159 A 
ATOM     11  S   UNL d   1      31.473 -15.381  -1.624  0.00  0.00    -0.033 SA
BRANCH  10  12
ATOM     12  S   UNL d   1      30.442 -17.349  -3.780  0.00  0.00    -0.097 SA
BRANCH  12  13
ATOM     13  C   UNL d   1      29.915 -15.909  -4.766  0.00  0.00     0.120 C 
BRANCH  13  14
ATOM     14  C   UNL d   1      28.550 -15.357  -4.368  0.00  0.00    -0.049 A 
ATOM     15  C   UNL d   1      27.539 -15.199  -5.332  0.00  0.00     0.008 A 
ATOM     16  C   UNL d   1      26.345 -14.534  -5.020  0.00  0.00     0.007 A 
ATOM     17  C   UNL d   1      26.099 -14.086  -3.719  0.00  0.00    -0.062 A 
ATOM     18  C   UNL d   1      24.780 -13.486  -3.337  0.00  0.00     0.048 C 
ATOM     19  C   UNL d   1      27.090 -14.249  -2.751  0.00  0.00     0.007 A 
ATOM     20  C   UNL d   1      28.302 -14.860  -3.078  0.00  0.00     0.008 A 
ENDBRANCH  13  14
ENDBRANCH  12  13
ENDBRANCH  10  12
ENDBRANCH   6   7
ENDBRANCH   5   6
ENDBRANCH   2   5
BRANCH   1  21
ATOM     21  N   UNL d   1      27.522 -15.613   0.632  0.00  0.00    -0.184 NA
ATOM     22  C   UNL d   1      27.259 -16.874   0.478  0.00  0.00     0.150 C 
BRANCH  22  23
ATOM     23  C   UNL d   1      25.958 -17.339  -0.110  0.00  0.00    -0.017 A 
ATOM     24  C   UNL d   1      25.117 -18.201   0.608  0.00  0.00     0.015 A 
ATOM     25  C   UNL d   1      23.950 -18.713   0.010  0.00  0.00     0.037 A 
ATOM     26  C   UNL d   1      23.569 -18.326  -1.278  0.00  0.00     0.068 A 
ATOM     27  C   UNL d   1      24.390 -17.449  -1.984  0.00  0.00     0.037 A 
ATOM     28  C   UNL d   1      25.577 -16.960  -1.404  0.00  0.00     0.015 A 
BRANCH  26  29
ATOM     29  O   UNL d   1      22.339 -18.773  -1.685  0.00  0.00    -0.351 OA
BRANCH  29  30
ATOM     30  C   UNL d   1      21.207 -18.401  -0.895  0.00  0.00     0.175 C 
BRANCH  30  31
ATOM     31  C   UNL d   1      20.746 -19.626  -0.099  0.00  0.00     0.027 C 
BRANCH  31  32
ATOM     32  C   UNL d   1      19.222 -19.733  -0.088  0.00  0.00     0.002 C 
BRANCH  32  33
ATOM     33  C   UNL d   1      18.707 -20.324   1.223  0.00  0.00    -0.004 C 
ATOM     34  C   UNL d   1      18.032 -21.665   0.982  0.00  0.00     0.005 C 
ENDBRANCH  32  33
ENDBRANCH  31  32
ENDBRANCH  30  31
ENDBRANCH  29  30
ENDBRANCH  26  29
ENDBRANCH  22  23
ENDBRANCH   1  21
TORSDOF 13
ENDMDL
MODEL 9
REMARK VINA RESULT:    -8.080      6.337      8.056
REMARK INTER + INTRA:         -15.131
REMARK INTER:                 -11.958
REMARK INTRA:                  -3.173
REMARK CONF_INDEPENDENT:        3.878
REMARK UNBOUND:                -3.173
REMARK  13 active torsions:
REMARK  status: ('A' for Active; 'I' for Inactive)
REMARK    1  A    between atoms: C_2  and  C_3 
REMARK    2  A    between atoms: C_3  and  C_4 
REMARK    3  A    between atoms: C_4  and  C_5 
REMARK    4  A    between atoms: C_5  and  O_6 
REMARK    5  A    between atoms: O_6  and  C_7 
REMARK    6  A    between atoms: C_10  and  C_11 
REMARK    7  A    between atoms: N_12  and  N_13 
REMARK       I    between atoms: N_13  and  C_14 
REMARK    8  A    between atoms: C_14  and  C_16 
REMARK    9  A    between atoms: C_16  and  S_17 
REMARK   10  A    between atoms: S_17  and  C_18 
REMARK   11  A    between atoms: C_21  and  S_22 
REMARK   12  A    between atoms: S_22  and  C_23 
REMARK   13  A    between atoms: C_23  and  C_24 
ROOT
ATOM      1  N   UNL d   1      28.607 -15.853  -3.078  0.00  0.00    -0.247 N 
ATOM      2  C   UNL d   1      29.672 -16.585  -2.532  0.00  0.00     0.247 C 
ATOM      3  O   UNL d   1      29.466 -17.529  -1.753  0.00  0.00    -0.271 OA
ATOM      4  H   UNL d   1      28.745 -15.066  -3.703  0.00  0.00     0.192 HD
ENDROOT
BRANCH   2   5
ATOM      5  C   UNL d   1      31.111 -16.165  -2.951  0.00  0.00     0.186 C 
BRANCH   5   6
ATOM      6  S   UNL d   1      31.254 -16.307  -4.778  0.00  0.00    -0.092 SA
BRANCH   6   7
ATOM      7  C   UNL d   1      29.967 -15.394  -5.523  0.00  0.00     0.159 A 
ATOM      8  N   UNL d   1      28.746 -15.825  -5.740  0.00  0.00    -0.134 NA
ATOM      9  N   UNL d   1      27.948 -14.832  -6.306  0.00  0.00    -0.134 NA
ATOM     10  C   UNL d   1      28.595 -13.699  -6.510  0.00  0.00     0.159 A 
ATOM     11  S   UNL d   1      30.222 -13.749  -5.994  0.00  0.00    -0.033 SA
BRANCH  10  12
ATOM     12  S   UNL d   1      27.773 -12.356  -7.277  0.00  0.00    -0.097 SA
BRANCH  12  13
ATOM     13  C   UNL d   1      26.460 -11.804  -6.140  0.00  0.00     0.120 C 
BRANCH  13  14
ATOM     14  C   UNL d   1      26.630 -12.310  -4.711  0.00  0.00    -0.049 A 
ATOM     15  C   UNL d   1      25.678 -13.176  -4.146  0.00  0.00     0.008 A 
ATOM     16  C   UNL d   1      25.726 -13.507  -2.784  0.00  0.00     0.007 A 
ATOM     17  C   UNL d   1      26.772 -13.051  -1.977  0.00  0.00    -0.062 A 
ATOM     18  C   UNL d   1      26.910 -13.497  -0.553  0.00  0.00     0.048 C 
ATOM     19  C   UNL d   1      27.730 -12.202  -2.531  0.00  0.00     0.007 A 
ATOM     20  C   UNL d   1      27.648 -11.825  -3.873  0.00  0.00     0.008 A 
ENDBRANCH  13  14
ENDBRANCH  12  13
ENDBRANCH  10  12
ENDBRANCH   6   7
ENDBRANCH   5   6
ENDBRANCH   2   5
BRANCH   1  21
ATOM     21  N   UNL d   1      27.319 -16.216  -2.713  0.00  0.00    -0.184 NA
ATOM     22  C   UNL d   1      27.043 -16.481  -1.473  0.00  0.00     0.150 C 
BRANCH  22  23
ATOM     23  C   UNL d   1      25.671 -16.923  -1.050  0.00  0.00    -0.017 A 
ATOM     24  C   UNL d   1      25.495 -18.112  -0.330  0.00  0.00     0.015 A 
ATOM     25  C   UNL d   1      24.199 -18.571  -0.027  0.00  0.00     0.037 A 
ATOM     26  C   UNL d   1      23.068 -17.825  -0.375  0.00  0.00     0.068 A 
ATOM     27  C   UNL d   1      23.243 -16.630  -1.069  0.00  0.00     0.037 A 
ATOM     28  C   UNL d   1      24.537 -16.183  -1.405  0.00  0.00     0.015 A 
BRANCH  26  29
ATOM     29  O   UNL d   1      21.879 -18.302   0.110  0.00  0.00    -0.351 OA
BRANCH  29  30
ATOM     30  C   UNL d   1      21.152 -19.221  -0.708  0.00  0.00     0.175 C 
BRANCH  30  31
ATOM     31  C   UNL d   1      19.655 -18.963  -0.518  0.00  0.00     0.027 C 
BRANCH  31  32
ATOM     32  C   UNL d   1      19.144 -19.610   0.768  0.00  0.00     0.002 C 
BRANCH  32  33
ATOM     33  C   UNL d   1      18.953 -21.117   0.605  0.00  0.00    -0.004 C 
ATOM     34  C   UNL d   1      17.677 -21.576   1.292  0.00  0.00     0.005 C 
ENDBRANCH  32  33
ENDBRANCH  31  32
ENDBRANCH  30  31
ENDBRANCH  29  30
ENDBRANCH  26  29
ENDBRANCH  22  23
ENDBRANCH   1  21
TORSDOF 13
ENDMDL
