MODEL 1
REMARK VINA RESULT:    -9.724      0.000      0.000
REMARK INTER + INTRA:         -12.486
REMARK INTER:                 -11.514
REMARK INTRA:                  -0.972
REMARK CONF_INDEPENDENT:        1.790
REMARK UNBOUND:                -0.972
REMARK  6 active torsions:
REMARK  status: ('A' for Active; 'I' for Inactive)
REMARK    1  A    between atoms: C_3  and  C_2 
REMARK    2  A    between atoms: C_3  and  N_5 
REMARK       I    between atoms: N_5  and  C_6 
REMARK    3  A    between atoms: C_6  and  C_8 
REMARK    4  A    between atoms: C_10  and  N_11 
REMARK       I    between atoms: N_11  and  C_12 
REMARK       I    between atoms: C_12  and  N_14 
REMARK    5  A    between atoms: N_14  and  C_15 
REMARK    6  A    between atoms: C_24  and  N_25 
ROOT
ATOM      1  C   UNL d   1      27.240 -15.276   0.143  0.00  0.00     0.060 A 
ATOM      2  C   UNL d   1      27.781 -15.588   1.450  0.00  0.00     0.049 A 
ATOM      3  C   UNL d   1      28.153 -14.576   2.326  0.00  0.00     0.037 A 
ATOM      4  C   UNL d   1      28.085 -13.293   1.771  0.00  0.00     0.032 A 
ATOM      5  C   UNL d   1      27.549 -12.991   0.461  0.00  0.00     0.032 A 
ATOM      6  C   UNL d   1      27.106 -13.979  -0.454  0.00  0.00     0.046 A 
ENDROOT
BRANCH   3   7
ATOM      7  N   UNL d   1      28.520 -14.834   3.710  0.00  0.00    -0.309 N 
ATOM      8  C   UNL d   1      28.440 -13.865   4.713  0.00  0.00     0.325 C 
ATOM      9  O   UNL d   1      28.124 -12.698   4.490  0.00  0.00    -0.247 OA
ATOM     10  N   UNL d   1      28.790 -14.242   6.004  0.00  0.00    -0.309 N 
ATOM     11  H   UNL d   1      29.176 -15.150   6.214  0.00  0.00     0.170 HD
ATOM     12  H   UNL d   1      28.709 -15.796   3.965  0.00  0.00     0.170 HD
BRANCH  10  13
ATOM     13  C   UNL d   1      28.742 -13.283   7.075  0.00  0.00     0.036 A 
ATOM     14  C   UNL d   1      28.943 -11.918   6.850  0.00  0.00     0.029 A 
ATOM     15  C   UNL d   1      28.991 -11.017   7.931  0.00  0.00     0.003 A 
ATOM     16  C   UNL d   1      28.748 -11.451   9.233  0.00  0.00     0.007 A 
ATOM     17  C   UNL d   1      28.541 -12.806   9.476  0.00  0.00    -0.060 A 
ATOM     18  C   UNL d   1      28.397 -13.328  10.872  0.00  0.00     0.048 C 
ATOM     19  C   UNL d   1      28.531 -13.703   8.397  0.00  0.00     0.036 A 
ENDBRANCH  10  13
ENDBRANCH   3   7
BRANCH   1  20
ATOM     20  C   UNL d   1      26.622 -16.411  -0.545  0.00  0.00     0.254 C 
ATOM     21  N   UNL d   1      25.289 -16.265  -0.907  0.00  0.00    -0.353 N 
ATOM     22  H   UNL d   1      24.818 -15.414  -0.615  0.00  0.00     0.163 HD
ATOM     23  O   UNL d   1      27.288 -17.437  -0.637  0.00  0.00    -0.268 OA
BRANCH  21  24
ATOM     24  C   UNL d   1      24.439 -17.443  -1.157  0.00  0.00     0.080 C 
ATOM     25  C   UNL d   1      24.617 -18.554  -0.137  0.00  0.00     0.032 C 
BRANCH  24  26
ATOM     26  C   UNL d   1      23.059 -17.010  -0.877  0.00  0.00     0.020 C 
ATOM     27  C   UNL d   1      22.162 -18.151  -0.520  0.00  0.00     0.007 C 
ENDBRANCH  24  26
ENDBRANCH  21  24
ENDBRANCH   1  20
BRANCH   6  28
ATOM     28  N   UNL d   1      26.551 -13.731  -1.683  0.00  0.00    -0.378 N 
ATOM     29  C   UNL d   1      27.015 -14.288  -2.906  0.00  0.00     0.127 C 
ATOM     30  C   UNL d   1      25.671 -14.183  -4.046  0.00  0.00     0.055 C 
ATOM     31  C   UNL d   1      26.757 -13.721  -4.891  0.00  0.00    -0.063 C 
ATOM     32  C   UNL d   1      27.652 -14.772  -5.632  0.00  0.00     0.004 C 
ATOM     33  C   UNL d   1      26.421 -12.356  -4.376  0.00  0.00     0.034 C 
ATOM     34  C   UNL d   1      28.534 -14.342  -6.625  0.00  0.00     0.000 C 
ATOM     35  C   UNL d   1      28.122 -13.111  -6.909  0.00  0.00    -0.003 C 
ATOM     36  C   UNL d   1      27.143 -12.238  -5.887  0.00  0.00    -0.009 C 
ATOM     37  C   UNL d   1      25.865 -12.736  -2.674  0.00  0.00     0.142 C 
ENDBRANCH   6  28
TORSDOF 6
ENDMDL
MODEL 2
REMARK VINA RESULT:    -9.537      5.922      8.289
REMARK INTER + INTRA:         -12.305
REMARK INTER:                 -11.327
REMARK INTRA:                  -0.978
REMARK CONF_INDEPENDENT:        1.790
REMARK UNBOUND:                -0.978
REMARK  6 active torsions:
REMARK  status: ('A' for Active; 'I' for Inactive)
REMARK    1  A    between atoms: C_3  and  C_2 
REMARK    2  A    between atoms: C_3  and  N_5 
REMARK       I    between atoms: N_5  and  C_6 
REMARK    3  A    between atoms: C_6  and  C_8 
REMARK    4  A    between atoms: C_10  and  N_11 
REMARK       I    between atoms: N_11  and  C_12 
REMARK       I    between atoms: C_12  and  N_14 
REMARK    5  A    between atoms: N_14  and  C_15 
REMARK    6  A    between atoms: C_24  and  N_25 
ROOT
ATOM      1  C   UNL d   1      26.354 -15.538  -2.828  0.00  0.00     0.060 A 
ATOM      2  C   UNL d   1      25.342 -16.189  -2.022  0.00  0.00     0.049 A 
ATOM      3  C   UNL d   1      25.698 -17.028  -0.975  0.00  0.00     0.037 A 
ATOM      4  C   UNL d   1      27.073 -17.275  -0.889  0.00  0.00     0.032 A 
ATOM      5  C   UNL d   1      28.077 -16.625  -1.704  0.00  0.00     0.032 A 
ATOM      6  C   UNL d   1      27.774 -15.719  -2.750  0.00  0.00     0.046 A 
ENDROOT
BRANCH   3   7
ATOM      7  N   UNL d   1      24.728 -17.551  -0.025  0.00  0.00    -0.309 N 
ATOM      8  C   UNL d   1      23.491 -18.078  -0.409  0.00  0.00     0.325 C 
ATOM      9  O   UNL d   1      23.097 -18.073  -1.574  0.00  0.00    -0.247 OA
ATOM     10  N   UNL d   1      22.664 -18.574   0.590  0.00  0.00    -0.309 N 
ATOM     11  H   UNL d   1      22.888 -18.485   1.570  0.00  0.00     0.170 HD
ATOM     12  H   UNL d   1      25.033 -17.654   0.935  0.00  0.00     0.170 HD
BRANCH  10  13
ATOM     13  C   UNL d   1      21.373 -19.115   0.256  0.00  0.00     0.036 A 
ATOM     14  C   UNL d   1      20.957 -19.262  -1.070  0.00  0.00     0.029 A 
ATOM     15  C   UNL d   1      19.652 -19.699  -1.364  0.00  0.00     0.003 A 
ATOM     16  C   UNL d   1      18.780 -20.080  -0.345  0.00  0.00     0.007 A 
ATOM     17  C   UNL d   1      19.178 -19.945   0.982  0.00  0.00    -0.060 A 
ATOM     18  C   UNL d   1      18.230 -20.228   2.106  0.00  0.00     0.048 C 
ATOM     19  C   UNL d   1      20.469 -19.474   1.267  0.00  0.00     0.036 A 
ENDBRANCH  10  13
ENDBRANCH   3   7
BRANCH   1  20
ATOM     20  C   UNL d   1      25.849 -14.466  -3.688  0.00  0.00     0.254 C 
ATOM     21  N   UNL d   1      26.383 -13.201  -3.481  0.00  0.00    -0.353 N 
ATOM     22  H   UNL d   1      27.036 -13.092  -2.710  0.00  0.00     0.163 HD
ATOM     23  O   UNL d   1      24.914 -14.742  -4.433  0.00  0.00    -0.268 OA
BRANCH  21  24
ATOM     24  C   UNL d   1      25.660 -11.993  -3.915  0.00  0.00     0.080 C 
ATOM     25  C   UNL d   1      26.275 -10.698  -3.412  0.00  0.00     0.032 C 
BRANCH  24  26
ATOM     26  C   UNL d   1      25.897 -11.882  -5.366  0.00  0.00     0.020 C 
ATOM     27  C   UNL d   1      27.006 -10.937  -5.695  0.00  0.00     0.007 C 
ENDBRANCH  24  26
ENDBRANCH  21  24
ENDBRANCH   1  20
BRANCH   6  28
ATOM     28  N   UNL d   1      28.697 -15.049  -3.513  0.00  0.00    -0.378 N 
ATOM     29  C   UNL d   1      29.124 -15.456  -4.806  0.00  0.00     0.127 C 
ATOM     30  C   UNL d   1      29.792 -14.021  -5.588  0.00  0.00     0.055 C 
ATOM     31  C   UNL d   1      30.811 -14.995  -5.934  0.00  0.00    -0.063 C 
ATOM     32  C   UNL d   1      30.603 -15.908  -7.190  0.00  0.00     0.004 C 
ATOM     33  C   UNL d   1      31.465 -14.594  -4.648  0.00  0.00     0.034 C 
ATOM     34  C   UNL d   1      31.670 -16.671  -7.667  0.00  0.00     0.000 C 
ATOM     35  C   UNL d   1      32.734 -16.140  -7.072  0.00  0.00    -0.003 C 
ATOM     36  C   UNL d   1      32.616 -15.180  -5.720  0.00  0.00    -0.009 C 
ATOM     37  C   UNL d   1      30.011 -14.209  -3.605  0.00  0.00     0.142 C 
ENDBRANCH   6  28
TORSDOF 6
ENDMDL
MODEL 3
REMARK VINA RESULT:    -9.302      5.215      8.539
REMARK INTER + INTRA:         -12.396
REMARK INTER:                 -11.092
REMARK INTRA:                  -1.304
REMARK CONF_INDEPENDENT:        1.790
REMARK UNBOUND:                -1.304
REMARK  6 active torsions:
REMARK  status: ('A' for Active; 'I' for Inactive)
REMARK    1  A    between atoms: C_3  and  C_2 
REMARK    2  A    between atoms: C_3  and  N_5 
REMARK       I    between atoms: N_5  and  C_6 
REMARK    3  A    between atoms: C_6  and  C_8 
REMARK    4  A    between atoms: C_10  and  N_11 
REMARK       I    between atoms: N_11  and  C_12 
REMARK       I    between atoms: C_12  and  N_14 
REMARK    5  A    between atoms: N_14  and  C_15 
REMARK    6  A    between atoms: C_24  and  N_25 
ROOT
ATOM      1  C   UNL d   1      26.174 -15.114  -2.614  0.00  0.00     0.060 A 
ATOM      2  C   UNL d   1      25.682 -16.420  -2.230  0.00  0.00     0.049 A 
ATOM      3  C   UNL d   1      25.397 -16.713  -0.903  0.00  0.00     0.037 A 
ATOM      4  C   UNL d   1      25.763 -15.700  -0.009  0.00  0.00     0.032 A 
ATOM      5  C   UNL d   1      26.262 -14.398  -0.401  0.00  0.00     0.032 A 
ATOM      6  C   UNL d   1      26.520 -14.027  -1.743  0.00  0.00     0.046 A 
ENDROOT
BRANCH   3   7
ATOM      7  N   UNL d   1      24.726 -17.938  -0.497  0.00  0.00    -0.309 N 
ATOM      8  C   UNL d   1      23.339 -18.099  -0.543  0.00  0.00     0.325 C 
ATOM      9  O   UNL d   1      22.572 -17.191  -0.860  0.00  0.00    -0.247 OA
ATOM     10  N   UNL d   1      22.819 -19.328  -0.157  0.00  0.00    -0.309 N 
ATOM     11  H   UNL d   1      23.395 -20.059   0.231  0.00  0.00     0.170 HD
ATOM     12  H   UNL d   1      25.311 -18.741  -0.304  0.00  0.00     0.170 HD
BRANCH  10  13
ATOM     13  C   UNL d   1      21.397 -19.547  -0.169  0.00  0.00     0.036 A 
ATOM     14  C   UNL d   1      20.628 -19.325  -1.316  0.00  0.00     0.029 A 
ATOM     15  C   UNL d   1      19.227 -19.450  -1.269  0.00  0.00     0.003 A 
ATOM     16  C   UNL d   1      18.587 -19.884  -0.110  0.00  0.00     0.007 A 
ATOM     17  C   UNL d   1      19.336 -20.115   1.040  0.00  0.00    -0.060 A 
ATOM     18  C   UNL d   1      18.674 -20.465   2.336  0.00  0.00     0.048 C 
ATOM     19  C   UNL d   1      20.729 -19.953   0.996  0.00  0.00     0.036 A 
ENDBRANCH  10  13
ENDBRANCH   3   7
BRANCH   1  20
ATOM     20  C   UNL d   1      26.146 -14.852  -4.054  0.00  0.00     0.254 C 
ATOM     21  N   UNL d   1      27.376 -14.752  -4.690  0.00  0.00    -0.353 N 
ATOM     22  H   UNL d   1      28.207 -14.803  -4.107  0.00  0.00     0.163 HD
ATOM     23  O   UNL d   1      25.052 -14.620  -4.557  0.00  0.00    -0.268 OA
BRANCH  21  24
ATOM     24  C   UNL d   1      27.509 -14.045  -5.976  0.00  0.00     0.080 C 
ATOM     25  C   UNL d   1      28.235 -12.715  -5.871  0.00  0.00     0.032 C 
BRANCH  24  26
ATOM     26  C   UNL d   1      28.465 -14.835  -6.773  0.00  0.00     0.020 C 
ATOM     27  C   UNL d   1      29.887 -14.510  -6.450  0.00  0.00     0.007 C 
ENDBRANCH  24  26
ENDBRANCH  21  24
ENDBRANCH   1  20
BRANCH   6  28
ATOM     28  N   UNL d   1      26.948 -12.792  -2.158  0.00  0.00    -0.378 N 
ATOM     29  C   UNL d   1      27.037 -11.645  -1.323  0.00  0.00     0.127 C 
ATOM     30  C   UNL d   1      28.171 -10.541  -2.106  0.00  0.00     0.055 C 
ATOM     31  C   UNL d   1      27.120  -9.609  -1.741  0.00  0.00    -0.063 C 
ATOM     32  C   UNL d   1      27.106  -8.995  -0.300  0.00  0.00     0.004 C 
ATOM     33  C   UNL d   1      26.526  -9.939  -3.076  0.00  0.00     0.034 C 
ATOM     34  C   UNL d   1      26.253  -7.927  -0.019  0.00  0.00     0.000 C 
ATOM     35  C   UNL d   1      25.884  -7.487  -1.217  0.00  0.00    -0.003 C 
ATOM     36  C   UNL d   1      26.041  -8.406  -2.594  0.00  0.00    -0.009 C 
ATOM     37  C   UNL d   1      27.013 -11.693  -3.267  0.00  0.00     0.142 C 
ENDBRANCH   6  28
TORSDOF 6
ENDMDL
MODEL 4
REMARK VINA RESULT:    -9.286      4.914      9.045
REMARK INTER + INTRA:         -12.074
REMARK INTER:                 -11.075
REMARK INTRA:                  -0.999
REMARK CONF_INDEPENDENT:        1.790
REMARK UNBOUND:                -0.999
REMARK  6 active torsions:
REMARK  status: ('A' for Active; 'I' for Inactive)
REMARK    1  A    between atoms: C_3  and  C_2 
REMARK    2  A    between atoms: C_3  and  N_5 
REMARK       I    between atoms: N_5  and  C_6 
REMARK    3  A    between atoms: C_6  and  C_8 
REMARK    4  A    between atoms: C_10  and  N_11 
REMARK       I    between atoms: N_11  and  C_12 
REMARK       I    between atoms: C_12  and  N_14 
REMARK    5  A    between atoms: N_14  and  C_15 
REMARK    6  A    between atoms: C_24  and  N_25 
ROOT
ATOM      1  C   UNL d   1      26.950 -16.309  -2.000  0.00  0.00     0.060 A 
ATOM      2  C   UNL d   1      25.541 -16.548  -2.238  0.00  0.00     0.049 A 
ATOM      3  C   UNL d   1      24.742 -17.123  -1.260  0.00  0.00     0.037 A 
ATOM      4  C   UNL d   1      25.449 -17.558  -0.133  0.00  0.00     0.032 A 
ATOM      5  C   UNL d   1      26.859 -17.321   0.094  0.00  0.00     0.032 A 
ATOM      6  C   UNL d   1      27.712 -16.691  -0.847  0.00  0.00     0.046 A 
ENDROOT
BRANCH   3   7
ATOM      7  N   UNL d   1      23.294 -17.208  -1.380  0.00  0.00    -0.309 N 
ATOM      8  C   UNL d   1      22.525 -18.153  -0.694  0.00  0.00     0.325 C 
ATOM      9  O   UNL d   1      23.020 -19.033   0.007  0.00  0.00    -0.247 OA
ATOM     10  N   UNL d   1      21.148 -18.112  -0.868  0.00  0.00    -0.309 N 
ATOM     11  H   UNL d   1      20.706 -17.492  -1.530  0.00  0.00     0.170 HD
ATOM     12  H   UNL d   1      22.829 -16.459  -1.878  0.00  0.00     0.170 HD
BRANCH  10  13
ATOM     13  C   UNL d   1      20.307 -19.069  -0.199  0.00  0.00     0.036 A 
ATOM     14  C   UNL d   1      19.245 -19.700  -0.853  0.00  0.00     0.029 A 
ATOM     15  C   UNL d   1      18.378 -20.554  -0.145  0.00  0.00     0.003 A 
ATOM     16  C   UNL d   1      18.613 -20.858   1.195  0.00  0.00     0.007 A 
ATOM     17  C   UNL d   1      19.668 -20.243   1.862  0.00  0.00    -0.060 A 
ATOM     18  C   UNL d   1      19.881 -20.450   3.329  0.00  0.00     0.048 C 
ATOM     19  C   UNL d   1      20.506 -19.365   1.158  0.00  0.00     0.036 A 
ENDBRANCH  10  13
ENDBRANCH   3   7
BRANCH   1  20
ATOM     20  C   UNL d   1      27.594 -15.439  -2.986  0.00  0.00     0.254 C 
ATOM     21  N   UNL d   1      27.135 -14.131  -3.051  0.00  0.00    -0.353 N 
ATOM     22  H   UNL d   1      26.346 -13.884  -2.460  0.00  0.00     0.163 HD
ATOM     23  O   UNL d   1      28.394 -15.963  -3.753  0.00  0.00    -0.268 OA
BRANCH  21  24
ATOM     24  C   UNL d   1      27.340 -13.315  -4.261  0.00  0.00     0.080 C 
ATOM     25  C   UNL d   1      27.442 -14.132  -5.538  0.00  0.00     0.032 C 
BRANCH  24  26
ATOM     26  C   UNL d   1      26.073 -12.594  -4.480  0.00  0.00     0.020 C 
ATOM     27  C   UNL d   1      24.878 -13.402  -4.090  0.00  0.00     0.007 C 
ENDBRANCH  24  26
ENDBRANCH  21  24
ENDBRANCH   1  20
BRANCH   6  28
ATOM     28  N   UNL d   1      29.040 -16.409  -0.651  0.00  0.00    -0.378 N 
ATOM     29  C   UNL d   1      30.053 -17.386  -0.454  0.00  0.00     0.127 C 
ATOM     30  C   UNL d   1      31.585 -16.608  -0.862  0.00  0.00     0.055 C 
ATOM     31  C   UNL d   1      31.961 -17.280   0.368  0.00  0.00    -0.063 C 
ATOM     32  C   UNL d   1      32.404 -18.781   0.317  0.00  0.00     0.004 C 
ATOM     33  C   UNL d   1      31.511 -16.026   1.052  0.00  0.00     0.034 C 
ATOM     34  C   UNL d   1      32.993 -19.361   1.442  0.00  0.00     0.000 C 
ATOM     35  C   UNL d   1      33.325 -18.322   2.201  0.00  0.00    -0.003 C 
ATOM     36  C   UNL d   1      32.660 -16.812   1.990  0.00  0.00    -0.009 C 
ATOM     37  C   UNL d   1      30.143 -15.488  -0.037  0.00  0.00     0.142 C 
ENDBRANCH   6  28
TORSDOF 6
ENDMDL
MODEL 5
REMARK VINA RESULT:    -9.040      5.924      8.157
REMARK INTER + INTRA:         -12.275
REMARK INTER:                 -10.830
REMARK INTRA:                  -1.445
REMARK CONF_INDEPENDENT:        1.790
REMARK UNBOUND:                -1.445
REMARK  6 active torsions:
REMARK  status: ('A' for Active; 'I' for Inactive)
REMARK    1  A    between atoms: C_3  and  C_2 
REMARK    2  A    between atoms: C_3  and  N_5 
REMARK       I    between atoms: N_5  and  C_6 
REMARK    3  A    between atoms: C_6  and  C_8 
REMARK    4  A    between atoms: C_10  and  N_11 
REMARK       I    between atoms: N_11  and  C_12 
REMARK       I    between atoms: C_12  and  N_14 
REMARK    5  A    between atoms: N_14  and  C_15 
REMARK    6  A    between atoms: C_24  and  N_25 
ROOT
ATOM      1  C   UNL d   1      26.425 -15.621  -2.865  0.00  0.00     0.060 A 
ATOM      2  C   UNL d   1      25.399 -16.237  -2.049  0.00  0.00     0.049 A 
ATOM      3  C   UNL d   1      25.737 -17.056  -0.980  0.00  0.00     0.037 A 
ATOM      4  C   UNL d   1      27.108 -17.321  -0.880  0.00  0.00     0.032 A 
ATOM      5  C   UNL d   1      28.126 -16.705  -1.705  0.00  0.00     0.032 A 
ATOM      6  C   UNL d   1      27.842 -15.821  -2.775  0.00  0.00     0.046 A 
ENDROOT
BRANCH   3   7
ATOM      7  N   UNL d   1      24.754 -17.540  -0.022  0.00  0.00    -0.309 N 
ATOM      8  C   UNL d   1      23.518 -18.072  -0.401  0.00  0.00     0.325 C 
ATOM      9  O   UNL d   1      23.135 -18.104  -1.569  0.00  0.00    -0.247 OA
ATOM     10  N   UNL d   1      22.678 -18.530   0.606  0.00  0.00    -0.309 N 
ATOM     11  H   UNL d   1      22.893 -18.410   1.584  0.00  0.00     0.170 HD
ATOM     12  H   UNL d   1      25.049 -17.612   0.944  0.00  0.00     0.170 HD
BRANCH  10  13
ATOM     13  C   UNL d   1      21.387 -19.074   0.277  0.00  0.00     0.036 A 
ATOM     14  C   UNL d   1      20.844 -18.958  -1.006  0.00  0.00     0.029 A 
ATOM     15  C   UNL d   1      19.538 -19.411  -1.271  0.00  0.00     0.003 A 
ATOM     16  C   UNL d   1      18.796 -20.063  -0.288  0.00  0.00     0.007 A 
ATOM     17  C   UNL d   1      19.321 -20.193   0.994  0.00  0.00    -0.060 A 
ATOM     18  C   UNL d   1      18.509 -20.778   2.107  0.00  0.00     0.048 C 
ATOM     19  C   UNL d   1      20.610 -19.706   1.260  0.00  0.00     0.036 A 
ENDBRANCH  10  13
ENDBRANCH   3   7
BRANCH   1  20
ATOM     20  C   UNL d   1      25.941 -14.563  -3.754  0.00  0.00     0.254 C 
ATOM     21  N   UNL d   1      26.304 -13.264  -3.425  0.00  0.00    -0.353 N 
ATOM     22  H   UNL d   1      26.822 -13.129  -2.562  0.00  0.00     0.163 HD
ATOM     23  O   UNL d   1      25.158 -14.893  -4.639  0.00  0.00    -0.268 OA
BRANCH  21  24
ATOM     24  C   UNL d   1      25.529 -12.112  -3.922  0.00  0.00     0.080 C 
ATOM     25  C   UNL d   1      25.988 -10.778  -3.358  0.00  0.00     0.032 C 
BRANCH  24  26
ATOM     26  C   UNL d   1      25.890 -11.966  -5.343  0.00  0.00     0.020 C 
ATOM     27  C   UNL d   1      25.907 -10.539  -5.786  0.00  0.00     0.007 C 
ENDBRANCH  24  26
ENDBRANCH  21  24
ENDBRANCH   1  20
BRANCH   6  28
ATOM     28  N   UNL d   1      28.778 -15.184  -3.549  0.00  0.00    -0.378 N 
ATOM     29  C   UNL d   1      29.029 -13.785  -3.525  0.00  0.00     0.127 C 
ATOM     30  C   UNL d   1      30.652 -13.556  -4.183  0.00  0.00     0.055 C 
ATOM     31  C   UNL d   1      29.942 -12.502  -4.885  0.00  0.00    -0.063 C 
ATOM     32  C   UNL d   1      29.742 -11.115  -4.185  0.00  0.00     0.004 C 
ATOM     33  C   UNL d   1      29.671 -13.542  -5.928  0.00  0.00     0.034 C 
ATOM     34  C   UNL d   1      29.280 -10.031  -4.933  0.00  0.00     0.000 C 
ATOM     35  C   UNL d   1      29.444 -10.418  -6.194  0.00  0.00    -0.003 C 
ATOM     36  C   UNL d   1      29.646 -12.012  -6.620  0.00  0.00    -0.009 C 
ATOM     37  C   UNL d   1      29.538 -15.055  -4.908  0.00  0.00     0.142 C 
ENDBRANCH   6  28
TORSDOF 6
ENDMDL
MODEL 6
REMARK VINA RESULT:    -8.860      5.873      8.223
REMARK INTER + INTRA:         -11.701
REMARK INTER:                 -10.650
REMARK INTRA:                  -1.051
REMARK CONF_INDEPENDENT:        1.790
REMARK UNBOUND:                -1.051
REMARK  6 active torsions:
REMARK  status: ('A' for Active; 'I' for Inactive)
REMARK    1  A    between atoms: C_3  and  C_2 
REMARK    2  A    between atoms: C_3  and  N_5 
REMARK       I    between atoms: N_5  and  C_6 
REMARK    3  A    between atoms: C_6  and  C_8 
REMARK    4  A    between atoms: C_10  and  N_11 
REMARK       I    between atoms: N_11  and  C_12 
REMARK       I    between atoms: C_12  and  N_14 
REMARK    5  A    between atoms: N_14  and  C_15 
REMARK    6  A    between atoms: C_24  and  N_25 
ROOT
ATOM      1  C   UNL d   1      26.983 -15.244  -2.217  0.00  0.00     0.060 A 
ATOM      2  C   UNL d   1      26.435 -16.305  -1.398  0.00  0.00     0.049 A 
ATOM      3  C   UNL d   1      25.065 -16.524  -1.340  0.00  0.00     0.037 A 
ATOM      4  C   UNL d   1      24.308 -15.557  -2.012  0.00  0.00     0.032 A 
ATOM      5  C   UNL d   1      24.865 -14.495  -2.823  0.00  0.00     0.032 A 
ATOM      6  C   UNL d   1      26.255 -14.258  -2.962  0.00  0.00     0.046 A 
ENDROOT
BRANCH   3   7
ATOM      7  N   UNL d   1      24.484 -17.687  -0.687  0.00  0.00    -0.309 N 
ATOM      8  C   UNL d   1      23.119 -17.985  -0.733  0.00  0.00     0.325 C 
ATOM      9  O   UNL d   1      22.293 -17.248  -1.267  0.00  0.00    -0.247 OA
ATOM     10  N   UNL d   1      22.690 -19.142  -0.095  0.00  0.00    -0.309 N 
ATOM     11  H   UNL d   1      23.308 -19.711   0.462  0.00  0.00     0.170 HD
ATOM     12  H   UNL d   1      25.126 -18.368  -0.303  0.00  0.00     0.170 HD
BRANCH  10  13
ATOM     13  C   UNL d   1      21.294 -19.493  -0.097  0.00  0.00     0.036 A 
ATOM     14  C   UNL d   1      20.527 -19.451  -1.265  0.00  0.00     0.029 A 
ATOM     15  C   UNL d   1      19.142 -19.701  -1.217  0.00  0.00     0.003 A 
ATOM     16  C   UNL d   1      18.527 -20.083  -0.026  0.00  0.00     0.007 A 
ATOM     17  C   UNL d   1      19.276 -20.135   1.146  0.00  0.00    -0.060 A 
ATOM     18  C   UNL d   1      18.629 -20.423   2.464  0.00  0.00     0.048 C 
ATOM     19  C   UNL d   1      20.648 -19.849   1.096  0.00  0.00     0.036 A 
ENDBRANCH  10  13
ENDBRANCH   3   7
BRANCH   1  20
ATOM     20  C   UNL d   1      28.432 -15.317  -2.417  0.00  0.00     0.254 C 
ATOM     21  N   UNL d   1      28.870 -15.459  -3.726  0.00  0.00    -0.353 N 
ATOM     22  H   UNL d   1      28.161 -15.567  -4.446  0.00  0.00     0.163 HD
ATOM     23  O   UNL d   1      29.131 -15.370  -1.410  0.00  0.00    -0.268 OA
BRANCH  21  24
ATOM     24  C   UNL d   1      30.206 -16.007  -4.022  0.00  0.00     0.080 C 
ATOM     25  C   UNL d   1      30.596 -17.179  -3.139  0.00  0.00     0.032 C 
BRANCH  24  26
ATOM     26  C   UNL d   1      30.091 -16.661  -5.338  0.00  0.00     0.020 C 
ATOM     27  C   UNL d   1      30.366 -18.129  -5.274  0.00  0.00     0.007 C 
ENDBRANCH  24  26
ENDBRANCH  21  24
ENDBRANCH   1  20
BRANCH   6  28
ATOM     28  N   UNL d   1      26.821 -13.293  -3.755  0.00  0.00    -0.378 N 
ATOM     29  C   UNL d   1      26.407 -11.934  -3.794  0.00  0.00     0.127 C 
ATOM     30  C   UNL d   1      27.766 -11.014  -4.445  0.00  0.00     0.055 C 
ATOM     31  C   UNL d   1      26.676 -10.427  -5.203  0.00  0.00    -0.063 C 
ATOM     32  C   UNL d   1      25.846  -9.260  -4.571  0.00  0.00     0.004 C 
ATOM     33  C   UNL d   1      26.939 -11.514  -6.199  0.00  0.00     0.034 C 
ATOM     34  C   UNL d   1      24.964  -8.533  -5.372  0.00  0.00     0.000 C 
ATOM     35  C   UNL d   1      25.324  -8.849  -6.612  0.00  0.00    -0.003 C 
ATOM     36  C   UNL d   1      26.242 -10.190  -6.962  0.00  0.00    -0.009 C 
ATOM     37  C   UNL d   1      27.479 -12.882  -5.111  0.00  0.00     0.142 C 
ENDBRANCH   6  28
TORSDOF 6
ENDMDL
MODEL 7
REMARK VINA RESULT:    -8.728      5.564     11.365
REMARK INTER + INTRA:         -12.006
REMARK INTER:                 -10.518
REMARK INTRA:                  -1.488
REMARK CONF_INDEPENDENT:        1.790
REMARK UNBOUND:                -1.488
REMARK  6 active torsions:
REMARK  status: ('A' for Active; 'I' for Inactive)
REMARK    1  A    between atoms: C_3  and  C_2 
REMARK    2  A    between atoms: C_3  and  N_5 
REMARK       I    between atoms: N_5  and  C_6 
REMARK    3  A    between atoms: C_6  and  C_8 
REMARK    4  A    between atoms: C_10  and  N_11 
REMARK       I    between atoms: N_11  and  C_12 
REMARK       I    between atoms: C_12  and  N_14 
REMARK    5  A    between atoms: N_14  and  C_15 
REMARK    6  A    between atoms: C_24  and  N_25 
ROOT
ATOM      1  C   UNL d   1      28.411 -15.561  -4.643  0.00  0.00     0.060 A 
ATOM      2  C   UNL d   1      29.405 -15.850  -5.655  0.00  0.00     0.049 A 
ATOM      3  C   UNL d   1      30.455 -16.720  -5.394  0.00  0.00     0.037 A 
ATOM      4  C   UNL d   1      30.521 -17.146  -4.062  0.00  0.00     0.032 A 
ATOM      5  C   UNL d   1      29.526 -16.846  -3.054  0.00  0.00     0.032 A 
ATOM      6  C   UNL d   1      28.405 -16.009  -3.280  0.00  0.00     0.046 A 
ENDROOT
BRANCH   3   7
ATOM      7  N   UNL d   1      31.364 -17.185  -6.431  0.00  0.00    -0.309 N 
ATOM      8  C   UNL d   1      31.352 -18.493  -6.925  0.00  0.00     0.325 C 
ATOM      9  O   UNL d   1      30.622 -19.371  -6.470  0.00  0.00    -0.247 OA
ATOM     10  N   UNL d   1      32.250 -18.807  -7.938  0.00  0.00    -0.309 N 
ATOM     11  H   UNL d   1      32.953 -18.158  -8.256  0.00  0.00     0.170 HD
ATOM     12  H   UNL d   1      31.928 -16.485  -6.896  0.00  0.00     0.170 HD
BRANCH  10  13
ATOM     13  C   UNL d   1      32.293 -20.141  -8.475  0.00  0.00     0.036 A 
ATOM     14  C   UNL d   1      31.941 -20.412  -9.801  0.00  0.00     0.029 A 
ATOM     15  C   UNL d   1      31.895 -21.739 -10.269  0.00  0.00     0.003 A 
ATOM     16  C   UNL d   1      32.286 -22.798  -9.452  0.00  0.00     0.007 A 
ATOM     17  C   UNL d   1      32.644 -22.548  -8.131  0.00  0.00    -0.060 A 
ATOM     18  C   UNL d   1      32.954 -23.668  -7.188  0.00  0.00     0.048 C 
ATOM     19  C   UNL d   1      32.652 -21.226  -7.661  0.00  0.00     0.036 A 
ENDBRANCH  10  13
ENDBRANCH   3   7
BRANCH   1  20
ATOM     20  C   UNL d   1      27.216 -14.877  -5.141  0.00  0.00     0.254 C 
ATOM     21  N   UNL d   1      27.197 -13.495  -5.018  0.00  0.00    -0.353 N 
ATOM     22  H   UNL d   1      27.978 -13.059  -4.536  0.00  0.00     0.163 HD
ATOM     23  O   UNL d   1      26.284 -15.583  -5.511  0.00  0.00    -0.268 OA
BRANCH  21  24
ATOM     24  C   UNL d   1      25.925 -12.751  -5.028  0.00  0.00     0.080 C 
ATOM     25  C   UNL d   1      24.818 -13.421  -4.233  0.00  0.00     0.032 C 
BRANCH  24  26
ATOM     26  C   UNL d   1      26.162 -11.536  -4.229  0.00  0.00     0.020 C 
ATOM     27  C   UNL d   1      26.246 -11.821  -2.764  0.00  0.00     0.007 C 
ENDBRANCH  24  26
ENDBRANCH  21  24
ENDBRANCH   1  20
BRANCH   6  28
ATOM     28  N   UNL d   1      27.419 -15.738  -2.366  0.00  0.00    -0.378 N 
ATOM     29  C   UNL d   1      26.759 -16.718  -1.576  0.00  0.00     0.127 C 
ATOM     30  C   UNL d   1      26.072 -15.865  -0.191  0.00  0.00     0.055 C 
ATOM     31  C   UNL d   1      24.946 -16.707  -0.554  0.00  0.00    -0.063 C 
ATOM     32  C   UNL d   1      24.884 -18.176  -0.017  0.00  0.00     0.004 C 
ATOM     33  C   UNL d   1      24.540 -15.576  -1.448  0.00  0.00     0.034 C 
ATOM     34  C   UNL d   1      23.704 -18.909  -0.158  0.00  0.00     0.000 C 
ATOM     35  C   UNL d   1      22.790 -17.989  -0.451  0.00  0.00    -0.003 C 
ATOM     36  C   UNL d   1      23.192 -16.475  -1.010  0.00  0.00    -0.009 C 
ATOM     37  C   UNL d   1      26.167 -14.903  -1.946  0.00  0.00     0.142 C 
ENDBRANCH   6  28
TORSDOF 6
ENDMDL
MODEL 8
REMARK VINA RESULT:    -8.572      2.768      4.881
REMARK INTER + INTRA:         -11.682
REMARK INTER:                 -10.362
REMARK INTRA:                  -1.320
REMARK CONF_INDEPENDENT:        1.790
REMARK UNBOUND:                -1.320
REMARK  6 active torsions:
REMARK  status: ('A' for Active; 'I' for Inactive)
REMARK    1  A    between atoms: C_3  and  C_2 
REMARK    2  A    between atoms: C_3  and  N_5 
REMARK       I    between atoms: N_5  and  C_6 
REMARK    3  A    between atoms: C_6  and  C_8 
REMARK    4  A    between atoms: C_10  and  N_11 
REMARK       I    between atoms: N_11  and  C_12 
REMARK       I    between atoms: C_12  and  N_14 
REMARK    5  A    between atoms: N_14  and  C_15 
REMARK    6  A    between atoms: C_24  and  N_25 
ROOT
ATOM      1  C   UNL d   1      29.433 -14.796   1.264  0.00  0.00     0.060 A 
ATOM      2  C   UNL d   1      30.233 -14.358   2.389  0.00  0.00     0.049 A 
ATOM      3  C   UNL d   1      29.637 -14.023   3.598  0.00  0.00     0.037 A 
ATOM      4  C   UNL d   1      28.238 -14.017   3.558  0.00  0.00     0.032 A 
ATOM      5  C   UNL d   1      27.447 -14.450   2.426  0.00  0.00     0.032 A 
ATOM      6  C   UNL d   1      28.002 -14.853   1.186  0.00  0.00     0.046 A 
ENDROOT
BRANCH   3   7
ATOM      7  N   UNL d   1      30.406 -13.763   4.805  0.00  0.00    -0.309 N 
ATOM      8  C   UNL d   1      29.929 -14.042   6.089  0.00  0.00     0.325 C 
ATOM      9  O   UNL d   1      28.793 -14.461   6.302  0.00  0.00    -0.247 OA
ATOM     10  N   UNL d   1      30.771 -13.776   7.162  0.00  0.00    -0.309 N 
ATOM     11  H   UNL d   1      31.661 -13.316   7.047  0.00  0.00     0.170 HD
ATOM     12  H   UNL d   1      31.376 -13.495   4.685  0.00  0.00     0.170 HD
BRANCH  10  13
ATOM     13  C   UNL d   1      30.329 -14.030   8.507  0.00  0.00     0.036 A 
ATOM     14  C   UNL d   1      30.983 -14.944   9.337  0.00  0.00     0.029 A 
ATOM     15  C   UNL d   1      30.467 -15.246  10.612  0.00  0.00     0.003 A 
ATOM     16  C   UNL d   1      29.350 -14.576  11.106  0.00  0.00     0.007 A 
ATOM     17  C   UNL d   1      28.687 -13.659  10.296  0.00  0.00    -0.060 A 
ATOM     18  C   UNL d   1      27.416 -13.008  10.744  0.00  0.00     0.048 C 
ATOM     19  C   UNL d   1      29.187 -13.390   9.013  0.00  0.00     0.036 A 
ENDBRANCH  10  13
ENDBRANCH   3   7
BRANCH   1  20
ATOM     20  C   UNL d   1      30.200 -15.392   0.169  0.00  0.00     0.254 C 
ATOM     21  N   UNL d   1      30.328 -16.775   0.183  0.00  0.00    -0.353 N 
ATOM     22  H   UNL d   1      29.939 -17.270   0.980  0.00  0.00     0.163 HD
ATOM     23  O   UNL d   1      30.768 -14.622  -0.599  0.00  0.00    -0.268 OA
BRANCH  21  24
ATOM     24  C   UNL d   1      31.422 -17.442  -0.545  0.00  0.00     0.080 C 
ATOM     25  C   UNL d   1      32.030 -18.615   0.206  0.00  0.00     0.032 C 
BRANCH  24  26
ATOM     26  C   UNL d   1      30.789 -18.125  -1.687  0.00  0.00     0.020 C 
ATOM     27  C   UNL d   1      30.141 -17.172  -2.638  0.00  0.00     0.007 C 
ENDBRANCH  24  26
ENDBRANCH  21  24
ENDBRANCH   1  20
BRANCH   6  28
ATOM     28  N   UNL d   1      27.290 -15.312   0.107  0.00  0.00    -0.378 N 
ATOM     29  C   UNL d   1      25.871 -15.349   0.033  0.00  0.00     0.127 C 
ATOM     30  C   UNL d   1      25.460 -15.417  -1.683  0.00  0.00     0.055 C 
ATOM     31  C   UNL d   1      24.558 -16.430  -1.166  0.00  0.00    -0.063 C 
ATOM     32  C   UNL d   1      23.173 -15.995  -0.579  0.00  0.00     0.004 C 
ATOM     33  C   UNL d   1      25.686 -17.386  -1.403  0.00  0.00     0.034 C 
ATOM     34  C   UNL d   1      22.209 -16.966  -0.306  0.00  0.00     0.000 C 
ATOM     35  C   UNL d   1      22.645 -18.041  -0.955  0.00  0.00    -0.003 C 
ATOM     36  C   UNL d   1      24.219 -18.200  -1.466  0.00  0.00    -0.009 C 
ATOM     37  C   UNL d   1      27.139 -16.324  -1.073  0.00  0.00     0.142 C 
ENDBRANCH   6  28
TORSDOF 6
ENDMDL
MODEL 9
REMARK VINA RESULT:    -8.220      5.522      8.154
REMARK INTER + INTRA:         -11.512
REMARK INTER:                 -10.009
REMARK INTRA:                  -1.502
REMARK CONF_INDEPENDENT:        1.790
REMARK UNBOUND:                -1.502
REMARK  6 active torsions:
REMARK  status: ('A' for Active; 'I' for Inactive)
REMARK    1  A    between atoms: C_3  and  C_2 
REMARK    2  A    between atoms: C_3  and  N_5 
REMARK       I    between atoms: N_5  and  C_6 
REMARK    3  A    between atoms: C_6  and  C_8 
REMARK    4  A    between atoms: C_10  and  N_11 
REMARK       I    between atoms: N_11  and  C_12 
REMARK       I    between atoms: C_12  and  N_14 
REMARK    5  A    between atoms: N_14  and  C_15 
REMARK    6  A    between atoms: C_24  and  N_25 
ROOT
ATOM      1  C   UNL d   1      27.362 -15.778  -1.619  0.00  0.00     0.060 A 
ATOM      2  C   UNL d   1      26.541 -16.433  -0.622  0.00  0.00     0.049 A 
ATOM      3  C   UNL d   1      25.189 -16.652  -0.845  0.00  0.00     0.037 A 
ATOM      4  C   UNL d   1      24.706 -16.064  -2.020  0.00  0.00     0.032 A 
ATOM      5  C   UNL d   1      25.533 -15.404  -3.008  0.00  0.00     0.032 A 
ATOM      6  C   UNL d   1      26.927 -15.201  -2.857  0.00  0.00     0.046 A 
ENDROOT
BRANCH   3   7
ATOM      7  N   UNL d   1      24.370 -17.469   0.038  0.00  0.00    -0.309 N 
ATOM      8  C   UNL d   1      23.104 -17.943  -0.317  0.00  0.00     0.325 C 
ATOM      9  O   UNL d   1      22.552 -17.643  -1.374  0.00  0.00    -0.247 OA
ATOM     10  N   UNL d   1      22.433 -18.740   0.602  0.00  0.00    -0.309 N 
ATOM     11  H   UNL d   1      22.789 -18.908   1.530  0.00  0.00     0.170 HD
ATOM     12  H   UNL d   1      24.807 -17.812   0.884  0.00  0.00     0.170 HD
BRANCH  10  13
ATOM     13  C   UNL d   1      21.120 -19.244   0.297  0.00  0.00     0.036 A 
ATOM     14  C   UNL d   1      20.638 -19.297  -1.013  0.00  0.00     0.029 A 
ATOM     15  C   UNL d   1      19.313 -19.699  -1.270  0.00  0.00     0.003 A 
ATOM     16  C   UNL d   1      18.488 -20.139  -0.236  0.00  0.00     0.007 A 
ATOM     17  C   UNL d   1      18.953 -20.098   1.075  0.00  0.00    -0.060 A 
ATOM     18  C   UNL d   1      18.058 -20.447   2.224  0.00  0.00     0.048 C 
ATOM     19  C   UNL d   1      20.262 -19.661   1.326  0.00  0.00     0.036 A 
ENDBRANCH  10  13
ENDBRANCH   3   7
BRANCH   1  20
ATOM     20  C   UNL d   1      28.803 -15.881  -1.383  0.00  0.00     0.254 C 
ATOM     21  N   UNL d   1      29.562 -16.423  -2.411  0.00  0.00    -0.353 N 
ATOM     22  H   UNL d   1      29.064 -16.769  -3.226  0.00  0.00     0.163 HD
ATOM     23  O   UNL d   1      29.206 -15.596  -0.260  0.00  0.00    -0.268 OA
BRANCH  21  24
ATOM     24  C   UNL d   1      30.889 -17.008  -2.146  0.00  0.00     0.080 C 
ATOM     25  C   UNL d   1      30.834 -18.349  -1.434  0.00  0.00     0.032 C 
BRANCH  24  26
ATOM     26  C   UNL d   1      31.426 -17.400  -3.461  0.00  0.00     0.020 C 
ATOM     27  C   UNL d   1      30.727 -18.590  -4.035  0.00  0.00     0.007 C 
ENDBRANCH  24  26
ENDBRANCH  21  24
ENDBRANCH   1  20
BRANCH   6  28
ATOM     28  N   UNL d   1      27.751 -14.622  -3.789  0.00  0.00    -0.378 N 
ATOM     29  C   UNL d   1      28.377 -15.319  -4.858  0.00  0.00     0.127 C 
ATOM     30  C   UNL d   1      28.790 -14.106  -6.073  0.00  0.00     0.055 C 
ATOM     31  C   UNL d   1      30.023 -14.872  -6.049  0.00  0.00    -0.063 C 
ATOM     32  C   UNL d   1      30.136 -16.168  -6.921  0.00  0.00     0.004 C 
ATOM     33  C   UNL d   1      30.450 -13.928  -4.968  0.00  0.00     0.034 C 
ATOM     34  C   UNL d   1      31.382 -16.772  -7.092  0.00  0.00     0.000 C 
ATOM     35  C   UNL d   1      32.246 -15.842  -6.698  0.00  0.00    -0.003 C 
ATOM     36  C   UNL d   1      31.797 -14.547  -5.757  0.00  0.00    -0.009 C 
ATOM     37  C   UNL d   1      28.856 -13.575  -4.142  0.00  0.00     0.142 C 
ENDBRANCH   6  28
TORSDOF 6
ENDMDL
