MODEL 1
REMARK VINA RESULT:   -10.752      0.000      0.000
REMARK INTER + INTRA:         -16.116
REMARK INTER:                 -14.033
REMARK INTRA:                  -2.083
REMARK CONF_INDEPENDENT:        3.281
REMARK UNBOUND:                -2.083
REMARK  11 active torsions:
REMARK  status: ('A' for Active; 'I' for Inactive)
REMARK    1  A    between atoms: C_3  and  O_4 
REMARK    2  A    between atoms: O_4  and  C_5 
REMARK    3  A    between atoms: C_5  and  C_6 
REMARK       I    between atoms: C_6  and  N_8 
REMARK    4  A    between atoms: N_8  and  C_9 
REMARK    5  A    between atoms: C_10  and  C_9 
REMARK    6  A    between atoms: C_13  and  C_14 
REMARK       I    between atoms: C_14  and  N_16 
REMARK    7  A    between atoms: N_16  and  C_17 
REMARK    8  A    between atoms: C_17  and  C_18 
REMARK    9  A    between atoms: C_18  and  C_19 
REMARK   10  A    between atoms: C_19  and  O_20 
REMARK   11  A    between atoms: C_26  and  C_27 
ROOT
ATOM      1  C   UNL d   1      28.869 -14.734   1.539  0.00  0.00     0.278 C 
ENDROOT
BRANCH   1   2
ATOM      2  O   UNL d   1      27.850 -14.280   2.407  0.00  0.00    -0.341 OA
BRANCH   2   3
ATOM      3  C   UNL d   1      28.167 -13.975   3.693  0.00  0.00     0.078 C 
ATOM      4  C   UNL d   1      28.410 -12.615   3.953  0.00  0.00     0.006 C 
ATOM      5  C   UNL d   1      28.401 -11.592   2.853  0.00  0.00     0.054 C 
ATOM      6  C   UNL d   1      28.688 -12.230   5.267  0.00  0.00     0.099 A 
ATOM      7  O   UNL d   1      28.724 -10.856   5.574  0.00  0.00    -0.274 OA
ATOM      8  C   UNL d   1      28.908 -13.180   6.255  0.00  0.00     0.010 A 
ATOM      9  C   UNL d   1      28.901 -10.414   6.879  0.00  0.00     0.289 A 
ATOM     10  C   UNL d   1      29.168 -11.445   7.895  0.00  0.00     0.095 A 
ATOM     11  O   UNL d   1      28.862  -9.237   7.188  0.00  0.00    -0.260 OA
ATOM     12  C   UNL d   1      29.195 -12.757   7.621  0.00  0.00    -0.007 A 
ATOM     13  C   UNL d   1      28.772 -14.533   5.942  0.00  0.00     0.018 C 
ATOM     14  C   UNL d   1      28.270 -14.916   4.711  0.00  0.00     0.038 C 
BRANCH  12  15
ATOM     15  C   UNL d   1      29.482 -13.679   8.727  0.00  0.00    -0.025 C 
ATOM     16  C   UNL d   1      28.541 -13.844   9.749  0.00  0.00     0.012 C 
ATOM     17  C   UNL d   1      28.736 -14.825  10.712  0.00  0.00     0.001 C 
ATOM     18  C   UNL d   1      29.969 -15.469  10.795  0.00  0.00     0.000 C 
ATOM     19  C   UNL d   1      30.968 -15.203   9.859  0.00  0.00     0.001 C 
ATOM     20  C   UNL d   1      30.700 -14.362   8.783  0.00  0.00     0.012 C 
ENDBRANCH  12  15
ENDBRANCH   2   3
ENDBRANCH   1   2
BRANCH   1  21
ATOM     21  C   UNL d   1      28.159 -15.301   0.291  0.00  0.00     0.241 C 
ATOM     22  O   UNL d   1      28.311 -14.898  -0.851  0.00  0.00    -0.271 OA
ATOM     23  N   UNL d   1      27.290 -16.310   0.616  0.00  0.00    -0.359 N 
ATOM     24  H   UNL d   1      26.853 -16.072   1.483  0.00  0.00     0.162 HD
BRANCH  23  25
ATOM     25  C   UNL d   1      26.397 -17.004  -0.297  0.00  0.00     0.127 C 
BRANCH  25  26
ATOM     26  C   UNL d   1      24.916 -16.895   0.153  0.00  0.00     0.003 C 
ATOM     27  C   UNL d   1      23.959 -16.421  -0.955  0.00  0.00     0.007 C 
ATOM     28  C   UNL d   1      23.753 -17.490  -2.019  0.00  0.00     0.014 C 
ATOM     29  C   UNL d   1      23.207 -18.795  -1.421  0.00  0.00     0.078 C 
ATOM     30  C   UNL d   1      24.044 -19.323  -0.261  0.00  0.00     0.014 C 
ATOM     31  C   UNL d   1      24.408 -18.217   0.770  0.00  0.00     0.007 C 
BRANCH  29  32
ATOM     32  C   UNL d   1      21.801 -18.641  -0.880  0.00  0.00     0.221 C 
ATOM     33  O   UNL d   1      21.026 -17.767  -1.260  0.00  0.00    -0.273 OA
ATOM     34  N   UNL d   1      21.429 -19.550   0.066  0.00  0.00    -0.361 N 
ATOM     35  H   UNL d   1      22.092 -20.220   0.434  0.00  0.00     0.162 HD
BRANCH  34  36
ATOM     36  C   UNL d   1      20.116 -19.391   0.636  0.00  0.00     0.124 C 
BRANCH  36  37
ATOM     37  C   UNL d   1      19.106 -20.291  -0.027  0.00  0.00     0.046 C 
BRANCH  37  38
ATOM     38  C   UNL d   1      18.205 -20.925   1.017  0.00  0.00     0.165 C 
BRANCH  38  39
ATOM     39  O   UNL d   1      17.988 -22.287   0.684  0.00  0.00    -0.401 OA
ATOM     40  H   UNL d   1      17.096 -22.525   0.992  0.00  0.00     0.209 HD
ENDBRANCH  38  39
ENDBRANCH  37  38
ENDBRANCH  36  37
ENDBRANCH  34  36
ENDBRANCH  29  32
ENDBRANCH  25  26
ENDBRANCH  23  25
ENDBRANCH   1  21
TORSDOF 11
ENDMDL
MODEL 2
REMARK VINA RESULT:    -9.035      3.731     10.328
REMARK INTER + INTRA:         -15.407
REMARK INTER:                 -12.316
REMARK INTRA:                  -3.090
REMARK CONF_INDEPENDENT:        3.281
REMARK UNBOUND:                -3.090
REMARK  11 active torsions:
REMARK  status: ('A' for Active; 'I' for Inactive)
REMARK    1  A    between atoms: C_3  and  O_4 
REMARK    2  A    between atoms: O_4  and  C_5 
REMARK    3  A    between atoms: C_5  and  C_6 
REMARK       I    between atoms: C_6  and  N_8 
REMARK    4  A    between atoms: N_8  and  C_9 
REMARK    5  A    between atoms: C_10  and  C_9 
REMARK    6  A    between atoms: C_13  and  C_14 
REMARK       I    between atoms: C_14  and  N_16 
REMARK    7  A    between atoms: N_16  and  C_17 
REMARK    8  A    between atoms: C_17  and  C_18 
REMARK    9  A    between atoms: C_18  and  C_19 
REMARK   10  A    between atoms: C_19  and  O_20 
REMARK   11  A    between atoms: C_26  and  C_27 
ROOT
ATOM      1  C   UNL d   1      29.870 -11.437   0.089  0.00  0.00     0.278 C 
ENDROOT
BRANCH   1   2
ATOM      2  O   UNL d   1      28.459 -11.411   0.174  0.00  0.00    -0.341 OA
BRANCH   2   3
ATOM      3  C   UNL d   1      27.750 -12.461  -0.318  0.00  0.00     0.078 C 
ATOM      4  C   UNL d   1      27.682 -12.545  -1.719  0.00  0.00     0.006 C 
ATOM      5  C   UNL d   1      28.285 -11.488  -2.599  0.00  0.00     0.054 C 
ATOM      6  C   UNL d   1      27.013 -13.632  -2.287  0.00  0.00     0.099 A 
ATOM      7  O   UNL d   1      27.120 -13.839  -3.676  0.00  0.00    -0.274 OA
ATOM      8  C   UNL d   1      26.273 -14.503  -1.499  0.00  0.00     0.010 A 
ATOM      9  C   UNL d   1      26.556 -14.954  -4.284  0.00  0.00     0.289 A 
ATOM     10  C   UNL d   1      25.748 -15.836  -3.426  0.00  0.00     0.095 A 
ATOM     11  O   UNL d   1      26.693 -15.200  -5.468  0.00  0.00    -0.260 OA
ATOM     12  C   UNL d   1      25.584 -15.633  -2.112  0.00  0.00    -0.007 A 
ATOM     13  C   UNL d   1      26.265 -14.329  -0.115  0.00  0.00     0.018 C 
ATOM     14  C   UNL d   1      27.107 -13.403   0.476  0.00  0.00     0.038 C 
BRANCH  12  15
ATOM     15  C   UNL d   1      24.744 -16.586  -1.374  0.00  0.00    -0.025 C 
ATOM     16  C   UNL d   1      25.306 -17.774  -0.895  0.00  0.00     0.012 C 
ATOM     17  C   UNL d   1      24.561 -18.602  -0.068  0.00  0.00     0.001 C 
ATOM     18  C   UNL d   1      23.196 -18.372   0.085  0.00  0.00     0.000 C 
ATOM     19  C   UNL d   1      22.598 -17.261  -0.510  0.00  0.00     0.001 C 
ATOM     20  C   UNL d   1      23.384 -16.329  -1.180  0.00  0.00     0.012 C 
ENDBRANCH  12  15
ENDBRANCH   2   3
ENDBRANCH   1   2
BRANCH   1  21
ATOM     21  C   UNL d   1      30.321 -12.764   0.736  0.00  0.00     0.241 C 
ATOM     22  O   UNL d   1      31.046 -13.594   0.211  0.00  0.00    -0.271 OA
ATOM     23  N   UNL d   1      29.780 -12.932   1.984  0.00  0.00    -0.359 N 
ATOM     24  H   UNL d   1      28.845 -12.578   1.963  0.00  0.00     0.162 HD
BRANCH  23  25
ATOM     25  C   UNL d   1      29.922 -14.102   2.834  0.00  0.00     0.127 C 
BRANCH  25  26
ATOM     26  C   UNL d   1      30.328 -13.716   4.281  0.00  0.00     0.003 C 
ATOM     27  C   UNL d   1      29.852 -12.318   4.712  0.00  0.00     0.007 C 
ATOM     28  C   UNL d   1      28.345 -12.273   4.923  0.00  0.00     0.014 C 
ATOM     29  C   UNL d   1      27.883 -13.296   5.971  0.00  0.00     0.078 C 
ATOM     30  C   UNL d   1      28.360 -14.715   5.680  0.00  0.00     0.014 C 
ATOM     31  C   UNL d   1      29.868 -14.778   5.305  0.00  0.00     0.007 C 
BRANCH  29  32
ATOM     32  C   UNL d   1      28.386 -12.968   7.361  0.00  0.00     0.221 C 
ATOM     33  O   UNL d   1      28.340 -11.840   7.845  0.00  0.00    -0.273 OA
ATOM     34  N   UNL d   1      28.896 -14.016   8.068  0.00  0.00    -0.361 N 
ATOM     35  H   UNL d   1      29.006 -14.928   7.642  0.00  0.00     0.162 HD
BRANCH  34  36
ATOM     36  C   UNL d   1      29.431 -13.720   9.371  0.00  0.00     0.124 C 
BRANCH  36  37
ATOM     37  C   UNL d   1      28.569 -14.283  10.471  0.00  0.00     0.046 C 
BRANCH  37  38
ATOM     38  C   UNL d   1      27.910 -13.158  11.248  0.00  0.00     0.165 C 
BRANCH  38  39
ATOM     39  O   UNL d   1      27.408 -12.191  10.340  0.00  0.00    -0.401 OA
ATOM     40  H   UNL d   1      28.167 -11.685  10.002  0.00  0.00     0.209 HD
ENDBRANCH  38  39
ENDBRANCH  37  38
ENDBRANCH  36  37
ENDBRANCH  34  36
ENDBRANCH  29  32
ENDBRANCH  25  26
ENDBRANCH  23  25
ENDBRANCH   1  21
TORSDOF 11
ENDMDL
