MODEL 1
REMARK VINA RESULT:    -7.787      0.000      0.000
REMARK INTER + INTRA:         -10.909
REMARK INTER:                  -9.577
REMARK INTRA:                  -1.332
REMARK CONF_INDEPENDENT:        1.790
REMARK UNBOUND:                -1.332
REMARK  6 active torsions:
REMARK  status: ('A' for Active; 'I' for Inactive)
REMARK    1  A    between atoms: O_2  and  C_3 
REMARK    2  A    between atoms: C_3  and  C_5 
REMARK    3  A    between atoms: C_7  and  S_8 
REMARK    4  A    between atoms: S_8  and  N_11 
REMARK    5  A    between atoms: N_11  and  C_12 
REMARK    6  A    between atoms: C_25  and  O_26 
ROOT
ATOM      1  S   UNL d   1      25.652 -14.985  -4.218  0.00  0.00     0.263 S 
ATOM      2  O   UNL d   1      25.590 -15.946  -5.299  0.00  0.00    -0.200 OA
ATOM      3  O   UNL d   1      24.544 -14.101  -3.925  0.00  0.00    -0.200 OA
ENDROOT
BRANCH   1   4
ATOM      4  C   UNL d   1      25.882 -15.950  -2.713  0.00  0.00     0.081 A 
ATOM      5  C   UNL d   1      24.780 -16.685  -2.217  0.00  0.00     0.045 A 
ATOM      6  C   UNL d   1      24.882 -17.427  -1.018  0.00  0.00     0.074 A 
ATOM      7  C   UNL d   1      26.104 -17.443  -0.336  0.00  0.00     0.082 A 
ATOM      8  C   UNL d   1      27.199 -16.724  -0.834  0.00  0.00     0.039 A 
ATOM      9  C   UNL d   1      27.090 -15.975  -2.017  0.00  0.00     0.028 A 
BRANCH   6  10
ATOM     10  C   UNL d   1      23.725 -18.254  -0.568  0.00  0.00     0.295 C 
ATOM     11  O   UNL d   1      23.571 -18.572   0.605  0.00  0.00    -0.259 OA
BRANCH  10  12
ATOM     12  O   UNL d   1      22.931 -18.637  -1.602  0.00  0.00    -0.322 OA
ATOM     13  C   UNL d   1      21.578 -18.950  -1.240  0.00  0.00     0.213 C 
ENDBRANCH  10  12
ENDBRANCH   6  10
BRANCH   7  14
ATOM     14  O   UNL d   1      26.247 -18.199   0.793  0.00  0.00    -0.360 OA
ATOM     15  H   UNL d   1      25.449 -18.155   1.343  0.00  0.00     0.217 HD
ENDBRANCH   7  14
ENDBRANCH   1   4
BRANCH   1  16
ATOM     16  N   UNL d   1      27.034 -14.033  -4.458  0.00  0.00    -0.281 N 
ATOM     17  H   UNL d   1      27.166 -13.159  -3.968  0.00  0.00     0.179 HD
BRANCH  16  18
ATOM     18  C   UNL d   1      28.139 -14.533  -5.232  0.00  0.00     0.043 A 
ATOM     19  C   UNL d   1      28.784 -13.732  -6.162  0.00  0.00     0.032 A 
ATOM     20  C   UNL d   1      29.879 -14.215  -6.890  0.00  0.00     0.032 A 
ATOM     21  C   UNL d   1      30.398 -15.507  -6.706  0.00  0.00     0.036 A 
ATOM     22  C   UNL d   1      29.775 -16.300  -5.723  0.00  0.00    -0.029 A 
ATOM     23  N   UNL d   1      31.441 -16.000  -7.486  0.00  0.00    -0.385 N 
ATOM     24  C   UNL d   1      28.658 -15.811  -4.992  0.00  0.00     0.039 A 
ATOM     25  C   UNL d   1      30.339 -17.664  -5.395  0.00  0.00     0.042 C 
ATOM     26  C   UNL d   1      31.131 -18.258  -6.552  0.00  0.00     0.024 C 
ATOM     27  C   UNL d   1      32.112 -17.239  -7.104  0.00  0.00     0.123 C 
ATOM     28  C   UNL d   1      32.168 -15.117  -8.389  0.00  0.00     0.149 C 
ENDBRANCH  16  18
ENDBRANCH   1  16
TORSDOF 6
ENDMDL
MODEL 2
REMARK VINA RESULT:    -7.623      3.926      5.940
REMARK INTER + INTRA:         -10.692
REMARK INTER:                  -9.413
REMARK INTRA:                  -1.280
REMARK CONF_INDEPENDENT:        1.790
REMARK UNBOUND:                -1.280
REMARK  6 active torsions:
REMARK  status: ('A' for Active; 'I' for Inactive)
REMARK    1  A    between atoms: O_2  and  C_3 
REMARK    2  A    between atoms: C_3  and  C_5 
REMARK    3  A    between atoms: C_7  and  S_8 
REMARK    4  A    between atoms: S_8  and  N_11 
REMARK    5  A    between atoms: N_11  and  C_12 
REMARK    6  A    between atoms: C_25  and  O_26 
ROOT
ATOM      1  S   UNL d   1      26.010 -14.686  -4.492  0.00  0.00     0.263 S 
ATOM      2  O   UNL d   1      26.537 -15.573  -5.509  0.00  0.00    -0.200 OA
ATOM      3  O   UNL d   1      24.673 -14.141  -4.581  0.00  0.00    -0.200 OA
ENDROOT
BRANCH   1   4
ATOM      4  C   UNL d   1      26.023 -15.631  -2.958  0.00  0.00     0.081 A 
ATOM      5  C   UNL d   1      24.781 -15.997  -2.389  0.00  0.00     0.045 A 
ATOM      6  C   UNL d   1      24.721 -16.700  -1.165  0.00  0.00     0.074 A 
ATOM      7  C   UNL d   1      25.918 -17.053  -0.530  0.00  0.00     0.082 A 
ATOM      8  C   UNL d   1      27.148 -16.701  -1.100  0.00  0.00     0.039 A 
ATOM      9  C   UNL d   1      27.204 -15.988  -2.309  0.00  0.00     0.028 A 
BRANCH   6  10
ATOM     10  C   UNL d   1      23.397 -17.138  -0.636  0.00  0.00     0.295 C 
ATOM     11  O   UNL d   1      22.526 -16.336  -0.320  0.00  0.00    -0.259 OA
BRANCH  10  12
ATOM     12  O   UNL d   1      23.314 -18.488  -0.504  0.00  0.00    -0.322 OA
ATOM     13  C   UNL d   1      22.008 -18.984  -0.175  0.00  0.00     0.213 C 
ENDBRANCH  10  12
ENDBRANCH   6  10
BRANCH   7  14
ATOM     14  O   UNL d   1      25.890 -17.784   0.624  0.00  0.00    -0.360 OA
ATOM     15  H   UNL d   1      25.093 -18.337   0.665  0.00  0.00     0.217 HD
ENDBRANCH   7  14
ENDBRANCH   1   4
BRANCH   1  16
ATOM     16  N   UNL d   1      27.094 -13.392  -4.331  0.00  0.00    -0.281 N 
ATOM     17  H   UNL d   1      28.084 -13.507  -4.499  0.00  0.00     0.179 HD
BRANCH  16  18
ATOM     18  C   UNL d   1      26.608 -12.055  -4.122  0.00  0.00     0.043 A 
ATOM     19  C   UNL d   1      26.829 -11.389  -2.925  0.00  0.00     0.032 A 
ATOM     20  C   UNL d   1      26.380 -10.074  -2.741  0.00  0.00     0.032 A 
ATOM     21  C   UNL d   1      25.716  -9.354  -3.747  0.00  0.00     0.036 A 
ATOM     22  C   UNL d   1      25.540 -10.013  -4.980  0.00  0.00    -0.029 A 
ATOM     23  N   UNL d   1      25.212  -8.076  -3.527  0.00  0.00    -0.385 N 
ATOM     24  C   UNL d   1      25.988 -11.351  -5.162  0.00  0.00     0.039 A 
ATOM     25  C   UNL d   1      24.924  -9.270  -6.143  0.00  0.00     0.042 C 
ATOM     26  C   UNL d   1      24.039  -8.117  -5.692  0.00  0.00     0.024 C 
ATOM     27  C   UNL d   1      24.755  -7.269  -4.656  0.00  0.00     0.123 C 
ATOM     28  C   UNL d   1      25.535  -7.356  -2.301  0.00  0.00     0.149 C 
ENDBRANCH  16  18
ENDBRANCH   1  16
TORSDOF 6
ENDMDL
MODEL 3
REMARK VINA RESULT:    -7.341      0.521      1.871
REMARK INTER + INTRA:         -10.397
REMARK INTER:                  -9.131
REMARK INTRA:                  -1.265
REMARK CONF_INDEPENDENT:        1.790
REMARK UNBOUND:                -1.265
REMARK  6 active torsions:
REMARK  status: ('A' for Active; 'I' for Inactive)
REMARK    1  A    between atoms: O_2  and  C_3 
REMARK    2  A    between atoms: C_3  and  C_5 
REMARK    3  A    between atoms: C_7  and  S_8 
REMARK    4  A    between atoms: S_8  and  N_11 
REMARK    5  A    between atoms: N_11  and  C_12 
REMARK    6  A    between atoms: C_25  and  O_26 
ROOT
ATOM      1  S   UNL d   1      25.733 -14.997  -4.191  0.00  0.00     0.263 S 
ATOM      2  O   UNL d   1      25.809 -15.950  -5.278  0.00  0.00    -0.200 OA
ATOM      3  O   UNL d   1      24.556 -14.183  -3.976  0.00  0.00    -0.200 OA
ENDROOT
BRANCH   1   4
ATOM      4  C   UNL d   1      25.909 -15.961  -2.678  0.00  0.00     0.081 A 
ATOM      5  C   UNL d   1      24.778 -16.661  -2.198  0.00  0.00     0.045 A 
ATOM      6  C   UNL d   1      24.839 -17.399  -0.994  0.00  0.00     0.074 A 
ATOM      7  C   UNL d   1      26.048 -17.447  -0.291  0.00  0.00     0.082 A 
ATOM      8  C   UNL d   1      27.171 -16.763  -0.773  0.00  0.00     0.039 A 
ATOM      9  C   UNL d   1      27.104 -16.017  -1.962  0.00  0.00     0.028 A 
BRANCH   6  10
ATOM     10  C   UNL d   1      23.651 -18.190  -0.560  0.00  0.00     0.295 C 
ATOM     11  O   UNL d   1      23.450 -18.471   0.616  0.00  0.00    -0.259 OA
BRANCH  10  12
ATOM     12  O   UNL d   1      22.884 -18.588  -1.609  0.00  0.00    -0.322 OA
ATOM     13  C   UNL d   1      21.537 -18.950  -1.270  0.00  0.00     0.213 C 
ENDBRANCH  10  12
ENDBRANCH   6  10
BRANCH   7  14
ATOM     14  O   UNL d   1      26.149 -18.202   0.844  0.00  0.00    -0.360 OA
ATOM     15  H   UNL d   1      25.274 -18.489   1.149  0.00  0.00     0.217 HD
ENDBRANCH   7  14
ENDBRANCH   1   4
BRANCH   1  16
ATOM     16  N   UNL d   1      27.070 -13.962  -4.323  0.00  0.00    -0.281 N 
ATOM     17  H   UNL d   1      27.125 -13.099  -3.800  0.00  0.00     0.179 HD
BRANCH  16  18
ATOM     18  C   UNL d   1      28.241 -14.373  -5.049  0.00  0.00     0.043 A 
ATOM     19  C   UNL d   1      28.796 -15.632  -4.866  0.00  0.00     0.032 A 
ATOM     20  C   UNL d   1      29.918 -16.036  -5.601  0.00  0.00     0.032 A 
ATOM     21  C   UNL d   1      30.522 -15.220  -6.569  0.00  0.00     0.036 A 
ATOM     22  C   UNL d   1      29.925 -13.963  -6.793  0.00  0.00    -0.029 A 
ATOM     23  N   UNL d   1      31.678 -15.605  -7.241  0.00  0.00    -0.385 N 
ATOM     24  C   UNL d   1      28.792 -13.550  -6.039  0.00  0.00     0.039 A 
ATOM     25  C   UNL d   1      30.455 -13.068  -7.890  0.00  0.00     0.042 C 
ATOM     26  C   UNL d   1      31.912 -13.357  -8.222  0.00  0.00     0.024 C 
ATOM     27  C   UNL d   1      32.130 -14.849  -8.406  0.00  0.00     0.123 C 
ATOM     28  C   UNL d   1      32.191 -16.963  -7.107  0.00  0.00     0.149 C 
ENDBRANCH  16  18
ENDBRANCH   1  16
TORSDOF 6
ENDMDL
MODEL 4
REMARK VINA RESULT:    -7.324      3.422      5.282
REMARK INTER + INTRA:         -10.302
REMARK INTER:                  -9.114
REMARK INTRA:                  -1.189
REMARK CONF_INDEPENDENT:        1.790
REMARK UNBOUND:                -1.189
REMARK  6 active torsions:
REMARK  status: ('A' for Active; 'I' for Inactive)
REMARK    1  A    between atoms: O_2  and  C_3 
REMARK    2  A    between atoms: C_3  and  C_5 
REMARK    3  A    between atoms: C_7  and  S_8 
REMARK    4  A    between atoms: S_8  and  N_11 
REMARK    5  A    between atoms: N_11  and  C_12 
REMARK    6  A    between atoms: C_25  and  O_26 
ROOT
ATOM      1  S   UNL d   1      25.854 -14.826  -4.036  0.00  0.00     0.263 S 
ATOM      2  O   UNL d   1      26.572 -15.601  -5.026  0.00  0.00    -0.200 OA
ATOM      3  O   UNL d   1      24.474 -14.438  -4.231  0.00  0.00    -0.200 OA
ENDROOT
BRANCH   1   4
ATOM      4  C   UNL d   1      25.844 -15.828  -2.538  0.00  0.00     0.081 A 
ATOM      5  C   UNL d   1      24.778 -16.739  -2.351  0.00  0.00     0.045 A 
ATOM      6  C   UNL d   1      24.688 -17.522  -1.178  0.00  0.00     0.074 A 
ATOM      7  C   UNL d   1      25.688 -17.399  -0.207  0.00  0.00     0.082 A 
ATOM      8  C   UNL d   1      26.750 -16.505  -0.396  0.00  0.00     0.039 A 
ATOM      9  C   UNL d   1      26.828 -15.716  -1.556  0.00  0.00     0.028 A 
BRANCH   6  10
ATOM     10  C   UNL d   1      23.595 -18.529  -1.052  0.00  0.00     0.295 C 
ATOM     11  O   UNL d   1      23.180 -19.161  -2.016  0.00  0.00    -0.259 OA
BRANCH  10  12
ATOM     12  O   UNL d   1      23.105 -18.604   0.213  0.00  0.00    -0.322 OA
ATOM     13  C   UNL d   1      21.695 -18.857   0.300  0.00  0.00     0.213 C 
ENDBRANCH  10  12
ENDBRANCH   6  10
BRANCH   7  14
ATOM     14  O   UNL d   1      25.657 -18.187   0.910  0.00  0.00    -0.360 OA
ATOM     15  H   UNL d   1      24.804 -18.644   0.988  0.00  0.00     0.217 HD
ENDBRANCH   7  14
ENDBRANCH   1   4
BRANCH   1  16
ATOM     16  N   UNL d   1      26.756 -13.422  -3.733  0.00  0.00    -0.281 N 
ATOM     17  H   UNL d   1      27.488 -13.404  -3.036  0.00  0.00     0.179 HD
BRANCH  16  18
ATOM     18  C   UNL d   1      26.620 -12.270  -4.583  0.00  0.00     0.043 A 
ATOM     19  C   UNL d   1      27.154 -12.255  -5.863  0.00  0.00     0.032 A 
ATOM     20  C   UNL d   1      26.990 -11.141  -6.697  0.00  0.00     0.032 A 
ATOM     21  C   UNL d   1      26.264 -10.005  -6.306  0.00  0.00     0.036 A 
ATOM     22  C   UNL d   1      25.677 -10.044  -5.026  0.00  0.00    -0.029 A 
ATOM     23  N   UNL d   1      26.169  -8.877  -7.116  0.00  0.00    -0.385 N 
ATOM     24  C   UNL d   1      25.852 -11.171  -4.177  0.00  0.00     0.039 A 
ATOM     25  C   UNL d   1      24.796  -8.901  -4.573  0.00  0.00     0.042 C 
ATOM     26  C   UNL d   1      25.120  -7.599  -5.290  0.00  0.00     0.024 C 
ATOM     27  C   UNL d   1      25.211  -7.824  -6.789  0.00  0.00     0.123 C 
ATOM     28  C   UNL d   1      26.653  -8.913  -8.491  0.00  0.00     0.149 C 
ENDBRANCH  16  18
ENDBRANCH   1  16
TORSDOF 6
ENDMDL
MODEL 5
REMARK VINA RESULT:    -7.204      1.443      2.269
REMARK INTER + INTRA:         -10.288
REMARK INTER:                  -8.994
REMARK INTRA:                  -1.293
REMARK CONF_INDEPENDENT:        1.790
REMARK UNBOUND:                -1.293
REMARK  6 active torsions:
REMARK  status: ('A' for Active; 'I' for Inactive)
REMARK    1  A    between atoms: O_2  and  C_3 
REMARK    2  A    between atoms: C_3  and  C_5 
REMARK    3  A    between atoms: C_7  and  S_8 
REMARK    4  A    between atoms: S_8  and  N_11 
REMARK    5  A    between atoms: N_11  and  C_12 
REMARK    6  A    between atoms: C_25  and  O_26 
ROOT
ATOM      1  S   UNL d   1      25.735 -14.556  -3.200  0.00  0.00     0.263 S 
ATOM      2  O   UNL d   1      25.500 -15.218  -4.466  0.00  0.00    -0.200 OA
ATOM      3  O   UNL d   1      24.989 -13.378  -2.810  0.00  0.00    -0.200 OA
ENDROOT
BRANCH   1   4
ATOM      4  C   UNL d   1      25.365 -15.778  -1.928  0.00  0.00     0.081 A 
ATOM      5  C   UNL d   1      24.029 -16.220  -1.796  0.00  0.00     0.045 A 
ATOM      6  C   UNL d   1      23.665 -17.144  -0.790  0.00  0.00     0.074 A 
ATOM      7  C   UNL d   1      24.658 -17.637   0.065  0.00  0.00     0.082 A 
ATOM      8  C   UNL d   1      25.984 -17.207  -0.073  0.00  0.00     0.039 A 
ATOM      9  C   UNL d   1      26.340 -16.277  -1.064  0.00  0.00     0.028 A 
BRANCH   6  10
ATOM     10  C   UNL d   1      22.263 -17.649  -0.732  0.00  0.00     0.295 C 
ATOM     11  O   UNL d   1      21.299 -16.911  -0.904  0.00  0.00    -0.259 OA
BRANCH  10  12
ATOM     12  O   UNL d   1      22.201 -18.970  -0.420  0.00  0.00    -0.322 OA
ATOM     13  C   UNL d   1      21.061 -19.352   0.364  0.00  0.00     0.213 C 
ENDBRANCH  10  12
ENDBRANCH   6  10
BRANCH   7  14
ATOM     14  O   UNL d   1      24.344 -18.576   1.007  0.00  0.00    -0.360 OA
ATOM     15  H   UNL d   1      23.579 -19.104   0.729  0.00  0.00     0.217 HD
ENDBRANCH   7  14
ENDBRANCH   1   4
BRANCH   1  16
ATOM     16  N   UNL d   1      27.387 -14.182  -3.116  0.00  0.00    -0.281 N 
ATOM     17  H   UNL d   1      27.723 -13.382  -2.598  0.00  0.00     0.179 HD
BRANCH  16  18
ATOM     18  C   UNL d   1      28.369 -15.095  -3.637  0.00  0.00     0.043 A 
ATOM     19  C   UNL d   1      28.907 -16.099  -2.845  0.00  0.00     0.032 A 
ATOM     20  C   UNL d   1      29.839 -17.005  -3.368  0.00  0.00     0.032 A 
ATOM     21  C   UNL d   1      30.256 -16.971  -4.708  0.00  0.00     0.036 A 
ATOM     22  C   UNL d   1      29.668 -15.985  -5.525  0.00  0.00    -0.029 A 
ATOM     23  N   UNL d   1      31.235 -17.830  -5.197  0.00  0.00    -0.385 N 
ATOM     24  C   UNL d   1      28.729 -15.060  -4.990  0.00  0.00     0.039 A 
ATOM     25  C   UNL d   1      29.989 -15.948  -7.002  0.00  0.00     0.042 C 
ATOM     26  C   UNL d   1      31.335 -16.583  -7.319  0.00  0.00     0.024 C 
ATOM     27  C   UNL d   1      31.461 -17.934  -6.636  0.00  0.00     0.123 C 
ATOM     28  C   UNL d   1      31.720 -18.937  -4.381  0.00  0.00     0.149 C 
ENDBRANCH  16  18
ENDBRANCH   1  16
TORSDOF 6
ENDMDL
MODEL 6
REMARK VINA RESULT:    -7.143      3.676      4.965
REMARK INTER + INTRA:         -10.087
REMARK INTER:                  -8.932
REMARK INTRA:                  -1.154
REMARK CONF_INDEPENDENT:        1.790
REMARK UNBOUND:                -1.154
REMARK  6 active torsions:
REMARK  status: ('A' for Active; 'I' for Inactive)
REMARK    1  A    between atoms: O_2  and  C_3 
REMARK    2  A    between atoms: C_3  and  C_5 
REMARK    3  A    between atoms: C_7  and  S_8 
REMARK    4  A    between atoms: S_8  and  N_11 
REMARK    5  A    between atoms: N_11  and  C_12 
REMARK    6  A    between atoms: C_25  and  O_26 
ROOT
ATOM      1  S   UNL d   1      25.174 -14.559  -3.660  0.00  0.00     0.263 S 
ATOM      2  O   UNL d   1      25.624 -15.286  -4.828  0.00  0.00    -0.200 OA
ATOM      3  O   UNL d   1      23.812 -14.084  -3.540  0.00  0.00    -0.200 OA
ENDROOT
BRANCH   1   4
ATOM      4  C   UNL d   1      25.397 -15.678  -2.265  0.00  0.00     0.081 A 
ATOM      5  C   UNL d   1      24.369 -16.609  -1.985  0.00  0.00     0.045 A 
ATOM      6  C   UNL d   1      24.463 -17.484  -0.880  0.00  0.00     0.074 A 
ATOM      7  C   UNL d   1      25.606 -17.434  -0.074  0.00  0.00     0.082 A 
ATOM      8  C   UNL d   1      26.629 -16.520  -0.358  0.00  0.00     0.039 A 
ATOM      9  C   UNL d   1      26.526 -15.640  -1.448  0.00  0.00     0.028 A 
BRANCH   6  10
ATOM     10  C   UNL d   1      23.398 -18.505  -0.663  0.00  0.00     0.295 C 
ATOM     11  O   UNL d   1      23.657 -19.695  -0.522  0.00  0.00    -0.259 OA
BRANCH  10  12
ATOM     12  O   UNL d   1      22.151 -17.967  -0.698  0.00  0.00    -0.322 OA
ATOM     13  C   UNL d   1      21.081 -18.909  -0.525  0.00  0.00     0.213 C 
ENDBRANCH  10  12
ENDBRANCH   6  10
BRANCH   7  14
ATOM     14  O   UNL d   1      25.749 -18.310   0.966  0.00  0.00    -0.360 OA
ATOM     15  H   UNL d   1      25.302 -19.149   0.775  0.00  0.00     0.217 HD
ENDBRANCH   7  14
ENDBRANCH   1   4
BRANCH   1  16
ATOM     16  N   UNL d   1      26.211 -13.233  -3.451  0.00  0.00    -0.281 N 
ATOM     17  H   UNL d   1      26.980 -13.261  -2.795  0.00  0.00     0.179 HD
BRANCH  16  18
ATOM     18  C   UNL d   1      26.131 -12.099  -4.331  0.00  0.00     0.043 A 
ATOM     19  C   UNL d   1      25.606 -10.890  -3.899  0.00  0.00     0.032 A 
ATOM     20  C   UNL d   1      25.560  -9.780  -4.753  0.00  0.00     0.032 A 
ATOM     21  C   UNL d   1      26.059  -9.814  -6.064  0.00  0.00     0.036 A 
ATOM     22  C   UNL d   1      26.641 -11.027  -6.484  0.00  0.00    -0.029 A 
ATOM     23  N   UNL d   1      25.944  -8.727  -6.925  0.00  0.00    -0.385 N 
ATOM     24  C   UNL d   1      26.678 -12.155  -5.620  0.00  0.00     0.039 A 
ATOM     25  C   UNL d   1      27.291 -11.112  -7.847  0.00  0.00     0.042 C 
ATOM     26  C   UNL d   1      26.730 -10.087  -8.822  0.00  0.00     0.024 C 
ATOM     27  C   UNL d   1      26.687  -8.710  -8.182  0.00  0.00     0.123 C 
ATOM     28  C   UNL d   1      25.478  -7.438  -6.428  0.00  0.00     0.149 C 
ENDBRANCH  16  18
ENDBRANCH   1  16
TORSDOF 6
ENDMDL
MODEL 7
REMARK VINA RESULT:    -6.967      3.953      5.736
REMARK INTER + INTRA:         -10.356
REMARK INTER:                  -8.757
REMARK INTRA:                  -1.599
REMARK CONF_INDEPENDENT:        1.790
REMARK UNBOUND:                -1.599
REMARK  6 active torsions:
REMARK  status: ('A' for Active; 'I' for Inactive)
REMARK    1  A    between atoms: O_2  and  C_3 
REMARK    2  A    between atoms: C_3  and  C_5 
REMARK    3  A    between atoms: C_7  and  S_8 
REMARK    4  A    between atoms: S_8  and  N_11 
REMARK    5  A    between atoms: N_11  and  C_12 
REMARK    6  A    between atoms: C_25  and  O_26 
ROOT
ATOM      1  S   UNL d   1      26.149 -14.905  -3.516  0.00  0.00     0.263 S 
ATOM      2  O   UNL d   1      27.162 -15.597  -4.284  0.00  0.00    -0.200 OA
ATOM      3  O   UNL d   1      24.893 -14.500  -4.109  0.00  0.00    -0.200 OA
ENDROOT
BRANCH   1   4
ATOM      4  C   UNL d   1      25.689 -16.026  -2.182  0.00  0.00     0.081 A 
ATOM      5  C   UNL d   1      24.322 -16.351  -2.025  0.00  0.00     0.045 A 
ATOM      6  C   UNL d   1      23.891 -17.189  -0.972  0.00  0.00     0.074 A 
ATOM      7  C   UNL d   1      24.845 -17.715  -0.094  0.00  0.00     0.082 A 
ATOM      8  C   UNL d   1      26.201 -17.402  -0.256  0.00  0.00     0.039 A 
ATOM      9  C   UNL d   1      26.625 -16.556  -1.295  0.00  0.00     0.028 A 
BRANCH   6  10
ATOM     10  C   UNL d   1      22.453 -17.575  -0.886  0.00  0.00     0.295 C 
ATOM     11  O   UNL d   1      21.554 -16.741  -0.894  0.00  0.00    -0.259 OA
BRANCH  10  12
ATOM     12  O   UNL d   1      22.284 -18.916  -0.746  0.00  0.00    -0.322 OA
ATOM     13  C   UNL d   1      20.956 -19.324  -0.389  0.00  0.00     0.213 C 
ENDBRANCH  10  12
ENDBRANCH   6  10
BRANCH   7  14
ATOM     14  O   UNL d   1      24.462 -18.576   0.896  0.00  0.00    -0.360 OA
ATOM     15  H   UNL d   1      23.675 -19.078   0.634  0.00  0.00     0.217 HD
ENDBRANCH   7  14
ENDBRANCH   1   4
BRANCH   1  16
ATOM     16  N   UNL d   1      26.874 -13.532  -2.834  0.00  0.00    -0.281 N 
ATOM     17  H   UNL d   1      26.763 -12.615  -3.245  0.00  0.00     0.179 HD
BRANCH  16  18
ATOM     18  C   UNL d   1      27.520 -13.610  -1.551  0.00  0.00     0.043 A 
ATOM     19  C   UNL d   1      28.879 -13.867  -1.445  0.00  0.00     0.032 A 
ATOM     20  C   UNL d   1      29.506 -13.910  -0.193  0.00  0.00     0.032 A 
ATOM     21  C   UNL d   1      28.818 -13.671   1.006  0.00  0.00     0.036 A 
ATOM     22  C   UNL d   1      27.449 -13.357   0.893  0.00  0.00    -0.029 A 
ATOM     23  N   UNL d   1      29.437 -13.787   2.247  0.00  0.00    -0.385 N 
ATOM     24  C   UNL d   1      26.811 -13.324  -0.377  0.00  0.00     0.039 A 
ATOM     25  C   UNL d   1      26.662 -12.989   2.131  0.00  0.00     0.042 C 
ATOM     26  C   UNL d   1      27.272 -13.568   3.400  0.00  0.00     0.024 C 
ATOM     27  C   UNL d   1      28.764 -13.294   3.446  0.00  0.00     0.123 C 
ATOM     28  C   UNL d   1      30.882 -13.963   2.337  0.00  0.00     0.149 C 
ENDBRANCH  16  18
ENDBRANCH   1  16
TORSDOF 6
ENDMDL
MODEL 8
REMARK VINA RESULT:    -6.929      3.084      8.285
REMARK INTER + INTRA:          -9.988
REMARK INTER:                  -8.719
REMARK INTRA:                  -1.269
REMARK CONF_INDEPENDENT:        1.790
REMARK UNBOUND:                -1.269
REMARK  6 active torsions:
REMARK  status: ('A' for Active; 'I' for Inactive)
REMARK    1  A    between atoms: O_2  and  C_3 
REMARK    2  A    between atoms: C_3  and  C_5 
REMARK    3  A    between atoms: C_7  and  S_8 
REMARK    4  A    between atoms: S_8  and  N_11 
REMARK    5  A    between atoms: N_11  and  C_12 
REMARK    6  A    between atoms: C_25  and  O_26 
ROOT
ATOM      1  S   UNL d   1      25.965 -13.439  -4.654  0.00  0.00     0.263 S 
ATOM      2  O   UNL d   1      25.594 -12.093  -5.039  0.00  0.00    -0.200 OA
ATOM      3  O   UNL d   1      25.103 -14.569  -4.921  0.00  0.00    -0.200 OA
ENDROOT
BRANCH   1   4
ATOM      4  C   UNL d   1      27.491 -13.802  -5.541  0.00  0.00     0.081 A 
ATOM      5  C   UNL d   1      27.939 -12.871  -6.507  0.00  0.00     0.045 A 
ATOM      6  C   UNL d   1      29.104 -13.118  -7.268  0.00  0.00     0.074 A 
ATOM      7  C   UNL d   1      29.826 -14.294  -7.036  0.00  0.00     0.082 A 
ATOM      8  C   UNL d   1      29.388 -15.211  -6.072  0.00  0.00     0.039 A 
ATOM      9  C   UNL d   1      28.221 -14.971  -5.327  0.00  0.00     0.028 A 
BRANCH   6  10
ATOM     10  C   UNL d   1      29.590 -12.078  -8.220  0.00  0.00     0.295 C 
ATOM     11  O   UNL d   1      29.376 -10.884  -8.043  0.00  0.00    -0.259 OA
BRANCH  10  12
ATOM     12  O   UNL d   1      30.227 -12.616  -9.293  0.00  0.00    -0.322 OA
ATOM     13  C   UNL d   1      31.369 -11.877  -9.751  0.00  0.00     0.213 C 
ENDBRANCH  10  12
ENDBRANCH   6  10
BRANCH   7  14
ATOM     14  O   UNL d   1      30.988 -14.529  -7.716  0.00  0.00    -0.360 OA
ATOM     15  H   UNL d   1      30.927 -14.205  -8.629  0.00  0.00     0.217 HD
ENDBRANCH   7  14
ENDBRANCH   1   4
BRANCH   1  16
ATOM     16  N   UNL d   1      26.307 -13.419  -2.993  0.00  0.00    -0.281 N 
ATOM     17  H   UNL d   1      26.520 -12.560  -2.506  0.00  0.00     0.179 HD
BRANCH  16  18
ATOM     18  C   UNL d   1      26.127 -14.604  -2.197  0.00  0.00     0.043 A 
ATOM     19  C   UNL d   1      27.172 -15.138  -1.458  0.00  0.00     0.032 A 
ATOM     20  C   UNL d   1      26.981 -16.274  -0.660  0.00  0.00     0.032 A 
ATOM     21  C   UNL d   1      25.738 -16.914  -0.541  0.00  0.00     0.036 A 
ATOM     22  C   UNL d   1      24.665 -16.339  -1.251  0.00  0.00    -0.029 A 
ATOM     23  N   UNL d   1      25.577 -18.083   0.197  0.00  0.00    -0.385 N 
ATOM     24  C   UNL d   1      24.862 -15.191  -2.067  0.00  0.00     0.039 A 
ATOM     25  C   UNL d   1      23.273 -16.909  -1.094  0.00  0.00     0.042 C 
ATOM     26  C   UNL d   1      23.290 -18.371  -0.669  0.00  0.00     0.024 C 
ATOM     27  C   UNL d   1      24.236 -18.575   0.501  0.00  0.00     0.123 C 
ATOM     28  C   UNL d   1      26.659 -18.575   1.042  0.00  0.00     0.149 C 
ENDBRANCH  16  18
ENDBRANCH   1  16
TORSDOF 6
ENDMDL
MODEL 9
REMARK VINA RESULT:    -6.928      2.832      7.276
REMARK INTER + INTRA:         -10.110
REMARK INTER:                  -8.718
REMARK INTRA:                  -1.392
REMARK CONF_INDEPENDENT:        1.790
REMARK UNBOUND:                -1.392
REMARK  6 active torsions:
REMARK  status: ('A' for Active; 'I' for Inactive)
REMARK    1  A    between atoms: O_2  and  C_3 
REMARK    2  A    between atoms: C_3  and  C_5 
REMARK    3  A    between atoms: C_7  and  S_8 
REMARK    4  A    between atoms: S_8  and  N_11 
REMARK    5  A    between atoms: N_11  and  C_12 
REMARK    6  A    between atoms: C_25  and  O_26 
ROOT
ATOM      1  S   UNL d   1      26.072 -13.468  -4.730  0.00  0.00     0.263 S 
ATOM      2  O   UNL d   1      25.937 -12.100  -5.182  0.00  0.00    -0.200 OA
ATOM      3  O   UNL d   1      25.052 -14.459  -4.996  0.00  0.00    -0.200 OA
ENDROOT
BRANCH   1   4
ATOM      4  C   UNL d   1      27.556 -14.107  -5.527  0.00  0.00     0.081 A 
ATOM      5  C   UNL d   1      28.140 -15.285  -5.005  0.00  0.00     0.045 A 
ATOM      6  C   UNL d   1      29.329 -15.813  -5.557  0.00  0.00     0.074 A 
ATOM      7  C   UNL d   1      29.912 -15.163  -6.650  0.00  0.00     0.082 A 
ATOM      8  C   UNL d   1      29.328 -14.003  -7.175  0.00  0.00     0.039 A 
ATOM      9  C   UNL d   1      28.154 -13.471  -6.614  0.00  0.00     0.028 A 
BRANCH   6  10
ATOM     10  C   UNL d   1      29.870 -17.100  -5.032  0.00  0.00     0.295 C 
ATOM     11  O   UNL d   1      29.862 -17.369  -3.837  0.00  0.00    -0.259 OA
BRANCH  10  12
ATOM     12  O   UNL d   1      30.403 -17.875  -6.013  0.00  0.00    -0.322 OA
ATOM     13  C   UNL d   1      31.476 -18.730  -5.592  0.00  0.00     0.213 C 
ENDBRANCH  10  12
ENDBRANCH   6  10
BRANCH   7  14
ATOM     14  O   UNL d   1      31.029 -15.686  -7.240  0.00  0.00    -0.360 OA
ATOM     15  H   UNL d   1      31.578 -16.151  -6.590  0.00  0.00     0.217 HD
ENDBRANCH   7  14
ENDBRANCH   1   4
BRANCH   1  16
ATOM     16  N   UNL d   1      26.340 -13.429  -3.056  0.00  0.00    -0.281 N 
ATOM     17  H   UNL d   1      26.514 -12.561  -2.567  0.00  0.00     0.179 HD
BRANCH  16  18
ATOM     18  C   UNL d   1      26.154 -14.612  -2.259  0.00  0.00     0.043 A 
ATOM     19  C   UNL d   1      27.192 -15.145  -1.509  0.00  0.00     0.032 A 
ATOM     20  C   UNL d   1      26.994 -16.279  -0.711  0.00  0.00     0.032 A 
ATOM     21  C   UNL d   1      25.749 -16.917  -0.601  0.00  0.00     0.036 A 
ATOM     22  C   UNL d   1      24.682 -16.343  -1.321  0.00  0.00    -0.029 A 
ATOM     23  N   UNL d   1      25.581 -18.084   0.139  0.00  0.00    -0.385 N 
ATOM     24  C   UNL d   1      24.887 -15.198  -2.138  0.00  0.00     0.039 A 
ATOM     25  C   UNL d   1      23.289 -16.913  -1.174  0.00  0.00     0.042 C 
ATOM     26  C   UNL d   1      23.301 -18.373  -0.746  0.00  0.00     0.024 C 
ATOM     27  C   UNL d   1      24.237 -18.575   0.432  0.00  0.00     0.123 C 
ATOM     28  C   UNL d   1      26.655 -18.575   0.995  0.00  0.00     0.149 C 
ENDBRANCH  16  18
ENDBRANCH   1  16
TORSDOF 6
ENDMDL
