MODEL 1
REMARK VINA RESULT:    -7.734      0.000      0.000
REMARK INTER + INTRA:         -10.580
REMARK INTER:                  -9.225
REMARK INTRA:                  -1.354
REMARK CONF_INDEPENDENT:        1.492
REMARK UNBOUND:                -1.354
REMARK  5 active torsions:
REMARK  status: ('A' for Active; 'I' for Inactive)
REMARK    1  A    between atoms: O_2  and  C_3 
REMARK    2  A    between atoms: C_8  and  N_9 
REMARK       I    between atoms: N_9  and  C_10 
REMARK    3  A    between atoms: C_10  and  C_12 
REMARK    4  A    between atoms: C_16  and  N_17 
REMARK    5  A    between atoms: C_25  and  N_26 
ROOT
ATOM      1  C   UNL d   1      26.453 -14.640  -4.218  0.00  0.00     0.102 C 
ATOM      2  S   UNL d   1      27.885 -15.242  -4.977  0.00  0.00    -0.064 SA
ATOM      3  C   UNL d   1      28.077 -13.823  -5.963  0.00  0.00     0.089 A 
ATOM      4  N   UNL d   1      29.132 -13.500  -6.794  0.00  0.00    -0.336 N 
ATOM      5  C   UNL d   1      29.241 -12.285  -7.403  0.00  0.00     0.113 A 
ATOM      6  C   UNL d   1      28.176 -11.370  -7.226  0.00  0.00     0.017 A 
ATOM      7  C   UNL d   1      27.074 -11.714  -6.412  0.00  0.00    -0.028 A 
ATOM      8  C   UNL d   1      27.015 -12.963  -5.776  0.00  0.00     0.033 A 
ATOM      9  C   UNL d   1      26.037 -13.510  -4.898  0.00  0.00     0.062 C 
ATOM     10  C   UNL d   1      25.973 -10.723  -6.154  0.00  0.00     0.077 C 
ATOM     11  C   UNL d   1      26.348  -9.293  -6.444  0.00  0.00     0.058 C 
ATOM     12  C   UNL d   1      27.284  -8.760  -5.345  0.00  0.00     0.046 C 
ATOM     13  C   UNL d   1      25.052  -8.471  -6.417  0.00  0.00     0.046 C 
ATOM     14  O   UNL d   1      26.926  -9.274  -7.749  0.00  0.00    -0.376 OA
ATOM     15  C   UNL d   1      28.179  -9.973  -7.824  0.00  0.00     0.212 C 
ATOM     16  H   UNL d   1      29.907 -14.145  -6.905  0.00  0.00     0.168 HD
ENDROOT
BRANCH   1  17
ATOM     17  C   UNL d   1      25.649 -15.181  -3.096  0.00  0.00     0.265 C 
ATOM     18  N   UNL d   1      26.157 -16.094  -2.198  0.00  0.00    -0.320 N 
ATOM     19  H   UNL d   1      27.104 -15.941  -1.879  0.00  0.00     0.169 HD
ATOM     20  O   UNL d   1      24.461 -14.819  -2.983  0.00  0.00    -0.267 OA
BRANCH  18  21
ATOM     21  C   UNL d   1      25.317 -16.951  -1.401  0.00  0.00     0.068 A 
ATOM     22  C   UNL d   1      24.151 -17.450  -2.012  0.00  0.00     0.032 A 
ATOM     23  C   UNL d   1      23.280 -18.325  -1.339  0.00  0.00     0.002 A 
ATOM     24  C   UNL d   1      23.561 -18.731  -0.042  0.00  0.00     0.003 A 
ATOM     25  C   UNL d   1      24.680 -18.210   0.602  0.00  0.00     0.039 A 
ATOM     26  C   UNL d   1      25.553 -17.314  -0.052  0.00  0.00     0.095 A 
BRANCH  26  27
ATOM     27  O   UNL d   1      26.607 -16.952   0.743  0.00  0.00    -0.354 OA
ATOM     28  C   UNL d   1      27.919 -17.028   0.209  0.00  0.00     0.210 C 
ENDBRANCH  26  27
ENDBRANCH  18  21
ENDBRANCH   1  17
BRANCH   9  29
ATOM     29  N   UNL d   1      24.832 -12.950  -4.645  0.00  0.00    -0.397 N 
ATOM     30  H   UNL d   1      24.618 -12.039  -4.269  0.00  0.00     0.156 HD
ATOM     31  H   UNL d   1      23.979 -13.530  -4.671  0.00  0.00     0.156 HD
ENDBRANCH   9  29
BRANCH   5  32
ATOM     32  N   UNL d   1      30.429 -12.012  -8.056  0.00  0.00    -0.367 N 
ATOM     33  C   UNL d   1      30.641 -12.201  -9.507  0.00  0.00     0.124 C 
ATOM     34  C   UNL d   1      31.905 -13.046  -9.631  0.00  0.00     0.021 C 
ATOM     35  C   UNL d   1      32.750 -12.534  -8.481  0.00  0.00     0.021 C 
ATOM     36  C   UNL d   1      31.737 -12.165  -7.378  0.00  0.00     0.124 C 
ENDBRANCH   5  32
TORSDOF 5
ENDMDL
MODEL 2
REMARK VINA RESULT:    -7.694      2.698      9.490
REMARK INTER + INTRA:         -10.548
REMARK INTER:                  -9.185
REMARK INTRA:                  -1.363
REMARK CONF_INDEPENDENT:        1.492
REMARK UNBOUND:                -1.363
REMARK  5 active torsions:
REMARK  status: ('A' for Active; 'I' for Inactive)
REMARK    1  A    between atoms: O_2  and  C_3 
REMARK    2  A    between atoms: C_8  and  N_9 
REMARK       I    between atoms: N_9  and  C_10 
REMARK    3  A    between atoms: C_10  and  C_12 
REMARK    4  A    between atoms: C_16  and  N_17 
REMARK    5  A    between atoms: C_25  and  N_26 
ROOT
ATOM      1  C   UNL d   1      26.165 -13.068  -4.479  0.00  0.00     0.102 C 
ATOM      2  S   UNL d   1      24.580 -13.700  -4.204  0.00  0.00    -0.064 SA
ATOM      3  C   UNL d   1      25.151 -14.918  -3.102  0.00  0.00     0.089 A 
ATOM      4  N   UNL d   1      24.403 -15.786  -2.331  0.00  0.00    -0.336 N 
ATOM      5  C   UNL d   1      24.962 -16.597  -1.388  0.00  0.00     0.113 A 
ATOM      6  C   UNL d   1      26.373 -16.590  -1.275  0.00  0.00     0.017 A 
ATOM      7  C   UNL d   1      27.145 -15.735  -2.094  0.00  0.00    -0.028 A 
ATOM      8  C   UNL d   1      26.528 -14.891  -3.030  0.00  0.00     0.033 A 
ATOM      9  C   UNL d   1      27.088 -13.937  -3.927  0.00  0.00     0.062 C 
ATOM     10  C   UNL d   1      28.637 -15.660  -1.933  0.00  0.00     0.077 C 
ATOM     11  C   UNL d   1      29.144 -16.193  -0.618  0.00  0.00     0.058 C 
ATOM     12  C   UNL d   1      28.825 -15.199   0.512  0.00  0.00     0.046 C 
ATOM     13  C   UNL d   1      30.668 -16.318  -0.737  0.00  0.00     0.046 C 
ATOM     14  O   UNL d   1      28.548 -17.479  -0.436  0.00  0.00    -0.376 OA
ATOM     15  C   UNL d   1      27.125 -17.423  -0.251  0.00  0.00     0.212 C 
ATOM     16  H   UNL d   1      23.391 -15.778  -2.394  0.00  0.00     0.168 HD
ENDROOT
BRANCH   1  17
ATOM     17  C   UNL d   1      26.616 -11.873  -5.233  0.00  0.00     0.265 C 
ATOM     18  N   UNL d   1      25.787 -11.190  -6.097  0.00  0.00    -0.320 N 
ATOM     19  H   UNL d   1      24.833 -11.047  -5.794  0.00  0.00     0.169 HD
ATOM     20  O   UNL d   1      27.797 -11.494  -5.104  0.00  0.00    -0.267 OA
BRANCH  18  21
ATOM     21  C   UNL d   1      26.288 -10.339  -7.145  0.00  0.00     0.068 A 
ATOM     22  C   UNL d   1      26.911 -10.971  -8.238  0.00  0.00     0.032 A 
ATOM     23  C   UNL d   1      27.402 -10.239  -9.334  0.00  0.00     0.002 A 
ATOM     24  C   UNL d   1      27.269  -8.857  -9.368  0.00  0.00     0.003 A 
ATOM     25  C   UNL d   1      26.704  -8.205  -8.276  0.00  0.00     0.039 A 
ATOM     26  C   UNL d   1      26.226  -8.924  -7.158  0.00  0.00     0.095 A 
BRANCH  26  27
ATOM     27  O   UNL d   1      25.676  -8.098  -6.215  0.00  0.00    -0.354 OA
ATOM     28  C   UNL d   1      24.358  -8.364  -5.764  0.00  0.00     0.210 C 
ENDBRANCH  26  27
ENDBRANCH  18  21
ENDBRANCH   1  17
BRANCH   9  29
ATOM     29  N   UNL d   1      28.411 -13.793  -4.168  0.00  0.00    -0.397 N 
ATOM     30  H   UNL d   1      29.093 -14.491  -4.422  0.00  0.00     0.156 HD
ATOM     31  H   UNL d   1      28.885 -12.908  -3.930  0.00  0.00     0.156 HD
ENDBRANCH   9  29
BRANCH   5  32
ATOM     32  N   UNL d   1      24.097 -17.281  -0.553  0.00  0.00    -0.367 N 
ATOM     33  C   UNL d   1      24.223 -18.717  -0.223  0.00  0.00     0.124 C 
ATOM     34  C   UNL d   1      22.856 -19.326  -0.519  0.00  0.00     0.021 C 
ATOM     35  C   UNL d   1      21.910 -18.211  -0.115  0.00  0.00     0.021 C 
ATOM     36  C   UNL d   1      22.667 -16.910  -0.449  0.00  0.00     0.124 C 
ENDBRANCH   5  32
TORSDOF 5
ENDMDL
MODEL 3
REMARK VINA RESULT:    -7.340      6.079      9.236
REMARK INTER + INTRA:         -10.112
REMARK INTER:                  -8.831
REMARK INTRA:                  -1.280
REMARK CONF_INDEPENDENT:        1.492
REMARK UNBOUND:                -1.280
REMARK  5 active torsions:
REMARK  status: ('A' for Active; 'I' for Inactive)
REMARK    1  A    between atoms: O_2  and  C_3 
REMARK    2  A    between atoms: C_8  and  N_9 
REMARK       I    between atoms: N_9  and  C_10 
REMARK    3  A    between atoms: C_10  and  C_12 
REMARK    4  A    between atoms: C_16  and  N_17 
REMARK    5  A    between atoms: C_25  and  N_26 
ROOT
ATOM      1  C   UNL d   1      27.614 -12.849   3.410  0.00  0.00     0.102 C 
ATOM      2  S   UNL d   1      27.498 -11.537   2.290  0.00  0.00    -0.064 SA
ATOM      3  C   UNL d   1      27.348 -12.595   0.918  0.00  0.00     0.089 A 
ATOM      4  N   UNL d   1      27.079 -12.255  -0.394  0.00  0.00    -0.336 N 
ATOM      5  C   UNL d   1      26.834 -13.186  -1.358  0.00  0.00     0.113 A 
ATOM      6  C   UNL d   1      26.949 -14.549  -0.992  0.00  0.00     0.017 A 
ATOM      7  C   UNL d   1      27.267 -14.900   0.339  0.00  0.00    -0.028 A 
ATOM      8  C   UNL d   1      27.480 -13.910   1.310  0.00  0.00     0.033 A 
ATOM      9  C   UNL d   1      27.776 -14.023   2.698  0.00  0.00     0.062 C 
ATOM     10  C   UNL d   1      27.318 -16.343   0.760  0.00  0.00     0.077 C 
ATOM     11  C   UNL d   1      26.606 -17.284  -0.175  0.00  0.00     0.058 C 
ATOM     12  C   UNL d   1      25.083 -17.138  -0.013  0.00  0.00     0.046 C 
ATOM     13  C   UNL d   1      27.001 -18.710   0.230  0.00  0.00     0.046 C 
ATOM     14  O   UNL d   1      27.073 -16.990  -1.493  0.00  0.00    -0.376 OA
ATOM     15  C   UNL d   1      26.677 -15.690  -1.958  0.00  0.00     0.212 C 
ATOM     16  H   UNL d   1      26.974 -11.279  -0.654  0.00  0.00     0.168 HD
ENDROOT
BRANCH   1  17
ATOM     17  C   UNL d   1      27.645 -12.858   4.893  0.00  0.00     0.265 C 
ATOM     18  N   UNL d   1      28.356 -11.929   5.622  0.00  0.00    -0.320 N 
ATOM     19  H   UNL d   1      28.317 -10.972   5.300  0.00  0.00     0.169 HD
ATOM     20  O   UNL d   1      27.031 -13.760   5.498  0.00  0.00    -0.267 OA
BRANCH  18  21
ATOM     21  C   UNL d   1      28.767 -12.159   6.983  0.00  0.00     0.068 A 
ATOM     22  C   UNL d   1      28.927 -13.498   7.385  0.00  0.00     0.032 A 
ATOM     23  C   UNL d   1      29.362 -13.835   8.680  0.00  0.00     0.002 A 
ATOM     24  C   UNL d   1      29.658 -12.837   9.599  0.00  0.00     0.003 A 
ATOM     25  C   UNL d   1      29.456 -11.507   9.243  0.00  0.00     0.039 A 
ATOM     26  C   UNL d   1      29.000 -11.153   7.954  0.00  0.00     0.095 A 
BRANCH  26  27
ATOM     27  O   UNL d   1      28.906  -9.796   7.798  0.00  0.00    -0.354 OA
ATOM     28  C   UNL d   1      29.841  -8.969   8.470  0.00  0.00     0.210 C 
ENDBRANCH  26  27
ENDBRANCH  18  21
ENDBRANCH   1  17
BRANCH   9  29
ATOM     29  N   UNL d   1      28.094 -15.179   3.325  0.00  0.00    -0.397 N 
ATOM     30  H   UNL d   1      28.118 -15.384   4.312  0.00  0.00     0.156 HD
ATOM     31  H   UNL d   1      28.529 -15.949   2.795  0.00  0.00     0.156 HD
ENDBRANCH   9  29
BRANCH   5  32
ATOM     32  N   UNL d   1      26.393 -12.723  -2.584  0.00  0.00    -0.367 N 
ATOM     33  C   UNL d   1      25.154 -13.181  -3.248  0.00  0.00     0.124 C 
ATOM     34  C   UNL d   1      25.572 -13.594  -4.656  0.00  0.00     0.021 C 
ATOM     35  C   UNL d   1      26.653 -12.581  -4.983  0.00  0.00     0.021 C 
ATOM     36  C   UNL d   1      27.344 -12.292  -3.634  0.00  0.00     0.124 C 
ENDBRANCH   5  32
TORSDOF 5
ENDMDL
MODEL 4
REMARK VINA RESULT:    -7.328      5.683      9.109
REMARK INTER + INTRA:         -10.409
REMARK INTER:                  -8.819
REMARK INTRA:                  -1.590
REMARK CONF_INDEPENDENT:        1.492
REMARK UNBOUND:                -1.590
REMARK  5 active torsions:
REMARK  status: ('A' for Active; 'I' for Inactive)
REMARK    1  A    between atoms: O_2  and  C_3 
REMARK    2  A    between atoms: C_8  and  N_9 
REMARK       I    between atoms: N_9  and  C_10 
REMARK    3  A    between atoms: C_10  and  C_12 
REMARK    4  A    between atoms: C_16  and  N_17 
REMARK    5  A    between atoms: C_25  and  N_26 
ROOT
ATOM      1  C   UNL d   1      27.579 -12.879   3.322  0.00  0.00     0.102 C 
ATOM      2  S   UNL d   1      27.413 -11.645   2.122  0.00  0.00    -0.064 SA
ATOM      3  C   UNL d   1      27.260 -12.792   0.824  0.00  0.00     0.089 A 
ATOM      4  N   UNL d   1      26.960 -12.542  -0.501  0.00  0.00    -0.336 N 
ATOM      5  C   UNL d   1      26.717 -13.539  -1.399  0.00  0.00     0.113 A 
ATOM      6  C   UNL d   1      26.868 -14.872  -0.948  0.00  0.00     0.017 A 
ATOM      7  C   UNL d   1      27.219 -15.131   0.396  0.00  0.00    -0.028 A 
ATOM      8  C   UNL d   1      27.428 -14.076   1.297  0.00  0.00     0.033 A 
ATOM      9  C   UNL d   1      27.753 -14.093   2.683  0.00  0.00     0.062 C 
ATOM     10  C   UNL d   1      27.309 -16.542   0.907  0.00  0.00     0.077 C 
ATOM     11  C   UNL d   1      26.600 -17.556   0.048  0.00  0.00     0.058 C 
ATOM     12  C   UNL d   1      25.078 -17.431   0.231  0.00  0.00     0.046 C 
ATOM     13  C   UNL d   1      27.034 -18.945   0.536  0.00  0.00     0.046 C 
ATOM     14  O   UNL d   1      27.036 -17.338  -1.295  0.00  0.00    -0.376 OA
ATOM     15  C   UNL d   1      26.603 -16.079  -1.834  0.00  0.00     0.212 C 
ATOM     16  H   UNL d   1      26.829 -11.588  -0.821  0.00  0.00     0.168 HD
ENDROOT
BRANCH   1  17
ATOM     17  C   UNL d   1      27.638 -12.793   4.801  0.00  0.00     0.265 C 
ATOM     18  N   UNL d   1      28.367 -11.824   5.455  0.00  0.00    -0.320 N 
ATOM     19  H   UNL d   1      28.327 -10.888   5.072  0.00  0.00     0.169 HD
ATOM     20  O   UNL d   1      27.030 -13.649   5.475  0.00  0.00    -0.267 OA
BRANCH  18  21
ATOM     21  C   UNL d   1      28.802 -11.966   6.820  0.00  0.00     0.068 A 
ATOM     22  C   UNL d   1      28.912 -10.788   7.582  0.00  0.00     0.032 A 
ATOM     23  C   UNL d   1      29.290 -10.816   8.937  0.00  0.00     0.002 A 
ATOM     24  C   UNL d   1      29.556 -12.025   9.564  0.00  0.00     0.003 A 
ATOM     25  C   UNL d   1      29.506 -13.199   8.817  0.00  0.00     0.039 A 
ATOM     26  C   UNL d   1      29.148 -13.187   7.452  0.00  0.00     0.095 A 
BRANCH  26  27
ATOM     27  O   UNL d   1      29.123 -14.447   6.916  0.00  0.00    -0.354 OA
ATOM     28  C   UNL d   1      30.030 -14.759   5.872  0.00  0.00     0.210 C 
ENDBRANCH  26  27
ENDBRANCH  18  21
ENDBRANCH   1  17
BRANCH   9  29
ATOM     29  N   UNL d   1      28.108 -15.200   3.376  0.00  0.00    -0.397 N 
ATOM     30  H   UNL d   1      28.154 -16.159   3.067  0.00  0.00     0.156 HD
ATOM     31  H   UNL d   1      28.208 -15.155   4.402  0.00  0.00     0.156 HD
ENDBRANCH   9  29
BRANCH   5  32
ATOM     32  N   UNL d   1      26.243 -13.165  -2.643  0.00  0.00    -0.367 N 
ATOM     33  C   UNL d   1      25.011 -13.701  -3.258  0.00  0.00     0.124 C 
ATOM     34  C   UNL d   1      25.422 -14.184  -4.646  0.00  0.00     0.021 C 
ATOM     35  C   UNL d   1      26.464 -13.160  -5.050  0.00  0.00     0.021 C 
ATOM     36  C   UNL d   1      27.164 -12.767  -3.733  0.00  0.00     0.124 C 
ENDBRANCH   5  32
TORSDOF 5
ENDMDL
MODEL 5
REMARK VINA RESULT:    -7.144      7.743     10.236
REMARK INTER + INTRA:         -10.043
REMARK INTER:                  -8.635
REMARK INTRA:                  -1.407
REMARK CONF_INDEPENDENT:        1.492
REMARK UNBOUND:                -1.407
REMARK  5 active torsions:
REMARK  status: ('A' for Active; 'I' for Inactive)
REMARK    1  A    between atoms: O_2  and  C_3 
REMARK    2  A    between atoms: C_8  and  N_9 
REMARK       I    between atoms: N_9  and  C_10 
REMARK    3  A    between atoms: C_10  and  C_12 
REMARK    4  A    between atoms: C_16  and  N_17 
REMARK    5  A    between atoms: C_25  and  N_26 
ROOT
ATOM      1  C   UNL d   1      28.396 -13.558   5.719  0.00  0.00     0.102 C 
ATOM      2  S   UNL d   1      28.320 -15.013   4.788  0.00  0.00    -0.064 SA
ATOM      3  C   UNL d   1      27.865 -14.174   3.334  0.00  0.00     0.089 A 
ATOM      4  N   UNL d   1      27.735 -14.689   2.059  0.00  0.00    -0.336 N 
ATOM      5  C   UNL d   1      27.519 -13.901   0.968  0.00  0.00     0.113 A 
ATOM      6  C   UNL d   1      27.342 -12.515   1.190  0.00  0.00     0.017 A 
ATOM      7  C   UNL d   1      27.431 -11.990   2.499  0.00  0.00    -0.028 A 
ATOM      8  C   UNL d   1      27.687 -12.831   3.592  0.00  0.00     0.033 A 
ATOM      9  C   UNL d   1      27.849 -12.530   4.975  0.00  0.00     0.062 C 
ATOM     10  C   UNL d   1      27.321 -10.510   2.741  0.00  0.00     0.077 C 
ATOM     11  C   UNL d   1      27.549  -9.665   1.515  0.00  0.00     0.058 C 
ATOM     12  C   UNL d   1      29.046  -9.644   1.160  0.00  0.00     0.046 C 
ATOM     13  C   UNL d   1      27.114  -8.236   1.862  0.00  0.00     0.046 C 
ATOM     14  O   UNL d   1      26.723 -10.203   0.482  0.00  0.00    -0.376 OA
ATOM     15  C   UNL d   1      27.122 -11.518   0.064  0.00  0.00     0.212 C 
ATOM     16  H   UNL d   1      27.883 -15.679   1.894  0.00  0.00     0.168 HD
ENDROOT
BRANCH   1  17
ATOM     17  C   UNL d   1      28.850 -13.319   7.110  0.00  0.00     0.265 C 
ATOM     18  N   UNL d   1      28.992 -14.340   8.025  0.00  0.00    -0.320 N 
ATOM     19  H   UNL d   1      29.403 -15.200   7.688  0.00  0.00     0.169 HD
ATOM     20  O   UNL d   1      29.082 -12.148   7.471  0.00  0.00    -0.267 OA
BRANCH  18  21
ATOM     21  C   UNL d   1      28.993 -14.114   9.448  0.00  0.00     0.068 A 
ATOM     22  C   UNL d   1      28.155 -13.092   9.933  0.00  0.00     0.032 A 
ATOM     23  C   UNL d   1      28.049 -12.812  11.307  0.00  0.00     0.002 A 
ATOM     24  C   UNL d   1      28.771 -13.557  12.230  0.00  0.00     0.003 A 
ATOM     25  C   UNL d   1      29.646 -14.537  11.771  0.00  0.00     0.039 A 
ATOM     26  C   UNL d   1      29.780 -14.816  10.394  0.00  0.00     0.095 A 
BRANCH  26  27
ATOM     27  O   UNL d   1      30.662 -15.838  10.160  0.00  0.00    -0.354 OA
ATOM     28  C   UNL d   1      32.051 -15.574  10.270  0.00  0.00     0.210 C 
ENDBRANCH  26  27
ENDBRANCH  18  21
ENDBRANCH   1  17
BRANCH   9  29
ATOM     29  N   UNL d   1      27.596 -11.324   5.533  0.00  0.00    -0.397 N 
ATOM     30  H   UNL d   1      26.762 -10.759   5.482  0.00  0.00     0.156 HD
ATOM     31  H   UNL d   1      28.364 -10.780   5.953  0.00  0.00     0.156 HD
ENDBRANCH   9  29
BRANCH   5  32
ATOM     32  N   UNL d   1      27.594 -14.509  -0.272  0.00  0.00    -0.367 N 
ATOM     33  C   UNL d   1      26.418 -14.938  -1.059  0.00  0.00     0.124 C 
ATOM     34  C   UNL d   1      26.677 -16.398  -1.418  0.00  0.00     0.021 C 
ATOM     35  C   UNL d   1      28.178 -16.418  -1.634  0.00  0.00     0.021 C 
ATOM     36  C   UNL d   1      28.734 -15.380  -0.639  0.00  0.00     0.124 C 
ENDBRANCH   5  32
TORSDOF 5
ENDMDL
MODEL 6
REMARK VINA RESULT:    -7.092      6.788     10.505
REMARK INTER + INTRA:         -10.005
REMARK INTER:                  -8.584
REMARK INTRA:                  -1.422
REMARK CONF_INDEPENDENT:        1.492
REMARK UNBOUND:                -1.422
REMARK  5 active torsions:
REMARK  status: ('A' for Active; 'I' for Inactive)
REMARK    1  A    between atoms: O_2  and  C_3 
REMARK    2  A    between atoms: C_8  and  N_9 
REMARK       I    between atoms: N_9  and  C_10 
REMARK    3  A    between atoms: C_10  and  C_12 
REMARK    4  A    between atoms: C_16  and  N_17 
REMARK    5  A    between atoms: C_25  and  N_26 
ROOT
ATOM      1  C   UNL d   1      28.977 -13.871   4.723  0.00  0.00     0.102 C 
ATOM      2  S   UNL d   1      27.408 -13.964   4.001  0.00  0.00    -0.064 SA
ATOM      3  C   UNL d   1      28.042 -14.454   2.457  0.00  0.00     0.089 A 
ATOM      4  N   UNL d   1      27.340 -14.858   1.338  0.00  0.00    -0.336 N 
ATOM      5  C   UNL d   1      27.952 -15.365   0.231  0.00  0.00     0.113 A 
ATOM      6  C   UNL d   1      29.367 -15.388   0.222  0.00  0.00     0.017 A 
ATOM      7  C   UNL d   1      30.091 -14.934   1.348  0.00  0.00    -0.028 A 
ATOM      8  C   UNL d   1      29.421 -14.450   2.482  0.00  0.00     0.033 A 
ATOM      9  C   UNL d   1      29.928 -13.976   3.725  0.00  0.00     0.062 C 
ATOM     10  C   UNL d   1      31.591 -15.023   1.383  0.00  0.00     0.077 C 
ATOM     11  C   UNL d   1      32.176 -15.985   0.382  0.00  0.00     0.058 C 
ATOM     12  C   UNL d   1      31.932 -17.434   0.837  0.00  0.00     0.046 C 
ATOM     13  C   UNL d   1      33.689 -15.736   0.346  0.00  0.00     0.046 C 
ATOM     14  O   UNL d   1      31.587 -15.675  -0.882  0.00  0.00    -0.376 OA
ATOM     15  C   UNL d   1      30.178 -15.950  -0.934  0.00  0.00     0.212 C 
ATOM     16  H   UNL d   1      26.325 -14.864   1.350  0.00  0.00     0.168 HD
ENDROOT
BRANCH   1  17
ATOM     17  C   UNL d   1      29.385 -13.630   6.128  0.00  0.00     0.265 C 
ATOM     18  N   UNL d   1      28.883 -14.366   7.179  0.00  0.00    -0.320 N 
ATOM     19  H   UNL d   1      28.785 -15.362   7.031  0.00  0.00     0.169 HD
ATOM     20  O   UNL d   1      30.187 -12.705   6.368  0.00  0.00    -0.267 OA
BRANCH  18  21
ATOM     21  C   UNL d   1      28.902 -13.893   8.539  0.00  0.00     0.068 A 
ATOM     22  C   UNL d   1      29.095 -14.857   9.548  0.00  0.00     0.032 A 
ATOM     23  C   UNL d   1      29.169 -14.500  10.906  0.00  0.00     0.002 A 
ATOM     24  C   UNL d   1      29.064 -13.169  11.286  0.00  0.00     0.003 A 
ATOM     25  C   UNL d   1      28.819 -12.205  10.313  0.00  0.00     0.039 A 
ATOM     26  C   UNL d   1      28.721 -12.549   8.947  0.00  0.00     0.095 A 
BRANCH  26  27
ATOM     27  O   UNL d   1      28.517 -11.450   8.155  0.00  0.00    -0.354 OA
ATOM     28  C   UNL d   1      29.278 -10.281   8.406  0.00  0.00     0.210 C 
ENDBRANCH  26  27
ENDBRANCH  18  21
ENDBRANCH   1  17
BRANCH   9  29
ATOM     29  N   UNL d   1      31.234 -13.734   3.980  0.00  0.00    -0.397 N 
ATOM     30  H   UNL d   1      32.051 -14.227   3.652  0.00  0.00     0.156 HD
ATOM     31  H   UNL d   1      31.499 -13.069   4.723  0.00  0.00     0.156 HD
ENDBRANCH   9  29
BRANCH   5  32
ATOM     32  N   UNL d   1      27.138 -15.909  -0.746  0.00  0.00    -0.367 N 
ATOM     33  C   UNL d   1      26.406 -15.113  -1.754  0.00  0.00     0.124 C 
ATOM     34  C   UNL d   1      24.956 -15.579  -1.670  0.00  0.00     0.021 C 
ATOM     35  C   UNL d   1      25.108 -17.059  -1.376  0.00  0.00     0.021 C 
ATOM     36  C   UNL d   1      26.383 -17.162  -0.515  0.00  0.00     0.124 C 
ENDBRANCH   5  32
TORSDOF 5
ENDMDL
MODEL 7
REMARK VINA RESULT:    -7.047      7.050     10.701
REMARK INTER + INTRA:          -9.978
REMARK INTER:                  -8.539
REMARK INTRA:                  -1.439
REMARK CONF_INDEPENDENT:        1.492
REMARK UNBOUND:                -1.439
REMARK  5 active torsions:
REMARK  status: ('A' for Active; 'I' for Inactive)
REMARK    1  A    between atoms: O_2  and  C_3 
REMARK    2  A    between atoms: C_8  and  N_9 
REMARK       I    between atoms: N_9  and  C_10 
REMARK    3  A    between atoms: C_10  and  C_12 
REMARK    4  A    between atoms: C_16  and  N_17 
REMARK    5  A    between atoms: C_25  and  N_26 
ROOT
ATOM      1  C   UNL d   1      28.913 -13.845   5.095  0.00  0.00     0.102 C 
ATOM      2  S   UNL d   1      27.366 -14.064   4.353  0.00  0.00    -0.064 SA
ATOM      3  C   UNL d   1      28.056 -14.450   2.804  0.00  0.00     0.089 A 
ATOM      4  N   UNL d   1      27.405 -14.887   1.667  0.00  0.00    -0.336 N 
ATOM      5  C   UNL d   1      28.072 -15.305   0.554  0.00  0.00     0.113 A 
ATOM      6  C   UNL d   1      29.483 -15.196   0.561  0.00  0.00     0.017 A 
ATOM      7  C   UNL d   1      30.151 -14.708   1.707  0.00  0.00    -0.028 A 
ATOM      8  C   UNL d   1      29.429 -14.319   2.845  0.00  0.00     0.033 A 
ATOM      9  C   UNL d   1      29.878 -13.834   4.106  0.00  0.00     0.062 C 
ATOM     10  C   UNL d   1      31.653 -14.658   1.757  0.00  0.00     0.077 C 
ATOM     11  C   UNL d   1      32.333 -15.534   0.737  0.00  0.00     0.058 C 
ATOM     12  C   UNL d   1      32.222 -17.011   1.152  0.00  0.00     0.046 C 
ATOM     13  C   UNL d   1      33.817 -15.145   0.725  0.00  0.00     0.046 C 
ATOM     14  O   UNL d   1      31.730 -15.245  -0.525  0.00  0.00    -0.376 OA
ATOM     15  C   UNL d   1      30.353 -15.649  -0.600  0.00  0.00     0.212 C 
ATOM     16  H   UNL d   1      26.395 -14.987   1.668  0.00  0.00     0.168 HD
ENDROOT
BRANCH   1  17
ATOM     17  C   UNL d   1      29.284 -13.605   6.511  0.00  0.00     0.265 C 
ATOM     18  N   UNL d   1      28.890 -14.446   7.529  0.00  0.00    -0.320 N 
ATOM     19  H   UNL d   1      28.932 -15.439   7.342  0.00  0.00     0.169 HD
ATOM     20  O   UNL d   1      29.949 -12.588   6.791  0.00  0.00    -0.267 OA
BRANCH  18  21
ATOM     21  C   UNL d   1      28.844 -14.030   8.907  0.00  0.00     0.068 A 
ATOM     22  C   UNL d   1      28.221 -12.797   9.181  0.00  0.00     0.032 A 
ATOM     23  C   UNL d   1      28.087 -12.313  10.495  0.00  0.00     0.002 A 
ATOM     24  C   UNL d   1      28.561 -13.057  11.567  0.00  0.00     0.003 A 
ATOM     25  C   UNL d   1      29.227 -14.254  11.317  0.00  0.00     0.039 A 
ATOM     26  C   UNL d   1      29.389 -14.744  10.003  0.00  0.00     0.095 A 
BRANCH  26  27
ATOM     27  O   UNL d   1      30.037 -15.950   9.982  0.00  0.00    -0.354 OA
ATOM     28  C   UNL d   1      31.156 -16.135  10.832  0.00  0.00     0.210 C 
ENDBRANCH  26  27
ENDBRANCH  18  21
ENDBRANCH   1  17
BRANCH   9  29
ATOM     29  N   UNL d   1      31.154 -13.479   4.383  0.00  0.00    -0.397 N 
ATOM     30  H   UNL d   1      32.011 -13.785   3.946  0.00  0.00     0.156 HD
ATOM     31  H   UNL d   1      31.366 -12.948   5.241  0.00  0.00     0.156 HD
ENDBRANCH   9  29
BRANCH   5  32
ATOM     32  N   UNL d   1      27.321 -15.895  -0.446  0.00  0.00    -0.367 N 
ATOM     33  C   UNL d   1      26.465 -15.147  -1.392  0.00  0.00     0.124 C 
ATOM     34  C   UNL d   1      25.095 -15.816  -1.321  0.00  0.00     0.021 C 
ATOM     35  C   UNL d   1      25.457 -17.275  -1.125  0.00  0.00     0.021 C 
ATOM     36  C   UNL d   1      26.752 -17.253  -0.287  0.00  0.00     0.124 C 
ENDBRANCH   5  32
TORSDOF 5
ENDMDL
MODEL 8
REMARK VINA RESULT:    -6.684      2.217      4.859
REMARK INTER + INTRA:          -9.505
REMARK INTER:                  -8.176
REMARK INTRA:                  -1.329
REMARK CONF_INDEPENDENT:        1.492
REMARK UNBOUND:                -1.329
REMARK  5 active torsions:
REMARK  status: ('A' for Active; 'I' for Inactive)
REMARK    1  A    between atoms: O_2  and  C_3 
REMARK    2  A    between atoms: C_8  and  N_9 
REMARK       I    between atoms: N_9  and  C_10 
REMARK    3  A    between atoms: C_10  and  C_12 
REMARK    4  A    between atoms: C_16  and  N_17 
REMARK    5  A    between atoms: C_25  and  N_26 
ROOT
ATOM      1  C   UNL d   1      26.219 -13.217  -4.030  0.00  0.00     0.102 C 
ATOM      2  S   UNL d   1      25.517 -11.758  -3.423  0.00  0.00    -0.064 SA
ATOM      3  C   UNL d   1      25.932 -10.851  -4.848  0.00  0.00     0.089 A 
ATOM      4  N   UNL d   1      25.569  -9.557  -5.169  0.00  0.00    -0.336 N 
ATOM      5  C   UNL d   1      25.828  -9.003  -6.387  0.00  0.00     0.113 A 
ATOM      6  C   UNL d   1      26.573  -9.777  -7.309  0.00  0.00     0.017 A 
ATOM      7  C   UNL d   1      26.985 -11.085  -6.967  0.00  0.00    -0.028 A 
ATOM      8  C   UNL d   1      26.669 -11.631  -5.714  0.00  0.00     0.033 A 
ATOM      9  C   UNL d   1      26.944 -12.916  -5.168  0.00  0.00     0.062 C 
ATOM     10  C   UNL d   1      27.710 -11.945  -7.964  0.00  0.00     0.077 C 
ATOM     11  C   UNL d   1      27.565 -11.492  -9.393  0.00  0.00     0.058 C 
ATOM     12  C   UNL d   1      26.155 -11.825  -9.911  0.00  0.00     0.046 C 
ATOM     13  C   UNL d   1      28.585 -12.280 -10.224  0.00  0.00     0.046 C 
ATOM     14  O   UNL d   1      27.870 -10.096  -9.417  0.00  0.00    -0.376 OA
ATOM     15  C   UNL d   1      26.911  -9.294  -8.710  0.00  0.00     0.212 C 
ATOM     16  H   UNL d   1      25.016  -9.009  -4.518  0.00  0.00     0.168 HD
ENDROOT
BRANCH   1  17
ATOM     17  C   UNL d   1      26.209 -14.597  -3.487  0.00  0.00     0.265 C 
ATOM     18  N   UNL d   1      25.422 -14.963  -2.417  0.00  0.00    -0.320 N 
ATOM     19  H   UNL d   1      24.480 -14.596  -2.398  0.00  0.00     0.169 HD
ATOM     20  O   UNL d   1      26.966 -15.446  -3.999  0.00  0.00    -0.267 OA
BRANCH  18  21
ATOM     21  C   UNL d   1      25.703 -16.119  -1.605  0.00  0.00     0.068 A 
ATOM     22  C   UNL d   1      27.054 -16.373  -1.302  0.00  0.00     0.032 A 
ATOM     23  C   UNL d   1      27.438 -17.452  -0.485  0.00  0.00     0.002 A 
ATOM     24  C   UNL d   1      26.477 -18.295   0.058  0.00  0.00     0.003 A 
ATOM     25  C   UNL d   1      25.140 -18.096  -0.271  0.00  0.00     0.039 A 
ATOM     26  C   UNL d   1      24.739 -17.030  -1.106  0.00  0.00     0.095 A 
BRANCH  26  27
ATOM     27  O   UNL d   1      23.381 -16.991  -1.272  0.00  0.00    -0.354 OA
ATOM     28  C   UNL d   1      22.575 -17.850  -0.482  0.00  0.00     0.210 C 
ENDBRANCH  26  27
ENDBRANCH  18  21
ENDBRANCH   1  17
BRANCH   9  29
ATOM     29  N   UNL d   1      27.761 -13.833  -5.735  0.00  0.00    -0.397 N 
ATOM     30  H   UNL d   1      27.717 -14.840  -5.693  0.00  0.00     0.156 HD
ATOM     31  H   UNL d   1      28.657 -13.537  -6.152  0.00  0.00     0.156 HD
ENDBRANCH   9  29
BRANCH   5  32
ATOM     32  N   UNL d   1      25.253  -7.775  -6.656  0.00  0.00    -0.367 N 
ATOM     33  C   UNL d   1      25.931  -6.478  -6.447  0.00  0.00     0.124 C 
ATOM     34  C   UNL d   1      24.970  -5.643  -5.606  0.00  0.00     0.021 C 
ATOM     35  C   UNL d   1      23.617  -6.073  -6.139  0.00  0.00     0.021 C 
ATOM     36  C   UNL d   1      23.795  -7.557  -6.520  0.00  0.00     0.124 C 
ENDBRANCH   5  32
TORSDOF 5
ENDMDL
MODEL 9
REMARK VINA RESULT:    -6.344      6.521     11.588
REMARK INTER + INTRA:          -9.253
REMARK INTER:                  -7.836
REMARK INTRA:                  -1.417
REMARK CONF_INDEPENDENT:        1.492
REMARK UNBOUND:                -1.417
REMARK  5 active torsions:
REMARK  status: ('A' for Active; 'I' for Inactive)
REMARK    1  A    between atoms: O_2  and  C_3 
REMARK    2  A    between atoms: C_8  and  N_9 
REMARK       I    between atoms: N_9  and  C_10 
REMARK    3  A    between atoms: C_10  and  C_12 
REMARK    4  A    between atoms: C_16  and  N_17 
REMARK    5  A    between atoms: C_25  and  N_26 
ROOT
ATOM      1  C   UNL d   1      30.882 -19.369  -4.180  0.00  0.00     0.102 C 
ATOM      2  S   UNL d   1      30.674 -20.750  -5.199  0.00  0.00    -0.064 SA
ATOM      3  C   UNL d   1      30.833 -21.870  -3.878  0.00  0.00     0.089 A 
ATOM      4  N   UNL d   1      30.647 -23.239  -3.895  0.00  0.00    -0.336 N 
ATOM      5  C   UNL d   1      30.652 -23.994  -2.761  0.00  0.00     0.113 A 
ATOM      6  C   UNL d   1      30.943 -23.337  -1.541  0.00  0.00     0.017 A 
ATOM      7  C   UNL d   1      31.177 -21.944  -1.526  0.00  0.00    -0.028 A 
ATOM      8  C   UNL d   1      31.131 -21.196  -2.712  0.00  0.00     0.033 A 
ATOM      9  C   UNL d   1      31.299 -19.800  -2.934  0.00  0.00     0.062 C 
ATOM     10  C   UNL d   1      31.412 -21.220  -0.229  0.00  0.00     0.077 C 
ATOM     11  C   UNL d   1      30.957 -21.976   0.992  0.00  0.00     0.058 C 
ATOM     12  C   UNL d   1      29.421 -21.950   1.086  0.00  0.00     0.046 C 
ATOM     13  C   UNL d   1      31.529 -21.249   2.215  0.00  0.00     0.046 C 
ATOM     14  O   UNL d   1      31.502 -23.292   0.890  0.00  0.00    -0.376 OA
ATOM     15  C   UNL d   1      30.955 -24.051  -0.200  0.00  0.00     0.212 C 
ATOM     16  H   UNL d   1      30.417 -23.708  -4.764  0.00  0.00     0.168 HD
ENDROOT
BRANCH   1  17
ATOM     17  C   UNL d   1      30.764 -17.920  -4.474  0.00  0.00     0.265 C 
ATOM     18  N   UNL d   1      29.831 -17.420  -5.356  0.00  0.00    -0.320 N 
ATOM     19  H   UNL d   1      28.905 -17.824  -5.316  0.00  0.00     0.169 HD
ATOM     20  O   UNL d   1      31.560 -17.132  -3.925  0.00  0.00    -0.267 OA
BRANCH  18  21
ATOM     21  C   UNL d   1      29.970 -16.134  -5.988  0.00  0.00     0.068 A 
ATOM     22  C   UNL d   1      31.250 -15.790  -6.464  0.00  0.00     0.032 A 
ATOM     23  C   UNL d   1      31.490 -14.576  -7.131  0.00  0.00     0.002 A 
ATOM     24  C   UNL d   1      30.451 -13.681  -7.349  0.00  0.00     0.003 A 
ATOM     25  C   UNL d   1      29.189 -13.974  -6.841  0.00  0.00     0.039 A 
ATOM     26  C   UNL d   1      28.936 -15.179  -6.151  0.00  0.00     0.095 A 
BRANCH  26  27
ATOM     27  O   UNL d   1      27.625 -15.287  -5.770  0.00  0.00    -0.354 OA
ATOM     28  C   UNL d   1      27.252 -14.823  -4.482  0.00  0.00     0.210 C 
ENDBRANCH  26  27
ENDBRANCH  18  21
ENDBRANCH   1  17
BRANCH   9  29
ATOM     29  N   UNL d   1      31.731 -18.920  -2.002  0.00  0.00    -0.397 N 
ATOM     30  H   UNL d   1      31.527 -18.884  -1.015  0.00  0.00     0.156 HD
ATOM     31  H   UNL d   1      32.211 -18.055  -2.294  0.00  0.00     0.156 HD
ENDBRANCH   9  29
BRANCH   5  32
ATOM     32  N   UNL d   1      30.270 -25.318  -2.884  0.00  0.00    -0.367 N 
ATOM     33  C   UNL d   1      30.497 -26.138  -4.092  0.00  0.00     0.124 C 
ATOM     34  C   UNL d   1      29.137 -26.735  -4.443  0.00  0.00     0.021 C 
ATOM     35  C   UNL d   1      28.529 -26.983  -3.077  0.00  0.00     0.021 C 
ATOM     36  C   UNL d   1      29.072 -25.844  -2.189  0.00  0.00     0.124 C 
ENDBRANCH   5  32
TORSDOF 5
ENDMDL
