MODEL 1
REMARK VINA RESULT:    -9.710      0.000      0.000
REMARK INTER + INTRA:         -13.854
REMARK INTER:                 -12.394
REMARK INTRA:                  -1.459
REMARK CONF_INDEPENDENT:        2.685
REMARK UNBOUND:                -1.459
REMARK  9 active torsions:
REMARK  status: ('A' for Active; 'I' for Inactive)
REMARK    1  A    between atoms: C_2  and  O_3 
REMARK    2  A    between atoms: C_2  and  C_11 
REMARK    3  A    between atoms: O_3  and  C_4 
REMARK       I    between atoms: C_11  and  N_13 
REMARK    4  A    between atoms: N_13  and  C_14 
REMARK    5  A    between atoms: C_17  and  N_18 
REMARK    6  A    between atoms: N_18  and  C_19 
REMARK    7  A    between atoms: C_19  and  N_21 
REMARK       I    between atoms: N_21  and  C_22 
REMARK    8  A    between atoms: C_22  and  C_24 
REMARK    9  A    between atoms: C_28  and  N_29 
ROOT
ATOM      1  C   UNL d   1      26.157 -12.039  -3.915  0.00  0.00     0.034 A 
ATOM      2  C   UNL d   1      25.899 -10.899  -3.145  0.00  0.00     0.032 A 
ATOM      3  C   UNL d   1      25.531  -9.651  -3.755  0.00  0.00     0.032 A 
ATOM      4  C   UNL d   1      25.432  -9.529  -5.152  0.00  0.00     0.034 A 
ATOM      5  C   UNL d   1      25.642 -10.720  -5.835  0.00  0.00     0.032 A 
ATOM      6  C   UNL d   1      26.042 -11.918  -5.274  0.00  0.00     0.032 A 
ENDROOT
BRANCH   4   7
ATOM      7  N   UNL d   1      25.147  -8.272  -5.849  0.00  0.00    -0.333 N 
ATOM      8  H   UNL d   1      25.585  -8.199  -6.761  0.00  0.00     0.168 HD
BRANCH   7   9
ATOM      9  C   UNL d   1      24.241  -7.246  -5.423  0.00  0.00     0.179 C 
ATOM     10  S   UNL d   1      23.028  -6.535  -6.365  0.00  0.00    -0.040 SA
BRANCH   9  11
ATOM     11  N   UNL d   1      24.404  -6.800  -4.088  0.00  0.00    -0.299 N 
ATOM     12  C   UNL d   1      25.682  -6.594  -3.512  0.00  0.00     0.257 C 
ATOM     13  O   UNL d   1      26.772  -6.753  -4.050  0.00  0.00    -0.267 OA
ATOM     14  H   UNL d   1      23.591  -6.616  -3.522  0.00  0.00     0.171 HD
BRANCH  12  15
ATOM     15  C   UNL d   1      25.877  -6.169  -2.124  0.00  0.00     0.034 A 
ATOM     16  C   UNL d   1      26.853  -5.162  -1.926  0.00  0.00     0.017 A 
ATOM     17  C   UNL d   1      27.401  -4.930  -0.671  0.00  0.00     0.003 A 
ATOM     18  C   UNL d   1      26.928  -5.657   0.413  0.00  0.00     0.036 A 
ATOM     19  C   UNL d   1      25.959  -6.656   0.213  0.00  0.00     0.103 A 
ATOM     20  C   UNL d   1      25.431  -6.932  -1.059  0.00  0.00     0.053 A 
BRANCH  19  21
ATOM     21  N   UNL d   1      25.531  -7.483   1.344  0.00  0.00    -0.116 N 
ATOM     22  O   UNL d   1      24.781  -8.446   1.102  0.00  0.00    -0.532 OA
ATOM     23  O   UNL d   1      25.946  -7.179   2.466  0.00  0.00    -0.532 OA
ENDBRANCH  19  21
ENDBRANCH  12  15
ENDBRANCH   9  11
ENDBRANCH   7   9
ENDBRANCH   4   7
BRANCH   1  24
ATOM     24  N   UNL d   1      26.427 -13.314  -3.366  0.00  0.00    -0.325 N 
ATOM     25  C   UNL d   1      25.554 -14.386  -3.531  0.00  0.00     0.251 C 
ATOM     26  O   UNL d   1      24.563 -14.333  -4.266  0.00  0.00    -0.270 OA
ATOM     27  H   UNL d   1      27.297 -13.452  -2.875  0.00  0.00     0.169 HD
BRANCH  25  28
ATOM     28  C   UNL d   1      25.873 -15.675  -2.732  0.00  0.00     0.217 C 
ATOM     29  C   UNL d   1      27.394 -15.764  -2.745  0.00  0.00     0.050 C 
BRANCH  28  30
ATOM     30  O   UNL d   1      25.339 -15.589  -1.391  0.00  0.00    -0.335 OA
BRANCH  30  31
ATOM     31  C   UNL d   1      24.517 -16.617  -0.974  0.00  0.00     0.091 C 
ATOM     32  C   UNL d   1      23.143 -16.331  -0.948  0.00  0.00     0.038 C 
ATOM     33  C   UNL d   1      22.212 -17.292  -0.519  0.00  0.00     0.003 C 
ATOM     34  C   UNL d   1      22.635 -18.571  -0.172  0.00  0.00     0.002 C 
ATOM     35  C   UNL d   1      23.990 -18.854  -0.148  0.00  0.00     0.026 C 
ATOM     36  C   UNL d   1      24.924 -17.851  -0.427  0.00  0.00     0.067 C 
ATOM     37 CL   UNL d   1      26.489 -18.209   0.231  0.00  0.00    -0.081 Cl
ENDBRANCH  30  31
ENDBRANCH  28  30
ENDBRANCH  25  28
ENDBRANCH   1  24
TORSDOF 9
ENDMDL
MODEL 2
REMARK VINA RESULT:    -9.592      7.063     10.725
REMARK INTER + INTRA:         -14.555
REMARK INTER:                 -12.276
REMARK INTRA:                  -2.279
REMARK CONF_INDEPENDENT:        2.685
REMARK UNBOUND:                -2.279
REMARK  9 active torsions:
REMARK  status: ('A' for Active; 'I' for Inactive)
REMARK    1  A    between atoms: C_2  and  O_3 
REMARK    2  A    between atoms: C_2  and  C_11 
REMARK    3  A    between atoms: O_3  and  C_4 
REMARK       I    between atoms: C_11  and  N_13 
REMARK    4  A    between atoms: N_13  and  C_14 
REMARK    5  A    between atoms: C_17  and  N_18 
REMARK    6  A    between atoms: N_18  and  C_19 
REMARK    7  A    between atoms: C_19  and  N_21 
REMARK       I    between atoms: N_21  and  C_22 
REMARK    8  A    between atoms: C_22  and  C_24 
REMARK    9  A    between atoms: C_28  and  N_29 
ROOT
ATOM      1  C   UNL d   1      27.874 -15.348  -3.827  0.00  0.00     0.034 A 
ATOM      2  C   UNL d   1      26.555 -14.898  -3.956  0.00  0.00     0.032 A 
ATOM      3  C   UNL d   1      25.534 -15.290  -3.023  0.00  0.00     0.032 A 
ATOM      4  C   UNL d   1      25.826 -16.154  -1.953  0.00  0.00     0.034 A 
ATOM      5  C   UNL d   1      27.167 -16.502  -1.861  0.00  0.00     0.032 A 
ATOM      6  C   UNL d   1      28.154 -16.176  -2.772  0.00  0.00     0.032 A 
ENDROOT
BRANCH   4   7
ATOM      7  N   UNL d   1      24.823 -16.665  -1.014  0.00  0.00    -0.333 N 
ATOM      8  H   UNL d   1      23.913 -16.227  -1.105  0.00  0.00     0.168 HD
BRANCH   7   9
ATOM      9  C   UNL d   1      24.982 -17.767  -0.111  0.00  0.00     0.179 C 
ATOM     10  S   UNL d   1      26.370 -18.125   0.789  0.00  0.00    -0.040 SA
BRANCH   9  11
ATOM     11  N   UNL d   1      23.859 -18.622   0.016  0.00  0.00    -0.299 N 
ATOM     12  C   UNL d   1      22.542 -18.185  -0.271  0.00  0.00     0.257 C 
ATOM     13  O   UNL d   1      22.197 -17.073  -0.654  0.00  0.00    -0.267 OA
ATOM     14  H   UNL d   1      23.991 -19.575   0.315  0.00  0.00     0.171 HD
BRANCH  12  15
ATOM     15  C   UNL d   1      21.362 -19.038  -0.112  0.00  0.00     0.034 A 
ATOM     16  C   UNL d   1      20.584 -19.226  -1.281  0.00  0.00     0.017 A 
ATOM     17  C   UNL d   1      19.275 -19.684  -1.207  0.00  0.00     0.003 A 
ATOM     18  C   UNL d   1      18.753 -20.026   0.033  0.00  0.00     0.036 A 
ATOM     19  C   UNL d   1      19.528 -19.838   1.192  0.00  0.00     0.103 A 
ATOM     20  C   UNL d   1      20.836 -19.332   1.134  0.00  0.00     0.053 A 
BRANCH  19  21
ATOM     21  N   UNL d   1      18.940 -20.112   2.506  0.00  0.00    -0.116 N 
ATOM     22  O   UNL d   1      19.714 -20.422   3.429  0.00  0.00    -0.532 OA
ATOM     23  O   UNL d   1      17.715 -20.012   2.618  0.00  0.00    -0.532 OA
ENDBRANCH  19  21
ENDBRANCH  12  15
ENDBRANCH   9  11
ENDBRANCH   7   9
ENDBRANCH   4   7
BRANCH   1  24
ATOM     24  N   UNL d   1      28.936 -14.919  -4.655  0.00  0.00    -0.325 N 
ATOM     25  C   UNL d   1      28.839 -14.930  -6.043  0.00  0.00     0.251 C 
ATOM     26  O   UNL d   1      27.788 -15.189  -6.637  0.00  0.00    -0.270 OA
ATOM     27  H   UNL d   1      29.772 -14.559  -4.217  0.00  0.00     0.169 HD
BRANCH  25  28
ATOM     28  C   UNL d   1      30.131 -14.608  -6.836  0.00  0.00     0.217 C 
ATOM     29  C   UNL d   1      30.366 -13.123  -6.591  0.00  0.00     0.050 C 
BRANCH  28  30
ATOM     30  O   UNL d   1      31.231 -15.423  -6.371  0.00  0.00    -0.335 OA
BRANCH  30  31
ATOM     31  C   UNL d   1      31.086 -16.793  -6.472  0.00  0.00     0.091 C 
ATOM     32  C   UNL d   1      30.605 -17.444  -5.325  0.00  0.00     0.038 C 
ATOM     33  C   UNL d   1      30.438 -18.839  -5.303  0.00  0.00     0.003 C 
ATOM     34  C   UNL d   1      30.690 -19.594  -6.444  0.00  0.00     0.002 C 
ATOM     35  C   UNL d   1      31.209 -18.972  -7.567  0.00  0.00     0.026 C 
ATOM     36  C   UNL d   1      31.519 -17.608  -7.537  0.00  0.00     0.067 C 
ATOM     37 CL   UNL d   1      32.678 -17.172  -8.752  0.00  0.00    -0.081 Cl
ENDBRANCH  30  31
ENDBRANCH  28  30
ENDBRANCH  25  28
ENDBRANCH   1  24
TORSDOF 9
ENDMDL
MODEL 3
REMARK VINA RESULT:    -8.850      6.468      8.493
REMARK INTER + INTRA:         -13.994
REMARK INTER:                 -11.535
REMARK INTRA:                  -2.460
REMARK CONF_INDEPENDENT:        2.685
REMARK UNBOUND:                -2.460
REMARK  9 active torsions:
REMARK  status: ('A' for Active; 'I' for Inactive)
REMARK    1  A    between atoms: C_2  and  O_3 
REMARK    2  A    between atoms: C_2  and  C_11 
REMARK    3  A    between atoms: O_3  and  C_4 
REMARK       I    between atoms: C_11  and  N_13 
REMARK    4  A    between atoms: N_13  and  C_14 
REMARK    5  A    between atoms: C_17  and  N_18 
REMARK    6  A    between atoms: N_18  and  C_19 
REMARK    7  A    between atoms: C_19  and  N_21 
REMARK       I    between atoms: N_21  and  C_22 
REMARK    8  A    between atoms: C_22  and  C_24 
REMARK    9  A    between atoms: C_28  and  N_29 
ROOT
ATOM      1  C   UNL d   1      28.559 -14.426   3.270  0.00  0.00     0.034 A 
ATOM      2  C   UNL d   1      29.831 -14.453   3.854  0.00  0.00     0.032 A 
ATOM      3  C   UNL d   1      30.004 -14.359   5.278  0.00  0.00     0.032 A 
ATOM      4  C   UNL d   1      28.896 -14.221   6.134  0.00  0.00     0.034 A 
ATOM      5  C   UNL d   1      27.672 -14.266   5.480  0.00  0.00     0.032 A 
ATOM      6  C   UNL d   1      27.485 -14.309   4.111  0.00  0.00     0.032 A 
ENDROOT
BRANCH   4   7
ATOM      7  N   UNL d   1      28.998 -14.033   7.584  0.00  0.00    -0.333 N 
ATOM      8  H   UNL d   1      29.399 -14.825   8.074  0.00  0.00     0.168 HD
BRANCH   7   9
ATOM      9  C   UNL d   1      28.709 -12.833   8.312  0.00  0.00     0.179 C 
ATOM     10  S   UNL d   1      28.768 -12.651   9.994  0.00  0.00    -0.040 SA
BRANCH   9  11
ATOM     11  N   UNL d   1      28.336 -11.715   7.527  0.00  0.00    -0.299 N 
ATOM     12  C   UNL d   1      29.228 -11.105   6.610  0.00  0.00     0.257 C 
ATOM     13  O   UNL d   1      30.382 -11.437   6.368  0.00  0.00    -0.267 OA
ATOM     14  H   UNL d   1      27.406 -11.335   7.612  0.00  0.00     0.171 HD
BRANCH  12  15
ATOM     15  C   UNL d   1      28.878  -9.926   5.815  0.00  0.00     0.034 A 
ATOM     16  C   UNL d   1      29.242  -8.679   6.381  0.00  0.00     0.017 A 
ATOM     17  C   UNL d   1      28.664  -7.495   5.943  0.00  0.00     0.003 A 
ATOM     18  C   UNL d   1      27.765  -7.537   4.886  0.00  0.00     0.036 A 
ATOM     19  C   UNL d   1      27.405  -8.777   4.326  0.00  0.00     0.103 A 
ATOM     20  C   UNL d   1      27.948  -9.986   4.792  0.00  0.00     0.053 A 
BRANCH  19  21
ATOM     21  N   UNL d   1      26.387  -8.825   3.274  0.00  0.00    -0.116 N 
ATOM     22  O   UNL d   1      25.995  -9.946   2.904  0.00  0.00    -0.532 OA
ATOM     23  O   UNL d   1      25.975  -7.752   2.826  0.00  0.00    -0.532 OA
ENDBRANCH  19  21
ENDBRANCH  12  15
ENDBRANCH   9  11
ENDBRANCH   7   9
ENDBRANCH   4   7
BRANCH   1  24
ATOM     24  N   UNL d   1      28.324 -14.613   1.888  0.00  0.00    -0.325 N 
ATOM     25  C   UNL d   1      27.704 -13.641   1.109  0.00  0.00     0.251 C 
ATOM     26  O   UNL d   1      27.439 -12.513   1.535  0.00  0.00    -0.270 OA
ATOM     27  H   UNL d   1      28.653 -15.464   1.456  0.00  0.00     0.169 HD
BRANCH  25  28
ATOM     28  C   UNL d   1      27.343 -14.038  -0.345  0.00  0.00     0.217 C 
ATOM     29  C   UNL d   1      28.323 -13.253  -1.208  0.00  0.00     0.050 C 
BRANCH  28  30
ATOM     30  O   UNL d   1      27.469 -15.467  -0.529  0.00  0.00    -0.335 OA
BRANCH  30  31
ATOM     31  C   UNL d   1      26.301 -16.203  -0.565  0.00  0.00     0.091 C 
ATOM     32  C   UNL d   1      26.292 -17.375   0.207  0.00  0.00     0.038 C 
ATOM     33  C   UNL d   1      25.166 -18.216   0.231  0.00  0.00     0.003 C 
ATOM     34  C   UNL d   1      24.014 -17.865  -0.465  0.00  0.00     0.002 C 
ATOM     35  C   UNL d   1      24.025 -16.737  -1.268  0.00  0.00     0.026 C 
ATOM     36  C   UNL d   1      25.195 -15.985  -1.411  0.00  0.00     0.067 C 
ATOM     37 CL   UNL d   1      25.191 -15.034  -2.863  0.00  0.00    -0.081 Cl
ENDBRANCH  30  31
ENDBRANCH  28  30
ENDBRANCH  25  28
ENDBRANCH   1  24
TORSDOF 9
ENDMDL
MODEL 4
REMARK VINA RESULT:    -8.474      5.478      7.378
REMARK INTER + INTRA:         -13.748
REMARK INTER:                 -11.159
REMARK INTRA:                  -2.589
REMARK CONF_INDEPENDENT:        2.685
REMARK UNBOUND:                -2.589
REMARK  9 active torsions:
REMARK  status: ('A' for Active; 'I' for Inactive)
REMARK    1  A    between atoms: C_2  and  O_3 
REMARK    2  A    between atoms: C_2  and  C_11 
REMARK    3  A    between atoms: O_3  and  C_4 
REMARK       I    between atoms: C_11  and  N_13 
REMARK    4  A    between atoms: N_13  and  C_14 
REMARK    5  A    between atoms: C_17  and  N_18 
REMARK    6  A    between atoms: N_18  and  C_19 
REMARK    7  A    between atoms: C_19  and  N_21 
REMARK       I    between atoms: N_21  and  C_22 
REMARK    8  A    between atoms: C_22  and  C_24 
REMARK    9  A    between atoms: C_28  and  N_29 
ROOT
ATOM      1  C   UNL d   1      28.004 -14.289   2.230  0.00  0.00     0.034 A 
ATOM      2  C   UNL d   1      29.300 -14.450   2.735  0.00  0.00     0.032 A 
ATOM      3  C   UNL d   1      29.598 -14.218   4.121  0.00  0.00     0.032 A 
ATOM      4  C   UNL d   1      28.597 -13.805   5.018  0.00  0.00     0.034 A 
ATOM      5  C   UNL d   1      27.331 -13.731   4.451  0.00  0.00     0.032 A 
ATOM      6  C   UNL d   1      27.030 -13.904   3.114  0.00  0.00     0.032 A 
ENDROOT
BRANCH   4   7
ATOM      7  N   UNL d   1      28.841 -13.467   6.423  0.00  0.00    -0.333 N 
ATOM      8  H   UNL d   1      29.386 -14.161   6.924  0.00  0.00     0.168 HD
BRANCH   7   9
ATOM      9  C   UNL d   1      28.500 -12.239   7.078  0.00  0.00     0.179 C 
ATOM     10  S   UNL d   1      28.577 -11.944   8.743  0.00  0.00    -0.040 SA
BRANCH   9  11
ATOM     11  N   UNL d   1      28.055 -11.195   6.229  0.00  0.00    -0.299 N 
ATOM     12  C   UNL d   1      28.835 -10.718   5.147  0.00  0.00     0.257 C 
ATOM     13  O   UNL d   1      29.940 -11.115   4.798  0.00  0.00    -0.267 OA
ATOM     14  H   UNL d   1      27.153 -10.774   6.389  0.00  0.00     0.171 HD
BRANCH  12  15
ATOM     15  C   UNL d   1      28.413  -9.616   4.279  0.00  0.00     0.034 A 
ATOM     16  C   UNL d   1      28.977  -8.353   4.580  0.00  0.00     0.017 A 
ATOM     17  C   UNL d   1      28.408  -7.179   4.104  0.00  0.00     0.003 A 
ATOM     18  C   UNL d   1      27.306  -7.260   3.263  0.00  0.00     0.036 A 
ATOM     19  C   UNL d   1      26.747  -8.516   2.966  0.00  0.00     0.103 A 
ATOM     20  C   UNL d   1      27.286  -9.707   3.480  0.00  0.00     0.053 A 
BRANCH  19  21
ATOM     21  N   UNL d   1      25.530  -8.591   2.155  0.00  0.00    -0.116 N 
ATOM     22  O   UNL d   1      25.313  -7.664   1.355  0.00  0.00    -0.532 OA
ATOM     23  O   UNL d   1      24.798  -9.574   2.309  0.00  0.00    -0.532 OA
ENDBRANCH  19  21
ENDBRANCH  12  15
ENDBRANCH   9  11
ENDBRANCH   7   9
ENDBRANCH   4   7
BRANCH   1  24
ATOM     24  N   UNL d   1      27.633 -14.598   0.901  0.00  0.00    -0.325 N 
ATOM     25  C   UNL d   1      26.910 -13.707   0.114  0.00  0.00     0.251 C 
ATOM     26  O   UNL d   1      26.658 -12.552   0.470  0.00  0.00    -0.270 OA
ATOM     27  H   UNL d   1      27.938 -15.475   0.509  0.00  0.00     0.169 HD
BRANCH  25  28
ATOM     28  C   UNL d   1      26.411 -14.233  -1.257  0.00  0.00     0.217 C 
ATOM     29  C   UNL d   1      27.219 -13.446  -2.282  0.00  0.00     0.050 C 
BRANCH  28  30
ATOM     30  O   UNL d   1      26.627 -15.659  -1.364  0.00  0.00    -0.335 OA
BRANCH  30  31
ATOM     31  C   UNL d   1      25.575 -16.482  -1.015  0.00  0.00     0.091 C 
ATOM     32  C   UNL d   1      24.290 -15.961  -1.233  0.00  0.00     0.038 C 
ATOM     33  C   UNL d   1      23.143 -16.698  -0.895  0.00  0.00     0.003 C 
ATOM     34  C   UNL d   1      23.263 -17.991  -0.395  0.00  0.00     0.002 C 
ATOM     35  C   UNL d   1      24.523 -18.501  -0.131  0.00  0.00     0.026 C 
ATOM     36  C   UNL d   1      25.658 -17.708  -0.324  0.00  0.00     0.067 C 
ATOM     37 CL   UNL d   1      27.014 -18.266   0.605  0.00  0.00    -0.081 Cl
ENDBRANCH  30  31
ENDBRANCH  28  30
ENDBRANCH  25  28
ENDBRANCH   1  24
TORSDOF 9
ENDMDL
MODEL 5
REMARK VINA RESULT:    -8.115      1.945      2.587
REMARK INTER + INTRA:         -13.135
REMARK INTER:                 -10.800
REMARK INTRA:                  -2.335
REMARK CONF_INDEPENDENT:        2.685
REMARK UNBOUND:                -2.335
REMARK  9 active torsions:
REMARK  status: ('A' for Active; 'I' for Inactive)
REMARK    1  A    between atoms: C_2  and  O_3 
REMARK    2  A    between atoms: C_2  and  C_11 
REMARK    3  A    between atoms: O_3  and  C_4 
REMARK       I    between atoms: C_11  and  N_13 
REMARK    4  A    between atoms: N_13  and  C_14 
REMARK    5  A    between atoms: C_17  and  N_18 
REMARK    6  A    between atoms: N_18  and  C_19 
REMARK    7  A    between atoms: C_19  and  N_21 
REMARK       I    between atoms: N_21  and  C_22 
REMARK    8  A    between atoms: C_22  and  C_24 
REMARK    9  A    between atoms: C_28  and  N_29 
ROOT
ATOM      1  C   UNL d   1      27.038 -12.932  -4.115  0.00  0.00     0.034 A 
ATOM      2  C   UNL d   1      27.299 -12.535  -5.433  0.00  0.00     0.032 A 
ATOM      3  C   UNL d   1      26.633 -11.406  -6.021  0.00  0.00     0.032 A 
ATOM      4  C   UNL d   1      25.682 -10.668  -5.295  0.00  0.00     0.034 A 
ATOM      5  C   UNL d   1      25.530 -11.087  -3.980  0.00  0.00     0.032 A 
ATOM      6  C   UNL d   1      26.124 -12.197  -3.409  0.00  0.00     0.032 A 
ENDROOT
BRANCH   4   7
ATOM      7  N   UNL d   1      24.902  -9.560  -5.854  0.00  0.00    -0.333 N 
ATOM      8  H   UNL d   1      24.418  -9.791  -6.715  0.00  0.00     0.168 HD
BRANCH   7   9
ATOM      9  C   UNL d   1      24.676  -8.282  -5.246  0.00  0.00     0.179 C 
ATOM     10  S   UNL d   1      23.981  -6.932  -5.994  0.00  0.00    -0.040 SA
BRANCH   9  11
ATOM     11  N   UNL d   1      25.089  -8.164  -3.896  0.00  0.00    -0.299 N 
ATOM     12  C   UNL d   1      26.449  -7.998  -3.534  0.00  0.00     0.257 C 
ATOM     13  O   UNL d   1      27.412  -7.928  -4.287  0.00  0.00    -0.267 OA
ATOM     14  H   UNL d   1      24.400  -8.194  -3.160  0.00  0.00     0.171 HD
BRANCH  12  15
ATOM     15  C   UNL d   1      26.903  -7.911  -2.144  0.00  0.00     0.034 A 
ATOM     16  C   UNL d   1      28.138  -8.548  -1.866  0.00  0.00     0.017 A 
ATOM     17  C   UNL d   1      28.506  -8.867  -0.565  0.00  0.00     0.003 A 
ATOM     18  C   UNL d   1      27.672  -8.489   0.479  0.00  0.00     0.036 A 
ATOM     19  C   UNL d   1      26.446  -7.858   0.200  0.00  0.00     0.103 A 
ATOM     20  C   UNL d   1      26.043  -7.572  -1.115  0.00  0.00     0.053 A 
BRANCH  19  21
ATOM     21  N   UNL d   1      25.529  -7.545   1.298  0.00  0.00    -0.116 N 
ATOM     22  O   UNL d   1      25.071  -6.390   1.355  0.00  0.00    -0.532 OA
ATOM     23  O   UNL d   1      25.260  -8.449   2.094  0.00  0.00    -0.532 OA
ENDBRANCH  19  21
ENDBRANCH  12  15
ENDBRANCH   9  11
ENDBRANCH   7   9
ENDBRANCH   4   7
BRANCH   1  24
ATOM     24  N   UNL d   1      27.733 -13.971  -3.454  0.00  0.00    -0.325 N 
ATOM     25  C   UNL d   1      27.914 -15.222  -4.036  0.00  0.00     0.251 C 
ATOM     26  O   UNL d   1      27.600 -15.466  -5.205  0.00  0.00    -0.270 OA
ATOM     27  H   UNL d   1      28.137 -13.779  -2.550  0.00  0.00     0.169 HD
BRANCH  25  28
ATOM     28  C   UNL d   1      28.531 -16.326  -3.140  0.00  0.00     0.217 C 
ATOM     29  C   UNL d   1      29.992 -16.389  -3.567  0.00  0.00     0.050 C 
BRANCH  28  30
ATOM     30  O   UNL d   1      28.381 -15.990  -1.742  0.00  0.00    -0.335 OA
BRANCH  30  31
ATOM     31  C   UNL d   1      27.410 -16.668  -1.032  0.00  0.00     0.091 C 
ATOM     32  C   UNL d   1      27.856 -17.762  -0.274  0.00  0.00     0.038 C 
ATOM     33  C   UNL d   1      26.955 -18.541   0.471  0.00  0.00     0.003 C 
ATOM     34  C   UNL d   1      25.607 -18.201   0.519  0.00  0.00     0.002 C 
ATOM     35  C   UNL d   1      25.145 -17.154  -0.260  0.00  0.00     0.026 C 
ATOM     36  C   UNL d   1      26.016 -16.476  -1.119  0.00  0.00     0.067 C 
ATOM     37 CL   UNL d   1      25.174 -15.665  -2.401  0.00  0.00    -0.081 Cl
ENDBRANCH  30  31
ENDBRANCH  28  30
ENDBRANCH  25  28
ENDBRANCH   1  24
TORSDOF 9
ENDMDL
MODEL 6
REMARK VINA RESULT:    -7.986      4.729      6.844
REMARK INTER + INTRA:         -13.035
REMARK INTER:                 -10.671
REMARK INTRA:                  -2.364
REMARK CONF_INDEPENDENT:        2.685
REMARK UNBOUND:                -2.364
REMARK  9 active torsions:
REMARK  status: ('A' for Active; 'I' for Inactive)
REMARK    1  A    between atoms: C_2  and  O_3 
REMARK    2  A    between atoms: C_2  and  C_11 
REMARK    3  A    between atoms: O_3  and  C_4 
REMARK       I    between atoms: C_11  and  N_13 
REMARK    4  A    between atoms: N_13  and  C_14 
REMARK    5  A    between atoms: C_17  and  N_18 
REMARK    6  A    between atoms: N_18  and  C_19 
REMARK    7  A    between atoms: C_19  and  N_21 
REMARK       I    between atoms: N_21  and  C_22 
REMARK    8  A    between atoms: C_22  and  C_24 
REMARK    9  A    between atoms: C_28  and  N_29 
ROOT
ATOM      1  C   UNL d   1      28.622 -14.696  -1.370  0.00  0.00     0.034 A 
ATOM      2  C   UNL d   1      29.757 -14.515  -0.571  0.00  0.00     0.032 A 
ATOM      3  C   UNL d   1      29.684 -14.590   0.863  0.00  0.00     0.032 A 
ATOM      4  C   UNL d   1      28.461 -14.836   1.513  0.00  0.00     0.034 A 
ATOM      5  C   UNL d   1      27.401 -15.066   0.646  0.00  0.00     0.032 A 
ATOM      6  C   UNL d   1      27.438 -14.952  -0.730  0.00  0.00     0.032 A 
ENDROOT
BRANCH   4   7
ATOM      7  N   UNL d   1      28.293 -14.842   2.968  0.00  0.00    -0.333 N 
ATOM      8  H   UNL d   1      28.500 -15.736   3.403  0.00  0.00     0.168 HD
BRANCH   7   9
ATOM      9  C   UNL d   1      27.998 -13.712   3.799  0.00  0.00     0.179 C 
ATOM     10  S   UNL d   1      27.743 -13.746   5.472  0.00  0.00    -0.040 SA
BRANCH   9  11
ATOM     11  N   UNL d   1      27.912 -12.466   3.131  0.00  0.00    -0.299 N 
ATOM     12  C   UNL d   1      26.864 -12.166   2.226  0.00  0.00     0.257 C 
ATOM     13  O   UNL d   1      25.928 -12.891   1.910  0.00  0.00    -0.267 OA
ATOM     14  H   UNL d   1      28.612 -11.761   3.300  0.00  0.00     0.171 HD
BRANCH  12  15
ATOM     15  C   UNL d   1      26.773 -10.900   1.495  0.00  0.00     0.034 A 
ATOM     16  C   UNL d   1      27.614 -10.791   0.360  0.00  0.00     0.017 A 
ATOM     17  C   UNL d   1      27.910  -9.554  -0.198  0.00  0.00     0.003 A 
ATOM     18  C   UNL d   1      27.312  -8.418   0.332  0.00  0.00     0.036 A 
ATOM     19  C   UNL d   1      26.479  -8.529   1.459  0.00  0.00     0.103 A 
ATOM     20  C   UNL d   1      26.209  -9.770   2.061  0.00  0.00     0.053 A 
BRANCH  19  21
ATOM     21  N   UNL d   1      25.925  -7.320   2.071  0.00  0.00    -0.116 N 
ATOM     22  O   UNL d   1      26.282  -7.046   3.230  0.00  0.00    -0.532 OA
ATOM     23  O   UNL d   1      25.145  -6.641   1.396  0.00  0.00    -0.532 OA
ENDBRANCH  19  21
ENDBRANCH  12  15
ENDBRANCH   9  11
ENDBRANCH   7   9
ENDBRANCH   4   7
BRANCH   1  24
ATOM     24  N   UNL d   1      28.652 -14.730  -2.783  0.00  0.00    -0.325 N 
ATOM     25  C   UNL d   1      29.042 -15.867  -3.484  0.00  0.00     0.251 C 
ATOM     26  O   UNL d   1      29.260 -16.950  -2.932  0.00  0.00    -0.270 OA
ATOM     27  H   UNL d   1      28.345 -13.913  -3.290  0.00  0.00     0.169 HD
BRANCH  25  28
ATOM     28  C   UNL d   1      29.206 -15.719  -5.019  0.00  0.00     0.217 C 
ATOM     29  C   UNL d   1      29.925 -16.992  -5.448  0.00  0.00     0.050 C 
BRANCH  28  30
ATOM     30  O   UNL d   1      27.916 -15.574  -5.657  0.00  0.00    -0.335 OA
BRANCH  30  31
ATOM     31  C   UNL d   1      27.051 -14.640  -5.122  0.00  0.00     0.091 C 
ATOM     32  C   UNL d   1      25.962 -15.155  -4.401  0.00  0.00     0.038 C 
ATOM     33  C   UNL d   1      25.004 -14.301  -3.831  0.00  0.00     0.003 C 
ATOM     34  C   UNL d   1      25.154 -12.921  -3.918  0.00  0.00     0.002 C 
ATOM     35  C   UNL d   1      26.197 -12.399  -4.664  0.00  0.00     0.026 C 
ATOM     36  C   UNL d   1      27.062 -13.251  -5.359  0.00  0.00     0.067 C 
ATOM     37 CL   UNL d   1      27.867 -12.444  -6.667  0.00  0.00    -0.081 Cl
ENDBRANCH  30  31
ENDBRANCH  28  30
ENDBRANCH  25  28
ENDBRANCH   1  24
TORSDOF 9
ENDMDL
MODEL 7
REMARK VINA RESULT:    -7.965      8.331     10.288
REMARK INTER + INTRA:         -13.036
REMARK INTER:                 -10.650
REMARK INTRA:                  -2.386
REMARK CONF_INDEPENDENT:        2.685
REMARK UNBOUND:                -2.386
REMARK  9 active torsions:
REMARK  status: ('A' for Active; 'I' for Inactive)
REMARK    1  A    between atoms: C_2  and  O_3 
REMARK    2  A    between atoms: C_2  and  C_11 
REMARK    3  A    between atoms: O_3  and  C_4 
REMARK       I    between atoms: C_11  and  N_13 
REMARK    4  A    between atoms: N_13  and  C_14 
REMARK    5  A    between atoms: C_17  and  N_18 
REMARK    6  A    between atoms: N_18  and  C_19 
REMARK    7  A    between atoms: C_19  and  N_21 
REMARK       I    between atoms: N_21  and  C_22 
REMARK    8  A    between atoms: C_22  and  C_24 
REMARK    9  A    between atoms: C_28  and  N_29 
ROOT
ATOM      1  C   UNL d   1      28.289 -14.383   4.072  0.00  0.00     0.034 A 
ATOM      2  C   UNL d   1      27.523 -13.634   4.974  0.00  0.00     0.032 A 
ATOM      3  C   UNL d   1      28.033 -13.267   6.266  0.00  0.00     0.032 A 
ATOM      4  C   UNL d   1      29.320 -13.662   6.675  0.00  0.00     0.034 A 
ATOM      5  C   UNL d   1      30.034 -14.345   5.700  0.00  0.00     0.032 A 
ATOM      6  C   UNL d   1      29.548 -14.749   4.471  0.00  0.00     0.032 A 
ENDROOT
BRANCH   4   7
ATOM      7  N   UNL d   1      29.874 -13.400   8.006  0.00  0.00    -0.333 N 
ATOM      8  H   UNL d   1      30.886 -13.326   8.023  0.00  0.00     0.168 HD
BRANCH   7   9
ATOM      9  C   UNL d   1      29.133 -13.124   9.201  0.00  0.00     0.179 C 
ATOM     10  S   UNL d   1      28.166 -14.225  10.049  0.00  0.00    -0.040 SA
BRANCH   9  11
ATOM     11  N   UNL d   1      29.233 -11.799   9.693  0.00  0.00    -0.299 N 
ATOM     12  C   UNL d   1      30.281 -10.928   9.306  0.00  0.00     0.257 C 
ATOM     13  O   UNL d   1      31.198 -11.171   8.531  0.00  0.00    -0.267 OA
ATOM     14  H   UNL d   1      28.538 -11.453  10.336  0.00  0.00     0.171 HD
BRANCH  12  15
ATOM     15  C   UNL d   1      30.426  -9.567   9.828  0.00  0.00     0.034 A 
ATOM     16  C   UNL d   1      30.973  -9.470  11.131  0.00  0.00     0.017 A 
ATOM     17  C   UNL d   1      30.829  -8.313  11.887  0.00  0.00     0.003 A 
ATOM     18  C   UNL d   1      30.194  -7.216  11.320  0.00  0.00     0.036 A 
ATOM     19  C   UNL d   1      29.651  -7.316  10.026  0.00  0.00     0.103 A 
ATOM     20  C   UNL d   1      29.750  -8.496   9.270  0.00  0.00     0.053 A 
BRANCH  19  21
ATOM     21  N   UNL d   1      28.902  -6.188   9.469  0.00  0.00    -0.116 N 
ATOM     22  O   UNL d   1      28.049  -5.647  10.195  0.00  0.00    -0.532 OA
ATOM     23  O   UNL d   1      29.167  -5.837   8.315  0.00  0.00    -0.532 OA
ENDBRANCH  19  21
ENDBRANCH  12  15
ENDBRANCH   9  11
ENDBRANCH   7   9
ENDBRANCH   4   7
BRANCH   1  24
ATOM     24  N   UNL d   1      27.878 -14.688   2.754  0.00  0.00    -0.325 N 
ATOM     25  C   UNL d   1      27.311 -13.730   1.920  0.00  0.00     0.251 C 
ATOM     26  O   UNL d   1      27.249 -12.534   2.221  0.00  0.00    -0.270 OA
ATOM     27  H   UNL d   1      28.039 -15.621   2.405  0.00  0.00     0.169 HD
BRANCH  25  28
ATOM     28  C   UNL d   1      26.739 -14.231   0.569  0.00  0.00     0.217 C 
ATOM     29  C   UNL d   1      27.414 -13.353  -0.478  0.00  0.00     0.050 C 
BRANCH  28  30
ATOM     30  O   UNL d   1      27.031 -15.635   0.381  0.00  0.00    -0.335 OA
BRANCH  30  31
ATOM     31  C   UNL d   1      26.003 -16.437  -0.070  0.00  0.00     0.091 C 
ATOM     32  C   UNL d   1      25.848 -17.666   0.592  0.00  0.00     0.038 C 
ATOM     33  C   UNL d   1      24.849 -18.575   0.204  0.00  0.00     0.003 C 
ATOM     34  C   UNL d   1      23.952 -18.242  -0.806  0.00  0.00     0.002 C 
ATOM     35  C   UNL d   1      24.121 -17.055  -1.498  0.00  0.00     0.026 C 
ATOM     36  C   UNL d   1      25.208 -16.222  -1.214  0.00  0.00     0.067 C 
ATOM     37 CL   UNL d   1      25.583 -15.161  -2.534  0.00  0.00    -0.081 Cl
ENDBRANCH  30  31
ENDBRANCH  28  30
ENDBRANCH  25  28
ENDBRANCH   1  24
TORSDOF 9
ENDMDL
MODEL 8
REMARK VINA RESULT:    -7.886      8.935     11.966
REMARK INTER + INTRA:         -13.039
REMARK INTER:                 -10.571
REMARK INTRA:                  -2.468
REMARK CONF_INDEPENDENT:        2.685
REMARK UNBOUND:                -2.468
REMARK  9 active torsions:
REMARK  status: ('A' for Active; 'I' for Inactive)
REMARK    1  A    between atoms: C_2  and  O_3 
REMARK    2  A    between atoms: C_2  and  C_11 
REMARK    3  A    between atoms: O_3  and  C_4 
REMARK       I    between atoms: C_11  and  N_13 
REMARK    4  A    between atoms: N_13  and  C_14 
REMARK    5  A    between atoms: C_17  and  N_18 
REMARK    6  A    between atoms: N_18  and  C_19 
REMARK    7  A    between atoms: C_19  and  N_21 
REMARK       I    between atoms: N_21  and  C_22 
REMARK    8  A    between atoms: C_22  and  C_24 
REMARK    9  A    between atoms: C_28  and  N_29 
ROOT
ATOM      1  C   UNL d   1      29.343 -14.377   6.812  0.00  0.00     0.034 A 
ATOM      2  C   UNL d   1      30.317 -13.707   6.062  0.00  0.00     0.032 A 
ATOM      3  C   UNL d   1      30.253 -13.652   4.628  0.00  0.00     0.032 A 
ATOM      4  C   UNL d   1      29.211 -14.284   3.925  0.00  0.00     0.034 A 
ATOM      5  C   UNL d   1      28.255 -14.869   4.745  0.00  0.00     0.032 A 
ATOM      6  C   UNL d   1      28.322 -14.975   6.122  0.00  0.00     0.032 A 
ENDROOT
BRANCH   4   7
ATOM      7  N   UNL d   1      29.125 -14.343   2.464  0.00  0.00    -0.333 N 
ATOM      8  H   UNL d   1      29.369 -15.247   2.074  0.00  0.00     0.168 HD
BRANCH   7   9
ATOM      9  C   UNL d   1      28.625 -13.319   1.595  0.00  0.00     0.179 C 
ATOM     10  S   UNL d   1      29.126 -11.703   1.570  0.00  0.00    -0.040 SA
BRANCH   9  11
ATOM     11  N   UNL d   1      27.613 -13.724   0.689  0.00  0.00    -0.299 N 
ATOM     12  C   UNL d   1      27.310 -15.088   0.458  0.00  0.00     0.257 C 
ATOM     13  O   UNL d   1      27.838 -16.063   0.979  0.00  0.00    -0.267 OA
ATOM     14  H   UNL d   1      27.083 -13.026   0.191  0.00  0.00     0.171 HD
BRANCH  12  15
ATOM     15  C   UNL d   1      26.295 -15.532  -0.501  0.00  0.00     0.034 A 
ATOM     16  C   UNL d   1      25.584 -16.702  -0.137  0.00  0.00     0.017 A 
ATOM     17  C   UNL d   1      24.878 -17.437  -1.082  0.00  0.00     0.003 A 
ATOM     18  C   UNL d   1      24.819 -16.969  -2.388  0.00  0.00     0.036 A 
ATOM     19  C   UNL d   1      25.525 -15.807  -2.746  0.00  0.00     0.103 A 
ATOM     20  C   UNL d   1      26.281 -15.082  -1.809  0.00  0.00     0.053 A 
BRANCH  19  21
ATOM     21  N   UNL d   1      25.535 -15.369  -4.143  0.00  0.00    -0.116 N 
ATOM     22  O   UNL d   1      24.773 -14.440  -4.461  0.00  0.00    -0.532 OA
ATOM     23  O   UNL d   1      26.306 -15.944  -4.918  0.00  0.00    -0.532 OA
ENDBRANCH  19  21
ENDBRANCH  12  15
ENDBRANCH   9  11
ENDBRANCH   7   9
ENDBRANCH   4   7
BRANCH   1  24
ATOM     24  N   UNL d   1      29.302 -14.381   8.225  0.00  0.00    -0.325 N 
ATOM     25  C   UNL d   1      28.810 -13.300   8.950  0.00  0.00     0.251 C 
ATOM     26  O   UNL d   1      28.263 -12.330   8.416  0.00  0.00    -0.270 OA
ATOM     27  H   UNL d   1      29.605 -15.211   8.712  0.00  0.00     0.169 HD
BRANCH  25  28
ATOM     28  C   UNL d   1      28.986 -13.353  10.490  0.00  0.00     0.217 C 
ATOM     29  C   UNL d   1      27.579 -13.159  11.040  0.00  0.00     0.050 C 
BRANCH  28  30
ATOM     30  O   UNL d   1      29.565 -14.616  10.892  0.00  0.00    -0.335 OA
BRANCH  30  31
ATOM     31  C   UNL d   1      30.939 -14.729  10.823  0.00  0.00     0.091 C 
ATOM     32  C   UNL d   1      31.573 -13.926   9.862  0.00  0.00     0.038 C 
ATOM     33  C   UNL d   1      32.966 -13.973   9.685  0.00  0.00     0.003 C 
ATOM     34  C   UNL d   1      33.750 -14.774  10.508  0.00  0.00     0.002 C 
ATOM     35  C   UNL d   1      33.136 -15.606  11.428  0.00  0.00     0.026 C 
ATOM     36  C   UNL d   1      31.741 -15.671  11.498  0.00  0.00     0.067 C 
ATOM     37 CL   UNL d   1      31.189 -17.146  12.228  0.00  0.00    -0.081 Cl
ENDBRANCH  30  31
ENDBRANCH  28  30
ENDBRANCH  25  28
ENDBRANCH   1  24
TORSDOF 9
ENDMDL
MODEL 9
REMARK VINA RESULT:    -7.642      5.169      7.061
REMARK INTER + INTRA:         -13.096
REMARK INTER:                 -10.327
REMARK INTRA:                  -2.769
REMARK CONF_INDEPENDENT:        2.685
REMARK UNBOUND:                -2.769
REMARK  9 active torsions:
REMARK  status: ('A' for Active; 'I' for Inactive)
REMARK    1  A    between atoms: C_2  and  O_3 
REMARK    2  A    between atoms: C_2  and  C_11 
REMARK    3  A    between atoms: O_3  and  C_4 
REMARK       I    between atoms: C_11  and  N_13 
REMARK    4  A    between atoms: N_13  and  C_14 
REMARK    5  A    between atoms: C_17  and  N_18 
REMARK    6  A    between atoms: N_18  and  C_19 
REMARK    7  A    between atoms: C_19  and  N_21 
REMARK       I    between atoms: N_21  and  C_22 
REMARK    8  A    between atoms: C_22  and  C_24 
REMARK    9  A    between atoms: C_28  and  N_29 
ROOT
ATOM      1  C   UNL d   1      28.363 -14.773   0.835  0.00  0.00     0.034 A 
ATOM      2  C   UNL d   1      29.758 -14.649   0.825  0.00  0.00     0.032 A 
ATOM      3  C   UNL d   1      30.497 -14.398   2.031  0.00  0.00     0.032 A 
ATOM      4  C   UNL d   1      29.839 -14.253   3.266  0.00  0.00     0.034 A 
ATOM      5  C   UNL d   1      28.466 -14.453   3.198  0.00  0.00     0.032 A 
ATOM      6  C   UNL d   1      27.731 -14.648   2.044  0.00  0.00     0.032 A 
ENDROOT
BRANCH   4   7
ATOM      7  N   UNL d   1      30.515 -13.913   4.521  0.00  0.00    -0.333 N 
ATOM      8  H   UNL d   1      31.235 -14.573   4.792  0.00  0.00     0.168 HD
BRANCH   7   9
ATOM      9  C   UNL d   1      30.337 -12.715   5.288  0.00  0.00     0.179 C 
ATOM     10  S   UNL d   1      30.890 -12.454   6.867  0.00  0.00    -0.040 SA
BRANCH   9  11
ATOM     11  N   UNL d   1      29.625 -11.674   4.644  0.00  0.00    -0.299 N 
ATOM     12  C   UNL d   1      28.209 -11.629   4.623  0.00  0.00     0.257 C 
ATOM     13  O   UNL d   1      27.435 -12.430   5.133  0.00  0.00    -0.267 OA
ATOM     14  H   UNL d   1      30.133 -10.933   4.186  0.00  0.00     0.171 HD
BRANCH  12  15
ATOM     15  C   UNL d   1      27.451 -10.584   3.932  0.00  0.00     0.034 A 
ATOM     16  C   UNL d   1      27.018 -10.909   2.624  0.00  0.00     0.017 A 
ATOM     17  C   UNL d   1      26.627  -9.921   1.729  0.00  0.00     0.003 A 
ATOM     18  C   UNL d   1      26.599  -8.601   2.158  0.00  0.00     0.036 A 
ATOM     19  C   UNL d   1      27.030  -8.280   3.459  0.00  0.00     0.103 A 
ATOM     20  C   UNL d   1      27.471  -9.266   4.356  0.00  0.00     0.053 A 
BRANCH  19  21
ATOM     21  N   UNL d   1      27.087  -6.878   3.875  0.00  0.00    -0.116 N 
ATOM     22  O   UNL d   1      26.309  -6.080   3.322  0.00  0.00    -0.532 OA
ATOM     23  O   UNL d   1      27.897  -6.574   4.756  0.00  0.00    -0.532 OA
ENDBRANCH  19  21
ENDBRANCH  12  15
ENDBRANCH   9  11
ENDBRANCH   7   9
ENDBRANCH   4   7
BRANCH   1  24
ATOM     24  N   UNL d   1      27.595 -15.116  -0.302  0.00  0.00    -0.325 N 
ATOM     25  C   UNL d   1      26.760 -14.198  -0.930  0.00  0.00     0.251 C 
ATOM     26  O   UNL d   1      26.731 -13.001  -0.623  0.00  0.00    -0.270 OA
ATOM     27  H   UNL d   1      27.691 -16.045  -0.683  0.00  0.00     0.169 HD
BRANCH  25  28
ATOM     28  C   UNL d   1      25.838 -14.744  -2.050  0.00  0.00     0.217 C 
ATOM     29  C   UNL d   1      26.391 -14.130  -3.330  0.00  0.00     0.050 C 
BRANCH  28  30
ATOM     30  O   UNL d   1      25.870 -16.190  -2.075  0.00  0.00    -0.335 OA
BRANCH  30  31
ATOM     31  C   UNL d   1      24.943 -16.853  -1.297  0.00  0.00     0.091 C 
ATOM     32  C   UNL d   1      23.647 -16.314  -1.294  0.00  0.00     0.038 C 
ATOM     33  C   UNL d   1      22.625 -16.891  -0.521  0.00  0.00     0.003 C 
ATOM     34  C   UNL d   1      22.868 -18.050   0.209  0.00  0.00     0.002 C 
ATOM     35  C   UNL d   1      24.152 -18.566   0.253  0.00  0.00     0.026 C 
ATOM     36  C   UNL d   1      25.200 -17.903  -0.393  0.00  0.00     0.067 C 
ATOM     37 CL   UNL d   1      26.749 -18.329   0.264  0.00  0.00    -0.081 Cl
ENDBRANCH  30  31
ENDBRANCH  28  30
ENDBRANCH  25  28
ENDBRANCH   1  24
TORSDOF 9
ENDMDL
