MODEL 1
REMARK VINA RESULT:    -7.173      0.000      0.000
REMARK INTER + INTRA:         -15.830
REMARK INTER:                 -10.752
REMARK INTRA:                  -5.078
REMARK CONF_INDEPENDENT:        3.580
REMARK UNBOUND:                -5.078
REMARK  12 active torsions:
REMARK  status: ('A' for Active; 'I' for Inactive)
REMARK    1  A    between atoms: C_3  and  O_4 
REMARK    2  A    between atoms: O_4  and  C_5 
REMARK    3  A    between atoms: C_6  and  C_5 
REMARK    4  A    between atoms: C_6  and  C_8 
REMARK    5  A    between atoms: C_6  and  O_7 
REMARK    6  A    between atoms: N_9  and  C_8 
REMARK    7  A    between atoms: N_9  and  C_28 
REMARK    8  A    between atoms: N_9  and  C_10 
REMARK    9  A    between atoms: C_10  and  C_11 
REMARK   10  A    between atoms: C_15  and  C_16 
REMARK   11  A    between atoms: C_16  and  O_18 
REMARK   12  A    between atoms: O_18  and  C_19 
ROOT
ATOM      1  C   UNL d   1      30.107 -12.441  -1.251  0.00  0.00     0.014 C 
ATOM      2  C   UNL d   1      30.891 -13.348  -1.090  0.00  0.00    -0.091 C 
ATOM      3  C   UNL d   1      31.841 -14.445  -0.963  0.00  0.00     0.260 C 
ENDROOT
BRANCH   3   4
ATOM      4  O   UNL d   1      31.992 -14.824   0.413  0.00  0.00    -0.377 OA
BRANCH   4   5
ATOM      5  C   UNL d   1      31.805 -13.665   1.237  0.00  0.00     0.202 C 
BRANCH   5   6
ATOM      6  C   UNL d   1      31.311 -14.113   2.602  0.00  0.00     0.167 C 
BRANCH   6   7
ATOM      7  C   UNL d   1      29.954 -13.466   2.901  0.00  0.00     0.269 C 
BRANCH   7   8
ATOM      8  N   UNL d   1      28.936 -14.447   3.458  0.00  0.00    -0.058 N 
ATOM      9  H   UNL d   1      29.285 -15.415   3.326  0.00  0.00     0.281 HD
BRANCH   8  10
ATOM     10  C   UNL d   1      28.712 -14.250   4.961  0.00  0.00     0.188 C 
ATOM     11  C   UNL d   1      30.031 -14.365   5.727  0.00  0.00     0.033 C 
ATOM     12  C   UNL d   1      29.897 -14.133   7.209  0.00  0.00     0.002 C 
ATOM     13  C   UNL d   1      29.265 -12.779   7.459  0.00  0.00     0.000 C 
ATOM     14  C   UNL d   1      27.931 -12.667   6.736  0.00  0.00     0.002 C 
ATOM     15  C   UNL d   1      28.078 -12.887   5.238  0.00  0.00     0.033 C 
ENDBRANCH   8  10
BRANCH   8  16
ATOM     16  C   UNL d   1      27.605 -14.393   2.710  0.00  0.00     0.313 C 
BRANCH  16  17
ATOM     17  C   UNL d   1      27.705 -14.912   1.305  0.00  0.00     0.134 C 
ATOM     18  N   UNL d   1      26.740 -14.657   0.482  0.00  0.00    -0.225 NA
ATOM     19  C   UNL d   1      27.020 -14.964  -0.801  0.00  0.00     0.116 A 
ATOM     20  S   UNL d   1      26.034 -14.407  -2.048  0.00  0.00    -0.063 SA
ATOM     21  C   UNL d   1      28.113 -15.657  -1.257  0.00  0.00     0.075 A 
ATOM     22  C   UNL d   1      26.949 -15.251  -3.233  0.00  0.00     0.089 A 
ATOM     23  C   UNL d   1      28.064 -15.876  -2.675  0.00  0.00    -0.020 A 
ATOM     24  C   UNL d   1      29.079 -16.706  -3.387  0.00  0.00     0.051 C 
ATOM     25  C   UNL d   1      29.088 -16.081  -0.269  0.00  0.00     0.260 C 
ATOM     26  O   UNL d   1      30.058 -16.793  -0.495  0.00  0.00    -0.267 OA
ATOM     27  N   UNL d   1      28.844 -15.600   0.994  0.00  0.00    -0.309 N 
ATOM     28  H   UNL d   1      29.496 -15.910   1.704  0.00  0.00     0.170 HD
BRANCH  22  29
ATOM     29  C   UNL d   1      26.419 -15.198  -4.584  0.00  0.00     0.301 C 
ATOM     30  O   UNL d   1      25.232 -15.097  -4.864  0.00  0.00    -0.259 OA
BRANCH  29  31
ATOM     31  O   UNL d   1      27.419 -15.282  -5.506  0.00  0.00    -0.312 OA
BRANCH  31  32
ATOM     32  C   UNL d   1      27.816 -14.058  -6.145  0.00  0.00     0.124 C 
ATOM     33  C   UNL d   1      27.365 -12.864  -5.314  0.00  0.00     0.040 C 
ATOM     34  C   UNL d   1      29.342 -14.036  -6.251  0.00  0.00     0.040 C 
ENDBRANCH  31  32
ENDBRANCH  29  31
ENDBRANCH  22  29
ENDBRANCH  16  17
ENDBRANCH   8  16
ENDBRANCH   7   8
ENDBRANCH   6   7
BRANCH   6  35
ATOM     35  O   UNL d   1      31.253 -15.538   2.568  0.00  0.00    -0.392 OA
ATOM     36  H   UNL d   1      30.828 -15.783   1.719  0.00  0.00     0.210 HD
ENDBRANCH   6  35
ENDBRANCH   5   6
ENDBRANCH   4   5
ENDBRANCH   3   4
TORSDOF 12
ENDMDL
MODEL 2
REMARK VINA RESULT:    -6.959      2.755      3.981
REMARK INTER + INTRA:         -14.516
REMARK INTER:                 -10.539
REMARK INTRA:                  -3.977
REMARK CONF_INDEPENDENT:        3.580
REMARK UNBOUND:                -3.977
REMARK  12 active torsions:
REMARK  status: ('A' for Active; 'I' for Inactive)
REMARK    1  A    between atoms: C_3  and  O_4 
REMARK    2  A    between atoms: O_4  and  C_5 
REMARK    3  A    between atoms: C_6  and  C_5 
REMARK    4  A    between atoms: C_6  and  C_8 
REMARK    5  A    between atoms: C_6  and  O_7 
REMARK    6  A    between atoms: N_9  and  C_8 
REMARK    7  A    between atoms: N_9  and  C_28 
REMARK    8  A    between atoms: N_9  and  C_10 
REMARK    9  A    between atoms: C_10  and  C_11 
REMARK   10  A    between atoms: C_15  and  C_16 
REMARK   11  A    between atoms: C_16  and  O_18 
REMARK   12  A    between atoms: O_18  and  C_19 
ROOT
ATOM      1  C   UNL d   1      33.018 -11.991  -1.814  0.00  0.00     0.014 C 
ATOM      2  C   UNL d   1      33.386 -13.069  -1.407  0.00  0.00    -0.091 C 
ATOM      3  C   UNL d   1      33.886 -14.359  -0.951  0.00  0.00     0.260 C 
ENDROOT
BRANCH   3   4
ATOM      4  O   UNL d   1      32.889 -15.043  -0.179  0.00  0.00    -0.377 OA
BRANCH   4   5
ATOM      5  C   UNL d   1      33.507 -15.606   0.986  0.00  0.00     0.202 C 
BRANCH   5   6
ATOM      6  C   UNL d   1      32.423 -16.172   1.888  0.00  0.00     0.167 C 
BRANCH   6   7
ATOM      7  C   UNL d   1      31.974 -15.105   2.892  0.00  0.00     0.269 C 
BRANCH   7   8
ATOM      8  N   UNL d   1      30.516 -14.709   2.727  0.00  0.00    -0.058 N 
ATOM      9  H   UNL d   1      29.958 -15.549   2.482  0.00  0.00     0.281 HD
BRANCH   8  10
ATOM     10  C   UNL d   1      29.927 -14.138   4.021  0.00  0.00     0.188 C 
ATOM     11  C   UNL d   1      29.043 -12.925   3.727  0.00  0.00     0.033 C 
ATOM     12  C   UNL d   1      28.387 -12.338   4.949  0.00  0.00     0.002 C 
ATOM     13  C   UNL d   1      27.586 -13.407   5.663  0.00  0.00     0.000 C 
ATOM     14  C   UNL d   1      28.465 -14.603   5.999  0.00  0.00     0.002 C 
ATOM     15  C   UNL d   1      29.110 -15.199   4.756  0.00  0.00     0.033 C 
ENDBRANCH   8  10
BRANCH   8  16
ATOM     16  C   UNL d   1      30.303 -13.735   1.570  0.00  0.00     0.313 C 
BRANCH  16  17
ATOM     17  C   UNL d   1      29.244 -14.194   0.609  0.00  0.00     0.134 C 
ATOM     18  N   UNL d   1      28.743 -15.377   0.761  0.00  0.00    -0.225 NA
ATOM     19  C   UNL d   1      27.653 -15.610   0.001  0.00  0.00     0.116 A 
ATOM     20  S   UNL d   1      26.676 -16.950   0.298  0.00  0.00    -0.063 SA
ATOM     21  C   UNL d   1      27.167 -14.808  -1.000  0.00  0.00     0.075 A 
ATOM     22  C   UNL d   1      25.669 -16.592  -1.049  0.00  0.00     0.089 A 
ATOM     23  C   UNL d   1      26.032 -15.392  -1.659  0.00  0.00    -0.020 A 
ATOM     24  C   UNL d   1      25.400 -14.766  -2.857  0.00  0.00     0.051 C 
ATOM     25  C   UNL d   1      27.872 -13.566  -1.256  0.00  0.00     0.260 C 
ATOM     26  O   UNL d   1      27.633 -12.795  -2.176  0.00  0.00    -0.267 OA
ATOM     27  N   UNL d   1      28.868 -13.296  -0.349  0.00  0.00    -0.309 N 
ATOM     28  H   UNL d   1      29.393 -12.449  -0.529  0.00  0.00     0.170 HD
BRANCH  22  29
ATOM     29  C   UNL d   1      24.645 -17.579  -1.341  0.00  0.00     0.301 C 
ATOM     30  O   UNL d   1      24.224 -17.836  -2.462  0.00  0.00    -0.259 OA
BRANCH  29  31
ATOM     31  O   UNL d   1      24.206 -18.181  -0.201  0.00  0.00    -0.312 OA
BRANCH  31  32
ATOM     32  C   UNL d   1      22.871 -17.866   0.226  0.00  0.00     0.124 C 
ATOM     33  C   UNL d   1      22.530 -16.429  -0.144  0.00  0.00     0.040 C 
ATOM     34  C   UNL d   1      21.897 -18.804  -0.489  0.00  0.00     0.040 C 
ENDBRANCH  31  32
ENDBRANCH  29  31
ENDBRANCH  22  29
ENDBRANCH  16  17
ENDBRANCH   8  16
ENDBRANCH   7   8
ENDBRANCH   6   7
BRANCH   6  35
ATOM     35  O   UNL d   1      31.369 -16.612   1.033  0.00  0.00    -0.392 OA
ATOM     36  H   UNL d   1      30.528 -16.354   1.466  0.00  0.00     0.210 HD
ENDBRANCH   6  35
ENDBRANCH   5   6
ENDBRANCH   4   5
ENDBRANCH   3   4
TORSDOF 12
ENDMDL
MODEL 3
REMARK VINA RESULT:    -6.826      3.164      8.510
REMARK INTER + INTRA:         -15.260
REMARK INTER:                 -10.406
REMARK INTRA:                  -4.854
REMARK CONF_INDEPENDENT:        3.580
REMARK UNBOUND:                -4.854
REMARK  12 active torsions:
REMARK  status: ('A' for Active; 'I' for Inactive)
REMARK    1  A    between atoms: C_3  and  O_4 
REMARK    2  A    between atoms: O_4  and  C_5 
REMARK    3  A    between atoms: C_6  and  C_5 
REMARK    4  A    between atoms: C_6  and  C_8 
REMARK    5  A    between atoms: C_6  and  O_7 
REMARK    6  A    between atoms: N_9  and  C_8 
REMARK    7  A    between atoms: N_9  and  C_28 
REMARK    8  A    between atoms: N_9  and  C_10 
REMARK    9  A    between atoms: C_10  and  C_11 
REMARK   10  A    between atoms: C_15  and  C_16 
REMARK   11  A    between atoms: C_16  and  O_18 
REMARK   12  A    between atoms: O_18  and  C_19 
ROOT
ATOM      1  C   UNL d   1      29.120 -11.049  -1.430  0.00  0.00     0.014 C 
ATOM      2  C   UNL d   1      28.065 -11.227  -1.996  0.00  0.00    -0.091 C 
ATOM      3  C   UNL d   1      26.794 -11.375  -2.692  0.00  0.00     0.260 C 
ENDROOT
BRANCH   3   4
ATOM      4  O   UNL d   1      26.296 -12.713  -2.552  0.00  0.00    -0.377 OA
BRANCH   4   5
ATOM      5  C   UNL d   1      26.572 -13.441  -3.757  0.00  0.00     0.202 C 
BRANCH   5   6
ATOM      6  C   UNL d   1      25.605 -14.609  -3.853  0.00  0.00     0.167 C 
BRANCH   6   7
ATOM      7  C   UNL d   1      26.029 -15.715  -2.881  0.00  0.00     0.269 C 
BRANCH   7   8
ATOM      8  N   UNL d   1      25.931 -15.298  -1.423  0.00  0.00    -0.058 N 
ATOM      9  H   UNL d   1      25.520 -14.347  -1.366  0.00  0.00     0.281 HD
BRANCH   8  10
ATOM     10  C   UNL d   1      25.023 -16.232  -0.618  0.00  0.00     0.188 C 
ATOM     11  C   UNL d   1      23.641 -16.338  -1.264  0.00  0.00     0.033 C 
ATOM     12  C   UNL d   1      22.706 -17.281  -0.555  0.00  0.00     0.002 C 
ATOM     13  C   UNL d   1      23.342 -18.652  -0.455  0.00  0.00     0.000 C 
ATOM     14  C   UNL d   1      24.701 -18.567   0.225  0.00  0.00     0.002 C 
ATOM     15  C   UNL d   1      25.643 -17.624  -0.508  0.00  0.00     0.033 C 
ENDBRANCH   8  10
BRANCH   8  16
ATOM     16  C   UNL d   1      27.301 -15.183  -0.757  0.00  0.00     0.313 C 
BRANCH  16  17
ATOM     17  C   UNL d   1      27.264 -14.392   0.519  0.00  0.00     0.134 C 
ATOM     18  N   UNL d   1      27.428 -15.018   1.639  0.00  0.00    -0.225 NA
ATOM     19  C   UNL d   1      27.604 -14.204   2.700  0.00  0.00     0.116 A 
ATOM     20  S   UNL d   1      28.157 -14.820   4.167  0.00  0.00    -0.063 SA
ATOM     21  C   UNL d   1      27.450 -12.841   2.719  0.00  0.00     0.075 A 
ATOM     22  C   UNL d   1      28.018 -13.287   4.934  0.00  0.00     0.089 A 
ATOM     23  C   UNL d   1      27.642 -12.292   4.032  0.00  0.00    -0.020 A 
ATOM     24  C   UNL d   1      27.411 -10.849   4.332  0.00  0.00     0.051 C 
ATOM     25  C   UNL d   1      27.089 -12.196   1.470  0.00  0.00     0.260 C 
ATOM     26  O   UNL d   1      26.813 -11.011   1.341  0.00  0.00    -0.267 OA
ATOM     27  N   UNL d   1      27.087 -13.044   0.389  0.00  0.00    -0.309 N 
ATOM     28  H   UNL d   1      26.807 -12.619  -0.488  0.00  0.00     0.170 HD
BRANCH  22  29
ATOM     29  C   UNL d   1      28.286 -13.278   6.361  0.00  0.00     0.301 C 
ATOM     30  O   UNL d   1      28.852 -14.176   6.970  0.00  0.00    -0.259 OA
BRANCH  29  31
ATOM     31  O   UNL d   1      27.819 -12.136   6.939  0.00  0.00    -0.312 OA
BRANCH  31  32
ATOM     32  C   UNL d   1      28.753 -11.378   7.724  0.00  0.00     0.124 C 
ATOM     33  C   UNL d   1      28.942 -12.031   9.087  0.00  0.00     0.040 C 
ATOM     34  C   UNL d   1      30.099 -11.358   6.996  0.00  0.00     0.040 C 
ENDBRANCH  31  32
ENDBRANCH  29  31
ENDBRANCH  22  29
ENDBRANCH  16  17
ENDBRANCH   8  16
ENDBRANCH   7   8
ENDBRANCH   6   7
BRANCH   6  35
ATOM     35  O   UNL d   1      24.306 -14.088  -3.572  0.00  0.00    -0.392 OA
ATOM     36  H   UNL d   1      24.424 -13.140  -3.352  0.00  0.00     0.210 HD
ENDBRANCH   6  35
ENDBRANCH   5   6
ENDBRANCH   4   5
ENDBRANCH   3   4
TORSDOF 12
ENDMDL
MODEL 4
REMARK VINA RESULT:    -6.563      3.983      7.282
REMARK INTER + INTRA:         -15.056
REMARK INTER:                 -10.143
REMARK INTRA:                  -4.913
REMARK CONF_INDEPENDENT:        3.580
REMARK UNBOUND:                -4.913
REMARK  12 active torsions:
REMARK  status: ('A' for Active; 'I' for Inactive)
REMARK    1  A    between atoms: C_3  and  O_4 
REMARK    2  A    between atoms: O_4  and  C_5 
REMARK    3  A    between atoms: C_6  and  C_5 
REMARK    4  A    between atoms: C_6  and  C_8 
REMARK    5  A    between atoms: C_6  and  O_7 
REMARK    6  A    between atoms: N_9  and  C_8 
REMARK    7  A    between atoms: N_9  and  C_28 
REMARK    8  A    between atoms: N_9  and  C_10 
REMARK    9  A    between atoms: C_10  and  C_11 
REMARK   10  A    between atoms: C_15  and  C_16 
REMARK   11  A    between atoms: C_16  and  O_18 
REMARK   12  A    between atoms: O_18  and  C_19 
ROOT
ATOM      1  C   UNL d   1      29.993 -11.294  -0.476  0.00  0.00     0.014 C 
ATOM      2  C   UNL d   1      29.059 -11.655  -1.155  0.00  0.00    -0.091 C 
ATOM      3  C   UNL d   1      27.930 -12.027  -1.998  0.00  0.00     0.260 C 
ENDROOT
BRANCH   3   4
ATOM      4  O   UNL d   1      27.528 -13.378  -1.734  0.00  0.00    -0.377 OA
BRANCH   4   5
ATOM      5  C   UNL d   1      28.503 -14.271  -2.294  0.00  0.00     0.202 C 
BRANCH   5   6
ATOM      6  C   UNL d   1      27.795 -15.530  -2.765  0.00  0.00     0.167 C 
BRANCH   6   7
ATOM      7  C   UNL d   1      27.642 -16.508  -1.596  0.00  0.00     0.269 C 
BRANCH   7   8
ATOM      8  N   UNL d   1      26.964 -15.888  -0.385  0.00  0.00    -0.058 N 
ATOM      9  H   UNL d   1      26.852 -14.869  -0.540  0.00  0.00     0.281 HD
BRANCH   8  10
ATOM     10  C   UNL d   1      25.564 -16.467  -0.152  0.00  0.00     0.188 C 
ATOM     11  C   UNL d   1      24.632 -16.119  -1.313  0.00  0.00     0.033 C 
ATOM     12  C   UNL d   1      23.248 -16.697  -1.178  0.00  0.00     0.002 C 
ATOM     13  C   UNL d   1      23.337 -18.200  -1.012  0.00  0.00     0.000 C 
ATOM     14  C   UNL d   1      24.229 -18.559   0.167  0.00  0.00     0.002 C 
ATOM     15  C   UNL d   1      25.629 -17.984   0.014  0.00  0.00     0.033 C 
ENDBRANCH   8  10
BRANCH   8  16
ATOM     16  C   UNL d   1      27.809 -16.012   0.882  0.00  0.00     0.313 C 
BRANCH  16  17
ATOM     17  C   UNL d   1      27.835 -14.746   1.689  0.00  0.00     0.134 C 
ATOM     18  N   UNL d   1      27.543 -13.631   1.100  0.00  0.00    -0.225 NA
ATOM     19  C   UNL d   1      27.374 -12.594   1.946  0.00  0.00     0.116 A 
ATOM     20  S   UNL d   1      26.674 -11.159   1.409  0.00  0.00    -0.063 SA
ATOM     21  C   UNL d   1      27.651 -12.580   3.289  0.00  0.00     0.075 A 
ATOM     22  C   UNL d   1      26.903 -10.403   2.936  0.00  0.00     0.089 A 
ATOM     23  C   UNL d   1      27.426 -11.289   3.876  0.00  0.00    -0.020 A 
ATOM     24  C   UNL d   1      27.768 -10.992   5.298  0.00  0.00     0.051 C 
ATOM     25  C   UNL d   1      28.150 -13.811   3.876  0.00  0.00     0.260 C 
ATOM     26  O   UNL d   1      28.541 -13.935   5.029  0.00  0.00    -0.267 OA
ATOM     27  N   UNL d   1      28.144 -14.879   3.013  0.00  0.00    -0.309 N 
ATOM     28  H   UNL d   1      28.517 -15.740   3.394  0.00  0.00     0.170 HD
BRANCH  22  29
ATOM     29  C   UNL d   1      26.545  -8.997   2.995  0.00  0.00     0.301 C 
ATOM     30  O   UNL d   1      27.016  -8.190   3.786  0.00  0.00    -0.259 OA
BRANCH  29  31
ATOM     31  O   UNL d   1      25.609  -8.690   2.054  0.00  0.00    -0.312 OA
BRANCH  31  32
ATOM     32  C   UNL d   1      26.024  -7.827   0.983  0.00  0.00     0.124 C 
ATOM     33  C   UNL d   1      25.116  -8.019  -0.224  0.00  0.00     0.040 C 
ATOM     34  C   UNL d   1      25.916  -6.376   1.456  0.00  0.00     0.040 C 
ENDBRANCH  31  32
ENDBRANCH  29  31
ENDBRANCH  22  29
ENDBRANCH  16  17
ENDBRANCH   8  16
ENDBRANCH   7   8
ENDBRANCH   6   7
BRANCH   6  35
ATOM     35  O   UNL d   1      26.544 -15.116  -3.313  0.00  0.00    -0.392 OA
ATOM     36  H   UNL d   1      26.515 -14.138  -3.242  0.00  0.00     0.210 HD
ENDBRANCH   6  35
ENDBRANCH   5   6
ENDBRANCH   4   5
ENDBRANCH   3   4
TORSDOF 12
ENDMDL
MODEL 5
REMARK VINA RESULT:    -6.386      3.596      8.091
REMARK INTER + INTRA:         -14.520
REMARK INTER:                  -9.966
REMARK INTRA:                  -4.555
REMARK CONF_INDEPENDENT:        3.580
REMARK UNBOUND:                -4.555
REMARK  12 active torsions:
REMARK  status: ('A' for Active; 'I' for Inactive)
REMARK    1  A    between atoms: C_3  and  O_4 
REMARK    2  A    between atoms: O_4  and  C_5 
REMARK    3  A    between atoms: C_6  and  C_5 
REMARK    4  A    between atoms: C_6  and  C_8 
REMARK    5  A    between atoms: C_6  and  O_7 
REMARK    6  A    between atoms: N_9  and  C_8 
REMARK    7  A    between atoms: N_9  and  C_28 
REMARK    8  A    between atoms: N_9  and  C_10 
REMARK    9  A    between atoms: C_10  and  C_11 
REMARK   10  A    between atoms: C_15  and  C_16 
REMARK   11  A    between atoms: C_16  and  O_18 
REMARK   12  A    between atoms: O_18  and  C_19 
ROOT
ATOM      1  C   UNL d   1      28.704 -10.989  -5.820  0.00  0.00     0.014 C 
ATOM      2  C   UNL d   1      27.592 -11.045  -5.349  0.00  0.00    -0.091 C 
ATOM      3  C   UNL d   1      26.241 -11.048  -4.802  0.00  0.00     0.260 C 
ENDROOT
BRANCH   3   4
ATOM      4  O   UNL d   1      25.983 -12.276  -4.107  0.00  0.00    -0.377 OA
BRANCH   4   5
ATOM      5  C   UNL d   1      26.421 -13.373  -4.922  0.00  0.00     0.202 C 
BRANCH   5   6
ATOM      6  C   UNL d   1      25.530 -14.572  -4.645  0.00  0.00     0.167 C 
BRANCH   6   7
ATOM      7  C   UNL d   1      26.273 -15.577  -3.758  0.00  0.00     0.269 C 
BRANCH   7   8
ATOM      8  N   UNL d   1      25.906 -15.458  -2.288  0.00  0.00    -0.058 N 
ATOM      9  H   UNL d   1      25.268 -14.651  -2.157  0.00  0.00     0.281 HD
BRANCH   8  10
ATOM     10  C   UNL d   1      25.171 -16.702  -1.777  0.00  0.00     0.188 C 
ATOM     11  C   UNL d   1      25.954 -17.371  -0.646  0.00  0.00     0.033 C 
ATOM     12  C   UNL d   1      25.268 -18.575  -0.058  0.00  0.00     0.002 C 
ATOM     13  C   UNL d   1      23.883 -18.190   0.421  0.00  0.00     0.000 C 
ATOM     14  C   UNL d   1      23.078 -17.562  -0.707  0.00  0.00     0.002 C 
ATOM     15  C   UNL d   1      23.772 -16.337  -1.284  0.00  0.00     0.033 C 
ENDBRANCH   8  10
BRANCH   8  16
ATOM     16  C   UNL d   1      27.118 -15.158  -1.407  0.00  0.00     0.313 C 
BRANCH  16  17
ATOM     17  C   UNL d   1      27.077 -13.781  -0.810  0.00  0.00     0.134 C 
ATOM     18  N   UNL d   1      26.785 -13.661   0.446  0.00  0.00    -0.225 NA
ATOM     19  C   UNL d   1      26.993 -12.422   0.939  0.00  0.00     0.116 A 
ATOM     20  S   UNL d   1      26.989 -12.154   2.601  0.00  0.00    -0.063 SA
ATOM     21  C   UNL d   1      27.297 -11.295   0.218  0.00  0.00     0.075 A 
ATOM     22  C   UNL d   1      27.206 -10.461   2.391  0.00  0.00     0.089 A 
ATOM     23  C   UNL d   1      27.378 -10.127   1.049  0.00  0.00    -0.020 A 
ATOM     24  C   UNL d   1      27.579  -8.761   0.482  0.00  0.00     0.051 C 
ATOM     25  C   UNL d   1      27.440 -11.445  -1.218  0.00  0.00     0.260 C 
ATOM     26  O   UNL d   1      27.605 -10.527  -2.011  0.00  0.00    -0.267 OA
ATOM     27  N   UNL d   1      27.386 -12.748  -1.648  0.00  0.00    -0.309 N 
ATOM     28  H   UNL d   1      27.453 -12.871  -2.652  0.00  0.00     0.170 HD
BRANCH  22  29
ATOM     29  C   UNL d   1      27.155  -9.671   3.608  0.00  0.00     0.301 C 
ATOM     30  O   UNL d   1      27.028  -8.454   3.645  0.00  0.00    -0.259 OA
BRANCH  29  31
ATOM     31  O   UNL d   1      27.274 -10.462   4.711  0.00  0.00    -0.312 OA
BRANCH  31  32
ATOM     32  C   UNL d   1      28.515 -10.386   5.433  0.00  0.00     0.124 C 
ATOM     33  C   UNL d   1      28.534 -11.422   6.548  0.00  0.00     0.040 C 
ATOM     34  C   UNL d   1      29.661 -10.682   4.464  0.00  0.00     0.040 C 
ENDBRANCH  31  32
ENDBRANCH  29  31
ENDBRANCH  22  29
ENDBRANCH  16  17
ENDBRANCH   8  16
ENDBRANCH   7   8
ENDBRANCH   6   7
BRANCH   6  35
ATOM     35  O   UNL d   1      24.341 -14.067  -4.039  0.00  0.00    -0.392 OA
ATOM     36  H   UNL d   1      24.084 -13.267  -4.546  0.00  0.00     0.210 HD
ENDBRANCH   6  35
ENDBRANCH   5   6
ENDBRANCH   4   5
ENDBRANCH   3   4
TORSDOF 12
ENDMDL
MODEL 6
REMARK VINA RESULT:    -6.075      2.265      3.189
REMARK INTER + INTRA:         -14.898
REMARK INTER:                  -9.655
REMARK INTRA:                  -5.244
REMARK CONF_INDEPENDENT:        3.580
REMARK UNBOUND:                -5.244
REMARK  12 active torsions:
REMARK  status: ('A' for Active; 'I' for Inactive)
REMARK    1  A    between atoms: C_3  and  O_4 
REMARK    2  A    between atoms: O_4  and  C_5 
REMARK    3  A    between atoms: C_6  and  C_5 
REMARK    4  A    between atoms: C_6  and  C_8 
REMARK    5  A    between atoms: C_6  and  O_7 
REMARK    6  A    between atoms: N_9  and  C_8 
REMARK    7  A    between atoms: N_9  and  C_28 
REMARK    8  A    between atoms: N_9  and  C_10 
REMARK    9  A    between atoms: C_10  and  C_11 
REMARK   10  A    between atoms: C_15  and  C_16 
REMARK   11  A    between atoms: C_16  and  O_18 
REMARK   12  A    between atoms: O_18  and  C_19 
ROOT
ATOM      1  C   UNL d   1      31.904 -14.686   0.268  0.00  0.00     0.014 C 
ATOM      2  C   UNL d   1      31.785 -14.836   1.462  0.00  0.00    -0.091 C 
ATOM      3  C   UNL d   1      31.707 -15.038   2.903  0.00  0.00     0.260 C 
ENDROOT
BRANCH   3   4
ATOM      4  O   UNL d   1      30.369 -14.813   3.370  0.00  0.00    -0.377 OA
BRANCH   4   5
ATOM      5  C   UNL d   1      30.358 -14.891   4.803  0.00  0.00     0.202 C 
BRANCH   5   6
ATOM      6  C   UNL d   1      29.044 -14.322   5.311  0.00  0.00     0.167 C 
BRANCH   6   7
ATOM      7  C   UNL d   1      28.980 -12.820   5.017  0.00  0.00     0.269 C 
BRANCH   7   8
ATOM      8  N   UNL d   1      28.067 -12.480   3.851  0.00  0.00    -0.058 N 
ATOM      9  H   UNL d   1      27.284 -13.160   3.818  0.00  0.00     0.281 HD
BRANCH   8  10
ATOM     10  C   UNL d   1      27.447 -11.085   3.995  0.00  0.00     0.188 C 
ATOM     11  C   UNL d   1      28.526 -10.037   4.270  0.00  0.00     0.033 C 
ATOM     12  C   UNL d   1      27.998  -8.631   4.374  0.00  0.00     0.002 C 
ATOM     13  C   UNL d   1      27.235  -8.277   3.114  0.00  0.00     0.000 C 
ATOM     14  C   UNL d   1      26.131  -9.290   2.851  0.00  0.00     0.002 C 
ATOM     15  C   UNL d   1      26.676 -10.705   2.731  0.00  0.00     0.033 C 
ENDBRANCH   8  10
BRANCH   8  16
ATOM     16  C   UNL d   1      28.770 -12.613   2.501  0.00  0.00     0.313 C 
BRANCH  16  17
ATOM     17  C   UNL d   1      27.995 -13.443   1.519  0.00  0.00     0.134 C 
ATOM     18  N   UNL d   1      27.358 -12.839   0.567  0.00  0.00    -0.225 NA
ATOM     19  C   UNL d   1      26.885 -13.669  -0.385  0.00  0.00     0.116 A 
ATOM     20  S   UNL d   1      26.328 -13.056  -1.851  0.00  0.00    -0.063 SA
ATOM     21  C   UNL d   1      26.863 -15.040  -0.339  0.00  0.00     0.075 A 
ATOM     22  C   UNL d   1      25.856 -14.617  -2.396  0.00  0.00     0.089 A 
ATOM     23  C   UNL d   1      26.219 -15.611  -1.488  0.00  0.00    -0.020 A 
ATOM     24  C   UNL d   1      25.967 -17.076  -1.612  0.00  0.00     0.051 C 
ATOM     25  C   UNL d   1      27.431 -15.673   0.837  0.00  0.00     0.260 C 
ATOM     26  O   UNL d   1      27.396 -16.872   1.081  0.00  0.00    -0.267 OA
ATOM     27  N   UNL d   1      28.049 -14.796   1.696  0.00  0.00    -0.309 N 
ATOM     28  H   UNL d   1      28.425 -15.214   2.538  0.00  0.00     0.170 HD
BRANCH  22  29
ATOM     29  C   UNL d   1      25.155 -14.648  -3.668  0.00  0.00     0.301 C 
ATOM     30  O   UNL d   1      24.105 -14.063  -3.900  0.00  0.00    -0.259 OA
BRANCH  29  31
ATOM     31  O   UNL d   1      25.818 -15.421  -4.572  0.00  0.00    -0.312 OA
BRANCH  31  32
ATOM     32  C   UNL d   1      26.936 -14.819  -5.245  0.00  0.00     0.124 C 
ATOM     33  C   UNL d   1      26.795 -13.302  -5.236  0.00  0.00     0.040 C 
ATOM     34  C   UNL d   1      28.217 -15.199  -4.499  0.00  0.00     0.040 C 
ENDBRANCH  31  32
ENDBRANCH  29  31
ENDBRANCH  22  29
ENDBRANCH  16  17
ENDBRANCH   8  16
ENDBRANCH   7   8
ENDBRANCH   6   7
BRANCH   6  35
ATOM     35  O   UNL d   1      28.003 -15.060   4.671  0.00  0.00    -0.392 OA
ATOM     36  H   UNL d   1      28.434 -15.624   3.994  0.00  0.00     0.210 HD
ENDBRANCH   6  35
ENDBRANCH   5   6
ENDBRANCH   4   5
ENDBRANCH   3   4
TORSDOF 12
ENDMDL
MODEL 7
REMARK VINA RESULT:    -5.933      3.842      6.987
REMARK INTER + INTRA:         -15.151
REMARK INTER:                  -9.513
REMARK INTRA:                  -5.639
REMARK CONF_INDEPENDENT:        3.580
REMARK UNBOUND:                -5.639
REMARK  12 active torsions:
REMARK  status: ('A' for Active; 'I' for Inactive)
REMARK    1  A    between atoms: C_3  and  O_4 
REMARK    2  A    between atoms: O_4  and  C_5 
REMARK    3  A    between atoms: C_6  and  C_5 
REMARK    4  A    between atoms: C_6  and  C_8 
REMARK    5  A    between atoms: C_6  and  O_7 
REMARK    6  A    between atoms: N_9  and  C_8 
REMARK    7  A    between atoms: N_9  and  C_28 
REMARK    8  A    between atoms: N_9  and  C_10 
REMARK    9  A    between atoms: C_10  and  C_11 
REMARK   10  A    between atoms: C_15  and  C_16 
REMARK   11  A    between atoms: C_16  and  O_18 
REMARK   12  A    between atoms: O_18  and  C_19 
ROOT
ATOM      1  C   UNL d   1      30.912 -11.008   1.026  0.00  0.00     0.014 C 
ATOM      2  C   UNL d   1      31.105 -12.171   1.299  0.00  0.00    -0.091 C 
ATOM      3  C   UNL d   1      31.393 -13.553   1.660  0.00  0.00     0.260 C 
ENDROOT
BRANCH   3   4
ATOM      4  O   UNL d   1      30.436 -14.439   1.063  0.00  0.00    -0.377 OA
BRANCH   4   5
ATOM      5  C   UNL d   1      30.879 -14.782  -0.258  0.00  0.00     0.202 C 
BRANCH   5   6
ATOM      6  C   UNL d   1      29.678 -14.788  -1.188  0.00  0.00     0.167 C 
BRANCH   6   7
ATOM      7  C   UNL d   1      28.853 -16.059  -0.963  0.00  0.00     0.269 C 
BRANCH   7   8
ATOM      8  N   UNL d   1      27.558 -15.804  -0.210  0.00  0.00    -0.058 N 
ATOM      9  H   UNL d   1      27.280 -14.812  -0.334  0.00  0.00     0.281 HD
BRANCH   8  10
ATOM     10  C   UNL d   1      26.406 -16.664  -0.741  0.00  0.00     0.188 C 
ATOM     11  C   UNL d   1      26.005 -17.727   0.283  0.00  0.00     0.033 C 
ATOM     12  C   UNL d   1      24.843 -18.582  -0.149  0.00  0.00     0.002 C 
ATOM     13  C   UNL d   1      23.656 -17.701  -0.480  0.00  0.00     0.000 C 
ATOM     14  C   UNL d   1      24.031 -16.665  -1.530  0.00  0.00     0.002 C 
ATOM     15  C   UNL d   1      25.195 -15.796  -1.077  0.00  0.00     0.033 C 
ENDBRANCH   8  10
BRANCH   8  16
ATOM     16  C   UNL d   1      27.712 -15.993   1.298  0.00  0.00     0.313 C 
BRANCH  16  17
ATOM     17  C   UNL d   1      27.821 -14.692   2.040  0.00  0.00     0.134 C 
ATOM     18  N   UNL d   1      27.461 -13.605   1.437  0.00  0.00    -0.225 NA
ATOM     19  C   UNL d   1      27.380 -12.531   2.249  0.00  0.00     0.116 A 
ATOM     20  S   UNL d   1      26.619 -11.122   1.729  0.00  0.00    -0.063 SA
ATOM     21  C   UNL d   1      27.803 -12.457   3.553  0.00  0.00     0.075 A 
ATOM     22  C   UNL d   1      27.010 -10.298   3.186  0.00  0.00     0.089 A 
ATOM     23  C   UNL d   1      27.637 -11.141   4.102  0.00  0.00    -0.020 A 
ATOM     24  C   UNL d   1      28.131 -10.780   5.464  0.00  0.00     0.051 C 
ATOM     25  C   UNL d   1      28.368 -13.660   4.136  0.00  0.00     0.260 C 
ATOM     26  O   UNL d   1      28.884 -13.733   5.243  0.00  0.00    -0.267 OA
ATOM     27  N   UNL d   1      28.272 -14.767   3.327  0.00  0.00    -0.309 N 
ATOM     28  H   UNL d   1      28.690 -15.609   3.703  0.00  0.00     0.170 HD
BRANCH  22  29
ATOM     29  C   UNL d   1      26.655  -8.890   3.221  0.00  0.00     0.301 C 
ATOM     30  O   UNL d   1      27.176  -8.057   3.951  0.00  0.00    -0.259 OA
BRANCH  29  31
ATOM     31  O   UNL d   1      25.656  -8.616   2.336  0.00  0.00    -0.312 OA
BRANCH  31  32
ATOM     32  C   UNL d   1      25.990  -7.769   1.224  0.00  0.00     0.124 C 
ATOM     33  C   UNL d   1      25.910  -6.306   1.639  0.00  0.00     0.040 C 
ATOM     34  C   UNL d   1      27.423  -8.080   0.787  0.00  0.00     0.040 C 
ENDBRANCH  31  32
ENDBRANCH  29  31
ENDBRANCH  22  29
ENDBRANCH  16  17
ENDBRANCH   8  16
ENDBRANCH   7   8
ENDBRANCH   6   7
BRANCH   6  35
ATOM     35  O   UNL d   1      28.945 -13.593  -0.918  0.00  0.00    -0.392 OA
ATOM     36  H   UNL d   1      29.088 -13.383   0.029  0.00  0.00     0.210 HD
ENDBRANCH   6  35
ENDBRANCH   5   6
ENDBRANCH   4   5
ENDBRANCH   3   4
TORSDOF 12
ENDMDL
MODEL 8
REMARK VINA RESULT:    -5.698      3.799      6.222
REMARK INTER + INTRA:         -14.736
REMARK INTER:                  -9.277
REMARK INTRA:                  -5.458
REMARK CONF_INDEPENDENT:        3.580
REMARK UNBOUND:                -5.458
REMARK  12 active torsions:
REMARK  status: ('A' for Active; 'I' for Inactive)
REMARK    1  A    between atoms: C_3  and  O_4 
REMARK    2  A    between atoms: O_4  and  C_5 
REMARK    3  A    between atoms: C_6  and  C_5 
REMARK    4  A    between atoms: C_6  and  C_8 
REMARK    5  A    between atoms: C_6  and  O_7 
REMARK    6  A    between atoms: N_9  and  C_8 
REMARK    7  A    between atoms: N_9  and  C_28 
REMARK    8  A    between atoms: N_9  and  C_10 
REMARK    9  A    between atoms: C_10  and  C_11 
REMARK   10  A    between atoms: C_15  and  C_16 
REMARK   11  A    between atoms: C_16  and  O_18 
REMARK   12  A    between atoms: O_18  and  C_19 
ROOT
ATOM      1  C   UNL d   1      30.469 -12.557  -2.679  0.00  0.00     0.014 C 
ATOM      2  C   UNL d   1      30.197 -13.559  -2.058  0.00  0.00    -0.091 C 
ATOM      3  C   UNL d   1      29.931 -14.790  -1.326  0.00  0.00     0.260 C 
ENDROOT
BRANCH   3   4
ATOM      4  O   UNL d   1      28.584 -14.800  -0.832  0.00  0.00    -0.377 OA
BRANCH   4   5
ATOM      5  C   UNL d   1      28.512 -15.672   0.305  0.00  0.00     0.202 C 
BRANCH   5   6
ATOM      6  C   UNL d   1      27.589 -16.832  -0.028  0.00  0.00     0.167 C 
BRANCH   6   7
ATOM      7  C   UNL d   1      26.137 -16.344  -0.077  0.00  0.00     0.269 C 
BRANCH   7   8
ATOM      8  N   UNL d   1      25.514 -16.465  -1.457  0.00  0.00    -0.058 N 
ATOM      9  H   UNL d   1      26.191 -16.917  -2.101  0.00  0.00     0.281 HD
BRANCH   8  10
ATOM     10  C   UNL d   1      24.253 -17.336  -1.443  0.00  0.00     0.188 C 
ATOM     11  C   UNL d   1      24.440 -18.547  -0.529  0.00  0.00     0.033 C 
ATOM     12  C   UNL d   1      23.222 -19.426  -0.425  0.00  0.00     0.002 C 
ATOM     13  C   UNL d   1      22.036 -18.603   0.034  0.00  0.00     0.000 C 
ATOM     14  C   UNL d   1      21.813 -17.417  -0.893  0.00  0.00     0.002 C 
ATOM     15  C   UNL d   1      23.044 -16.527  -0.979  0.00  0.00     0.033 C 
ENDBRANCH   8  10
BRANCH   8  16
ATOM     16  C   UNL d   1      25.213 -15.104  -2.082  0.00  0.00     0.313 C 
BRANCH  16  17
ATOM     17  C   UNL d   1      26.175 -14.739  -3.176  0.00  0.00     0.134 C 
ATOM     18  N   UNL d   1      27.250 -15.446  -3.314  0.00  0.00    -0.225 NA
ATOM     19  C   UNL d   1      27.932 -15.189  -4.449  0.00  0.00     0.116 A 
ATOM     20  S   UNL d   1      29.157 -16.224  -4.963  0.00  0.00    -0.063 SA
ATOM     21  C   UNL d   1      27.693 -14.167  -5.333  0.00  0.00     0.075 A 
ATOM     22  C   UNL d   1      29.536 -15.212  -6.300  0.00  0.00     0.089 A 
ATOM     23  C   UNL d   1      28.655 -14.136  -6.399  0.00  0.00    -0.020 A 
ATOM     24  C   UNL d   1      28.676 -13.047  -7.419  0.00  0.00     0.051 C 
ATOM     25  C   UNL d   1      26.578 -13.284  -5.041  0.00  0.00     0.260 C 
ATOM     26  O   UNL d   1      26.298 -12.270  -5.666  0.00  0.00    -0.267 OA
ATOM     27  N   UNL d   1      25.817 -13.688  -3.971  0.00  0.00    -0.309 N 
ATOM     28  H   UNL d   1      25.052 -13.068  -3.731  0.00  0.00     0.170 HD
BRANCH  22  29
ATOM     29  C   UNL d   1      30.694 -15.615  -7.079  0.00  0.00     0.301 C 
ATOM     30  O   UNL d   1      30.838 -16.716  -7.595  0.00  0.00    -0.259 OA
BRANCH  29  31
ATOM     31  O   UNL d   1      31.607 -14.607  -7.156  0.00  0.00    -0.312 OA
BRANCH  31  32
ATOM     32  C   UNL d   1      32.134 -14.308  -8.459  0.00  0.00     0.124 C 
ATOM     33  C   UNL d   1      31.759 -12.888  -8.861  0.00  0.00     0.040 C 
ATOM     34  C   UNL d   1      33.659 -14.420  -8.405  0.00  0.00     0.040 C 
ENDBRANCH  31  32
ENDBRANCH  29  31
ENDBRANCH  22  29
ENDBRANCH  16  17
ENDBRANCH   8  16
ENDBRANCH   7   8
ENDBRANCH   6   7
BRANCH   6  35
ATOM     35  O   UNL d   1      28.038 -17.368  -1.272  0.00  0.00    -0.392 OA
ATOM     36  H   UNL d   1      28.294 -16.605  -1.833  0.00  0.00     0.210 HD
ENDBRANCH   6  35
ENDBRANCH   5   6
ENDBRANCH   4   5
ENDBRANCH   3   4
TORSDOF 12
ENDMDL
MODEL 9
REMARK VINA RESULT:    -5.630      3.889      6.307
REMARK INTER + INTRA:         -14.760
REMARK INTER:                  -9.210
REMARK INTRA:                  -5.550
REMARK CONF_INDEPENDENT:        3.580
REMARK UNBOUND:                -5.550
REMARK  12 active torsions:
REMARK  status: ('A' for Active; 'I' for Inactive)
REMARK    1  A    between atoms: C_3  and  O_4 
REMARK    2  A    between atoms: O_4  and  C_5 
REMARK    3  A    between atoms: C_6  and  C_5 
REMARK    4  A    between atoms: C_6  and  C_8 
REMARK    5  A    between atoms: C_6  and  O_7 
REMARK    6  A    between atoms: N_9  and  C_8 
REMARK    7  A    between atoms: N_9  and  C_28 
REMARK    8  A    between atoms: N_9  and  C_10 
REMARK    9  A    between atoms: C_10  and  C_11 
REMARK   10  A    between atoms: C_15  and  C_16 
REMARK   11  A    between atoms: C_16  and  O_18 
REMARK   12  A    between atoms: O_18  and  C_19 
ROOT
ATOM      1  C   UNL d   1      30.612 -12.713  -3.524  0.00  0.00     0.014 C 
ATOM      2  C   UNL d   1      30.256 -13.384  -2.582  0.00  0.00    -0.091 C 
ATOM      3  C   UNL d   1      29.893 -14.204  -1.434  0.00  0.00     0.260 C 
ENDROOT
BRANCH   3   4
ATOM      4  O   UNL d   1      28.467 -14.344  -1.346  0.00  0.00    -0.377 OA
BRANCH   4   5
ATOM      5  C   UNL d   1      28.117 -14.705  -0.003  0.00  0.00     0.202 C 
BRANCH   5   6
ATOM      6  C   UNL d   1      27.392 -16.041  -0.031  0.00  0.00     0.167 C 
BRANCH   6   7
ATOM      7  C   UNL d   1      25.882 -15.810  -0.144  0.00  0.00     0.269 C 
BRANCH   7   8
ATOM      8  N   UNL d   1      25.330 -16.145  -1.520  0.00  0.00    -0.058 N 
ATOM      9  H   UNL d   1      26.074 -16.593  -2.088  0.00  0.00     0.281 HD
BRANCH   8  10
ATOM     10  C   UNL d   1      24.163 -17.136  -1.444  0.00  0.00     0.188 C 
ATOM     11  C   UNL d   1      24.521 -18.332  -0.561  0.00  0.00     0.033 C 
ATOM     12  C   UNL d   1      23.402 -19.326  -0.398  0.00  0.00     0.002 C 
ATOM     13  C   UNL d   1      22.173 -18.627   0.144  0.00  0.00     0.000 C 
ATOM     14  C   UNL d   1      21.780 -17.459  -0.749  0.00  0.00     0.002 C 
ATOM     15  C   UNL d   1      22.912 -16.453  -0.894  0.00  0.00     0.033 C 
ENDBRANCH   8  10
BRANCH   8  16
ATOM     16  C   UNL d   1      24.921 -14.900  -2.303  0.00  0.00     0.313 C 
BRANCH  16  17
ATOM     17  C   UNL d   1      25.931 -14.507  -3.343  0.00  0.00     0.134 C 
ATOM     18  N   UNL d   1      27.009 -15.215  -3.455  0.00  0.00    -0.225 NA
ATOM     19  C   UNL d   1      27.740 -14.927  -4.551  0.00  0.00     0.116 A 
ATOM     20  S   UNL d   1      28.983 -15.952  -5.042  0.00  0.00    -0.063 SA
ATOM     21  C   UNL d   1      27.544 -13.878  -5.414  0.00  0.00     0.075 A 
ATOM     22  C   UNL d   1      29.424 -14.903  -6.331  0.00  0.00     0.089 A 
ATOM     23  C   UNL d   1      28.550 -13.821  -6.436  0.00  0.00    -0.020 A 
ATOM     24  C   UNL d   1      28.620 -12.703  -7.421  0.00  0.00     0.051 C 
ATOM     25  C   UNL d   1      26.419 -13.000  -5.145  0.00  0.00     0.260 C 
ATOM     26  O   UNL d   1      26.170 -11.967  -5.751  0.00  0.00    -0.267 OA
ATOM     27  N   UNL d   1      25.611 -13.432  -4.121  0.00  0.00    -0.309 N 
ATOM     28  H   UNL d   1      24.838 -12.816  -3.898  0.00  0.00     0.170 HD
BRANCH  22  29
ATOM     29  C   UNL d   1      30.613 -15.288  -7.070  0.00  0.00     0.301 C 
ATOM     30  O   UNL d   1      31.623 -14.605  -7.171  0.00  0.00    -0.259 OA
BRANCH  29  31
ATOM     31  O   UNL d   1      30.456 -16.514  -7.644  0.00  0.00    -0.312 OA
BRANCH  31  32
ATOM     32  C   UNL d   1      31.344 -17.555  -7.205  0.00  0.00     0.124 C 
ATOM     33  C   UNL d   1      32.487 -17.719  -8.197  0.00  0.00     0.040 C 
ATOM     34  C   UNL d   1      31.923 -17.159  -5.845  0.00  0.00     0.040 C 
ENDBRANCH  31  32
ENDBRANCH  29  31
ENDBRANCH  22  29
ENDBRANCH  16  17
ENDBRANCH   8  16
ENDBRANCH   7   8
ENDBRANCH   6   7
BRANCH   6  35
ATOM     35  O   UNL d   1      27.929 -16.774  -1.131  0.00  0.00    -0.392 OA
ATOM     36  H   UNL d   1      28.118 -16.122  -1.839  0.00  0.00     0.210 HD
ENDBRANCH   6  35
ENDBRANCH   5   6
ENDBRANCH   4   5
ENDBRANCH   3   4
TORSDOF 12
ENDMDL
