MODEL 1
REMARK VINA RESULT:    -9.395      0.000      0.000
REMARK INTER + INTRA:         -16.120
REMARK INTER:                 -13.870
REMARK INTRA:                  -2.250
REMARK CONF_INDEPENDENT:        4.474
REMARK UNBOUND:                -2.250
REMARK  15 active torsions:
REMARK  status: ('A' for Active; 'I' for Inactive)
REMARK    1  A    between atoms: C_2  and  O_5 
REMARK    2  A    between atoms: O_5  and  C_6 
REMARK       I    between atoms: C_6  and  N_8 
REMARK    3  A    between atoms: N_8  and  C_9 
REMARK    4  A    between atoms: C_9  and  C_10 
REMARK    5  A    between atoms: C_10  and  C_11 
REMARK    6  A    between atoms: C_11  and  C_12 
REMARK    7  A    between atoms: C_13  and  C_12 
REMARK    8  A    between atoms: C_13  and  C_25 
REMARK    9  A    between atoms: C_13  and  N_14 
REMARK       I    between atoms: N_14  and  C_15 
REMARK   10  A    between atoms: C_15  and  O_17 
REMARK   11  A    between atoms: O_17  and  C_18 
REMARK   12  A    between atoms: C_18  and  C_19 
REMARK   13  A    between atoms: C_25  and  O_27 
REMARK   14  A    between atoms: O_27  and  C_28 
REMARK   15  A    between atoms: C_28  and  C_29 
ROOT
ATOM      1  C   UNL d   1      25.217 -17.408  -1.395  0.00  0.00     0.186 C 
ENDROOT
BRANCH   1   2
ATOM      2  C   UNL d   1      26.128 -17.598  -0.157  0.00  0.00     0.282 C 
ATOM      3  O   UNL d   1      26.706 -18.645   0.116  0.00  0.00    -0.263 OA
BRANCH   2   4
ATOM      4  O   UNL d   1      26.205 -16.455   0.598  0.00  0.00    -0.315 OA
BRANCH   4   5
ATOM      5  C   UNL d   1      27.486 -15.799   0.544  0.00  0.00     0.217 C 
BRANCH   5   6
ATOM      6  C   UNL d   1      27.465 -14.479   1.289  0.00  0.00    -0.034 A 
ATOM      7  C   UNL d   1      27.847 -14.399   2.639  0.00  0.00     0.009 A 
ATOM      8  C   UNL d   1      27.675 -13.212   3.361  0.00  0.00     0.001 A 
ATOM      9  C   UNL d   1      27.197 -12.070   2.723  0.00  0.00     0.000 A 
ATOM     10  C   UNL d   1      26.841 -12.127   1.377  0.00  0.00     0.001 A 
ATOM     11  C   UNL d   1      26.964 -13.326   0.669  0.00  0.00     0.009 A 
ENDBRANCH   5   6
ENDBRANCH   4   5
ENDBRANCH   2   4
ENDBRANCH   1   2
BRANCH   1  12
ATOM     12  N   UNL d   1      23.801 -17.207  -1.018  0.00  0.00    -0.323 N 
ATOM     13  C   UNL d   1      22.854 -18.194  -1.113  0.00  0.00     0.361 C 
ATOM     14  O   UNL d   1      23.085 -19.324  -1.531  0.00  0.00    -0.238 OA
ATOM     15  H   UNL d   1      23.521 -16.320  -0.616  0.00  0.00     0.165 HD
BRANCH  13  16
ATOM     16  O   UNL d   1      21.629 -17.768  -0.700  0.00  0.00    -0.299 OA
BRANCH  16  17
ATOM     17  C   UNL d   1      20.521 -18.580  -1.169  0.00  0.00     0.219 C 
BRANCH  17  18
ATOM     18  C   UNL d   1      19.942 -19.422  -0.044  0.00  0.00    -0.034 A 
ATOM     19  C   UNL d   1      18.849 -20.269  -0.262  0.00  0.00     0.009 A 
ATOM     20  C   UNL d   1      18.229 -20.920   0.808  0.00  0.00     0.001 A 
ATOM     21  C   UNL d   1      18.764 -20.830   2.091  0.00  0.00     0.000 A 
ATOM     22  C   UNL d   1      19.904 -20.063   2.311  0.00  0.00     0.001 A 
ATOM     23  C   UNL d   1      20.493 -19.366   1.249  0.00  0.00     0.009 A 
ENDBRANCH  17  18
ENDBRANCH  16  17
ENDBRANCH  13  16
ENDBRANCH   1  12
BRANCH   1  24
ATOM     24  C   UNL d   1      25.712 -16.229  -2.254  0.00  0.00     0.035 C 
BRANCH  24  25
ATOM     25  C   UNL d   1      24.630 -15.150  -2.389  0.00  0.00     0.004 C 
BRANCH  25  26
ATOM     26  C   UNL d   1      25.232 -13.788  -2.756  0.00  0.00     0.020 C 
BRANCH  26  27
ATOM     27  C   UNL d   1      25.159 -13.541  -4.258  0.00  0.00     0.125 C 
BRANCH  27  28
ATOM     28  N   UNL d   1      26.413 -13.780  -4.953  0.00  0.00    -0.337 N 
ATOM     29  C   UNL d   1      26.672 -15.029  -5.457  0.00  0.00     0.361 C 
ATOM     30  O   UNL d   1      25.875 -15.953  -5.335  0.00  0.00    -0.238 OA
ATOM     31  H   UNL d   1      27.099 -13.049  -5.082  0.00  0.00     0.164 HD
BRANCH  29  32
ATOM     32  O   UNL d   1      27.883 -15.114  -6.087  0.00  0.00    -0.294 OA
BRANCH  32  33
ATOM     33  C   UNL d   1      29.067 -15.377  -5.264  0.00  0.00     0.061 C 
ATOM     34  C   UNL d   1      29.910 -14.087  -5.155  0.00  0.00     0.046 C 
ATOM     35  C   UNL d   1      29.961 -16.446  -5.909  0.00  0.00     0.046 C 
ATOM     36  C   UNL d   1      28.667 -15.775  -3.836  0.00  0.00     0.046 C 
ENDBRANCH  32  33
ENDBRANCH  29  32
ENDBRANCH  27  28
ENDBRANCH  26  27
ENDBRANCH  25  26
ENDBRANCH  24  25
ENDBRANCH   1  24
TORSDOF 15
ENDMDL
MODEL 2
REMARK VINA RESULT:    -9.037      0.976      6.825
REMARK INTER + INTRA:         -16.211
REMARK INTER:                 -13.511
REMARK INTRA:                  -2.700
REMARK CONF_INDEPENDENT:        4.474
REMARK UNBOUND:                -2.700
REMARK  15 active torsions:
REMARK  status: ('A' for Active; 'I' for Inactive)
REMARK    1  A    between atoms: C_2  and  O_5 
REMARK    2  A    between atoms: O_5  and  C_6 
REMARK       I    between atoms: C_6  and  N_8 
REMARK    3  A    between atoms: N_8  and  C_9 
REMARK    4  A    between atoms: C_9  and  C_10 
REMARK    5  A    between atoms: C_10  and  C_11 
REMARK    6  A    between atoms: C_11  and  C_12 
REMARK    7  A    between atoms: C_13  and  C_12 
REMARK    8  A    between atoms: C_13  and  C_25 
REMARK    9  A    between atoms: C_13  and  N_14 
REMARK       I    between atoms: N_14  and  C_15 
REMARK   10  A    between atoms: C_15  and  O_17 
REMARK   11  A    between atoms: O_17  and  C_18 
REMARK   12  A    between atoms: C_18  and  C_19 
REMARK   13  A    between atoms: C_25  and  O_27 
REMARK   14  A    between atoms: O_27  and  C_28 
REMARK   15  A    between atoms: C_28  and  C_29 
ROOT
ATOM      1  C   UNL d   1      24.515 -16.878  -0.536  0.00  0.00     0.186 C 
ENDROOT
BRANCH   1   2
ATOM      2  C   UNL d   1      23.609 -18.123  -0.372  0.00  0.00     0.282 C 
ATOM      3  O   UNL d   1      24.016 -19.278  -0.410  0.00  0.00    -0.263 OA
BRANCH   2   4
ATOM      4  O   UNL d   1      22.295 -17.774  -0.184  0.00  0.00    -0.315 OA
BRANCH   4   5
ATOM      5  C   UNL d   1      21.361 -18.573  -0.934  0.00  0.00     0.217 C 
BRANCH   5   6
ATOM      6  C   UNL d   1      20.457 -19.376  -0.019  0.00  0.00    -0.034 A 
ATOM      7  C   UNL d   1      19.348 -20.076  -0.522  0.00  0.00     0.009 A 
ATOM      8  C   UNL d   1      18.431 -20.681   0.346  0.00  0.00     0.001 A 
ATOM      9  C   UNL d   1      18.655 -20.665   1.720  0.00  0.00     0.000 A 
ATOM     10  C   UNL d   1      19.768 -20.000   2.232  0.00  0.00     0.001 A 
ATOM     11  C   UNL d   1      20.655 -19.350   1.369  0.00  0.00     0.009 A 
ENDBRANCH   5   6
ENDBRANCH   4   5
ENDBRANCH   2   4
ENDBRANCH   1   2
BRANCH   1  12
ATOM     12  N   UNL d   1      25.915 -17.245  -0.842  0.00  0.00    -0.323 N 
ATOM     13  C   UNL d   1      26.770 -17.774   0.089  0.00  0.00     0.361 C 
ATOM     14  O   UNL d   1      26.465 -17.977   1.260  0.00  0.00    -0.238 OA
ATOM     15  H   UNL d   1      26.248 -17.158  -1.795  0.00  0.00     0.165 HD
BRANCH  13  16
ATOM     16  O   UNL d   1      27.999 -18.035  -0.435  0.00  0.00    -0.299 OA
BRANCH  16  17
ATOM     17  C   UNL d   1      29.003 -17.026  -0.147  0.00  0.00     0.219 C 
BRANCH  17  18
ATOM     18  C   UNL d   1      28.363 -15.673   0.111  0.00  0.00    -0.034 A 
ATOM     19  C   UNL d   1      28.069 -15.248   1.412  0.00  0.00     0.009 A 
ATOM     20  C   UNL d   1      27.343 -14.074   1.630  0.00  0.00     0.001 A 
ATOM     21  C   UNL d   1      27.004 -13.247   0.561  0.00  0.00     0.000 A 
ATOM     22  C   UNL d   1      27.367 -13.610  -0.733  0.00  0.00     0.001 A 
ATOM     23  C   UNL d   1      28.046 -14.814  -0.957  0.00  0.00     0.009 A 
ENDBRANCH  17  18
ENDBRANCH  16  17
ENDBRANCH  13  16
ENDBRANCH   1  12
BRANCH   1  24
ATOM     24  C   UNL d   1      23.958 -15.944  -1.628  0.00  0.00     0.035 C 
BRANCH  24  25
ATOM     25  C   UNL d   1      25.065 -15.497  -2.590  0.00  0.00     0.004 C 
BRANCH  25  26
ATOM     26  C   UNL d   1      25.077 -13.974  -2.769  0.00  0.00     0.020 C 
BRANCH  26  27
ATOM     27  C   UNL d   1      25.088 -13.594  -4.246  0.00  0.00     0.125 C 
BRANCH  27  28
ATOM     28  N   UNL d   1      26.360 -13.841  -4.906  0.00  0.00    -0.337 N 
ATOM     29  C   UNL d   1      26.603 -15.077  -5.446  0.00  0.00     0.361 C 
ATOM     30  O   UNL d   1      25.778 -15.983  -5.387  0.00  0.00    -0.238 OA
ATOM     31  H   UNL d   1      27.068 -13.125  -4.983  0.00  0.00     0.164 HD
BRANCH  29  32
ATOM     32  O   UNL d   1      27.834 -15.173  -6.038  0.00  0.00    -0.294 OA
BRANCH  32  33
ATOM     33  C   UNL d   1      28.998 -15.363  -5.169  0.00  0.00     0.061 C 
ATOM     34  C   UNL d   1      29.964 -16.375  -5.824  0.00  0.00     0.046 C 
ATOM     35  C   UNL d   1      28.585 -15.948  -3.811  0.00  0.00     0.046 C 
ATOM     36  C   UNL d   1      29.775 -14.049  -4.995  0.00  0.00     0.046 C 
ENDBRANCH  32  33
ENDBRANCH  29  32
ENDBRANCH  27  28
ENDBRANCH  26  27
ENDBRANCH  25  26
ENDBRANCH  24  25
ENDBRANCH   1  24
TORSDOF 15
ENDMDL
MODEL 3
REMARK VINA RESULT:    -8.917      2.274      8.875
REMARK INTER + INTRA:         -16.044
REMARK INTER:                 -13.391
REMARK INTRA:                  -2.653
REMARK CONF_INDEPENDENT:        4.474
REMARK UNBOUND:                -2.653
REMARK  15 active torsions:
REMARK  status: ('A' for Active; 'I' for Inactive)
REMARK    1  A    between atoms: C_2  and  O_5 
REMARK    2  A    between atoms: O_5  and  C_6 
REMARK       I    between atoms: C_6  and  N_8 
REMARK    3  A    between atoms: N_8  and  C_9 
REMARK    4  A    between atoms: C_9  and  C_10 
REMARK    5  A    between atoms: C_10  and  C_11 
REMARK    6  A    between atoms: C_11  and  C_12 
REMARK    7  A    between atoms: C_13  and  C_12 
REMARK    8  A    between atoms: C_13  and  C_25 
REMARK    9  A    between atoms: C_13  and  N_14 
REMARK       I    between atoms: N_14  and  C_15 
REMARK   10  A    between atoms: C_15  and  O_17 
REMARK   11  A    between atoms: O_17  and  C_18 
REMARK   12  A    between atoms: C_18  and  C_19 
REMARK   13  A    between atoms: C_25  and  O_27 
REMARK   14  A    between atoms: O_27  and  C_28 
REMARK   15  A    between atoms: C_28  and  C_29 
ROOT
ATOM      1  C   UNL d   1      25.484 -15.426  -1.839  0.00  0.00     0.186 C 
ENDROOT
BRANCH   1   2
ATOM      2  C   UNL d   1      26.394 -15.329  -0.589  0.00  0.00     0.282 C 
ATOM      3  O   UNL d   1      26.161 -14.610   0.375  0.00  0.00    -0.263 OA
BRANCH   2   4
ATOM      4  O   UNL d   1      27.494 -16.142  -0.697  0.00  0.00    -0.315 OA
BRANCH   4   5
ATOM      5  C   UNL d   1      28.611 -15.733   0.113  0.00  0.00     0.217 C 
BRANCH   5   6
ATOM      6  C   UNL d   1      29.868 -16.502  -0.243  0.00  0.00    -0.034 A 
ATOM      7  C   UNL d   1      29.800 -17.753  -0.878  0.00  0.00     0.009 A 
ATOM      8  C   UNL d   1      30.954 -18.526  -1.059  0.00  0.00     0.001 A 
ATOM      9  C   UNL d   1      32.197 -18.024  -0.684  0.00  0.00     0.000 A 
ATOM     10  C   UNL d   1      32.283 -16.771  -0.079  0.00  0.00     0.001 A 
ATOM     11  C   UNL d   1      31.125 -16.021   0.150  0.00  0.00     0.009 A 
ENDBRANCH   5   6
ENDBRANCH   4   5
ENDBRANCH   2   4
ENDBRANCH   1   2
BRANCH   1  12
ATOM     12  N   UNL d   1      26.258 -15.693  -3.071  0.00  0.00    -0.323 N 
ATOM     13  C   UNL d   1      25.900 -15.202  -4.300  0.00  0.00     0.361 C 
ATOM     14  O   UNL d   1      24.904 -14.512  -4.496  0.00  0.00    -0.238 OA
ATOM     15  H   UNL d   1      27.124 -16.215  -3.004  0.00  0.00     0.165 HD
BRANCH  13  16
ATOM     16  O   UNL d   1      26.772 -15.578  -5.275  0.00  0.00    -0.299 OA
BRANCH  16  17
ATOM     17  C   UNL d   1      28.000 -14.805  -5.315  0.00  0.00     0.219 C 
BRANCH  17  18
ATOM     18  C   UNL d   1      29.213 -15.709  -5.451  0.00  0.00    -0.034 A 
ATOM     19  C   UNL d   1      29.871 -15.858  -6.678  0.00  0.00     0.009 A 
ATOM     20  C   UNL d   1      30.887 -16.806  -6.830  0.00  0.00     0.001 A 
ATOM     21  C   UNL d   1      31.342 -17.532  -5.732  0.00  0.00     0.000 A 
ATOM     22  C   UNL d   1      30.759 -17.332  -4.483  0.00  0.00     0.001 A 
ATOM     23  C   UNL d   1      29.704 -16.423  -4.342  0.00  0.00     0.009 A 
ENDBRANCH  17  18
ENDBRANCH  16  17
ENDBRANCH  13  16
ENDBRANCH   1  12
BRANCH   1  24
ATOM     24  C   UNL d   1      24.407 -16.510  -1.640  0.00  0.00     0.035 C 
BRANCH  24  25
ATOM     25  C   UNL d   1      24.959 -17.697  -0.842  0.00  0.00     0.004 C 
BRANCH  25  26
ATOM     26  C   UNL d   1      23.840 -18.644  -0.391  0.00  0.00     0.020 C 
BRANCH  26  27
ATOM     27  C   UNL d   1      22.588 -18.462  -1.243  0.00  0.00     0.125 C 
BRANCH  27  28
ATOM     28  N   UNL d   1      21.350 -18.507  -0.483  0.00  0.00    -0.337 N 
ATOM     29  C   UNL d   1      20.264 -19.156  -1.012  0.00  0.00     0.361 C 
ATOM     30  O   UNL d   1      20.307 -19.699  -2.110  0.00  0.00    -0.238 OA
ATOM     31  H   UNL d   1      21.268 -18.077   0.428  0.00  0.00     0.164 HD
BRANCH  29  32
ATOM     32  O   UNL d   1      19.168 -19.124  -0.193  0.00  0.00    -0.294 OA
BRANCH  32  33
ATOM     33  C   UNL d   1      18.973 -20.243   0.733  0.00  0.00     0.061 C 
ATOM     34  C   UNL d   1      18.503 -19.697   2.100  0.00  0.00     0.046 C 
ATOM     35  C   UNL d   1      20.289 -20.995   0.976  0.00  0.00     0.046 C 
ATOM     36  C   UNL d   1      17.876 -21.192   0.227  0.00  0.00     0.046 C 
ENDBRANCH  32  33
ENDBRANCH  29  32
ENDBRANCH  27  28
ENDBRANCH  26  27
ENDBRANCH  25  26
ENDBRANCH  24  25
ENDBRANCH   1  24
TORSDOF 15
ENDMDL
MODEL 4
REMARK VINA RESULT:    -8.028      2.201      3.653
REMARK INTER + INTRA:         -16.312
REMARK INTER:                 -12.503
REMARK INTRA:                  -3.809
REMARK CONF_INDEPENDENT:        4.474
REMARK UNBOUND:                -3.809
REMARK  15 active torsions:
REMARK  status: ('A' for Active; 'I' for Inactive)
REMARK    1  A    between atoms: C_2  and  O_5 
REMARK    2  A    between atoms: O_5  and  C_6 
REMARK       I    between atoms: C_6  and  N_8 
REMARK    3  A    between atoms: N_8  and  C_9 
REMARK    4  A    between atoms: C_9  and  C_10 
REMARK    5  A    between atoms: C_10  and  C_11 
REMARK    6  A    between atoms: C_11  and  C_12 
REMARK    7  A    between atoms: C_13  and  C_12 
REMARK    8  A    between atoms: C_13  and  C_25 
REMARK    9  A    between atoms: C_13  and  N_14 
REMARK       I    between atoms: N_14  and  C_15 
REMARK   10  A    between atoms: C_15  and  O_17 
REMARK   11  A    between atoms: O_17  and  C_18 
REMARK   12  A    between atoms: C_18  and  C_19 
REMARK   13  A    between atoms: C_25  and  O_27 
REMARK   14  A    between atoms: O_27  and  C_28 
REMARK   15  A    between atoms: C_28  and  C_29 
ROOT
ATOM      1  C   UNL d   1      24.427 -16.469  -0.521  0.00  0.00     0.186 C 
ENDROOT
BRANCH   1   2
ATOM      2  C   UNL d   1      25.040 -16.269  -1.929  0.00  0.00     0.282 C 
ATOM      3  O   UNL d   1      25.151 -17.161  -2.762  0.00  0.00    -0.263 OA
BRANCH   2   4
ATOM      4  O   UNL d   1      25.448 -14.974  -2.126  0.00  0.00    -0.315 OA
BRANCH   4   5
ATOM      5  C   UNL d   1      24.910 -14.362  -3.313  0.00  0.00     0.217 C 
BRANCH   5   6
ATOM      6  C   UNL d   1      25.625 -13.066  -3.642  0.00  0.00    -0.034 A 
ATOM      7  C   UNL d   1      26.295 -12.331  -2.650  0.00  0.00     0.009 A 
ATOM      8  C   UNL d   1      26.814 -11.061  -2.929  0.00  0.00     0.001 A 
ATOM      9  C   UNL d   1      26.744 -10.547  -4.221  0.00  0.00     0.000 A 
ATOM     10  C   UNL d   1      26.108 -11.278  -5.223  0.00  0.00     0.001 A 
ATOM     11  C   UNL d   1      25.543 -12.523  -4.932  0.00  0.00     0.009 A 
ENDBRANCH   5   6
ENDBRANCH   4   5
ENDBRANCH   2   4
ENDBRANCH   1   2
BRANCH   1  12
ATOM     12  N   UNL d   1      22.963 -16.675  -0.575  0.00  0.00    -0.323 N 
ATOM     13  C   UNL d   1      22.389 -17.847  -0.994  0.00  0.00     0.361 C 
ATOM     14  O   UNL d   1      23.027 -18.823  -1.376  0.00  0.00    -0.238 OA
ATOM     15  H   UNL d   1      22.351 -15.943  -0.236  0.00  0.00     0.165 HD
BRANCH  13  16
ATOM     16  O   UNL d   1      21.029 -17.795  -0.948  0.00  0.00    -0.299 OA
BRANCH  16  17
ATOM     17  C   UNL d   1      20.368 -19.048  -1.264  0.00  0.00     0.219 C 
BRANCH  17  18
ATOM     18  C   UNL d   1      19.837 -19.720  -0.010  0.00  0.00    -0.034 A 
ATOM     19  C   UNL d   1      18.698 -20.534  -0.051  0.00  0.00     0.009 A 
ATOM     20  C   UNL d   1      18.129 -21.022   1.129  0.00  0.00     0.001 A 
ATOM     21  C   UNL d   1      18.756 -20.805   2.354  0.00  0.00     0.000 A 
ATOM     22  C   UNL d   1      19.939 -20.074   2.404  0.00  0.00     0.001 A 
ATOM     23  C   UNL d   1      20.479 -19.537   1.229  0.00  0.00     0.009 A 
ENDBRANCH  17  18
ENDBRANCH  16  17
ENDBRANCH  13  16
ENDBRANCH   1  12
BRANCH   1  24
ATOM     24  C   UNL d   1      25.105 -17.650   0.201  0.00  0.00     0.035 C 
BRANCH  24  25
ATOM     25  C   UNL d   1      26.546 -17.841  -0.286  0.00  0.00     0.004 C 
BRANCH  25  26
ATOM     26  C   UNL d   1      27.481 -16.763   0.277  0.00  0.00     0.020 C 
BRANCH  26  27
ATOM     27  C   UNL d   1      28.589 -16.424  -0.713  0.00  0.00     0.125 C 
BRANCH  27  28
ATOM     28  N   UNL d   1      28.142 -16.363  -2.095  0.00  0.00    -0.337 N 
ATOM     29  C   UNL d   1      29.075 -16.366  -3.101  0.00  0.00     0.361 C 
ATOM     30  O   UNL d   1      30.277 -16.417  -2.866  0.00  0.00    -0.238 OA
ATOM     31  H   UNL d   1      27.162 -16.324  -2.337  0.00  0.00     0.164 HD
BRANCH  29  32
ATOM     32  O   UNL d   1      28.519 -16.308  -4.350  0.00  0.00    -0.294 OA
BRANCH  32  33
ATOM     33  C   UNL d   1      28.912 -15.198  -5.223  0.00  0.00     0.061 C 
ATOM     34  C   UNL d   1      29.275 -13.971  -4.357  0.00  0.00     0.046 C 
ATOM     35  C   UNL d   1      27.753 -14.778  -6.138  0.00  0.00     0.046 C 
ATOM     36  C   UNL d   1      30.163 -15.557  -6.040  0.00  0.00     0.046 C 
ENDBRANCH  32  33
ENDBRANCH  29  32
ENDBRANCH  27  28
ENDBRANCH  26  27
ENDBRANCH  25  26
ENDBRANCH  24  25
ENDBRANCH   1  24
TORSDOF 15
ENDMDL
MODEL 5
REMARK VINA RESULT:    -8.005      2.683      7.088
REMARK INTER + INTRA:         -15.795
REMARK INTER:                 -12.480
REMARK INTRA:                  -3.315
REMARK CONF_INDEPENDENT:        4.474
REMARK UNBOUND:                -3.315
REMARK  15 active torsions:
REMARK  status: ('A' for Active; 'I' for Inactive)
REMARK    1  A    between atoms: C_2  and  O_5 
REMARK    2  A    between atoms: O_5  and  C_6 
REMARK       I    between atoms: C_6  and  N_8 
REMARK    3  A    between atoms: N_8  and  C_9 
REMARK    4  A    between atoms: C_9  and  C_10 
REMARK    5  A    between atoms: C_10  and  C_11 
REMARK    6  A    between atoms: C_11  and  C_12 
REMARK    7  A    between atoms: C_13  and  C_12 
REMARK    8  A    between atoms: C_13  and  C_25 
REMARK    9  A    between atoms: C_13  and  N_14 
REMARK       I    between atoms: N_14  and  C_15 
REMARK   10  A    between atoms: C_15  and  O_17 
REMARK   11  A    between atoms: O_17  and  C_18 
REMARK   12  A    between atoms: C_18  and  C_19 
REMARK   13  A    between atoms: C_25  and  O_27 
REMARK   14  A    between atoms: O_27  and  C_28 
REMARK   15  A    between atoms: C_28  and  C_29 
ROOT
ATOM      1  C   UNL d   1      28.494 -15.950  -0.692  0.00  0.00     0.186 C 
ENDROOT
BRANCH   1   2
ATOM      2  C   UNL d   1      27.313 -16.804  -1.218  0.00  0.00     0.282 C 
ATOM      3  O   UNL d   1      26.568 -16.458  -2.128  0.00  0.00    -0.263 OA
BRANCH   2   4
ATOM      4  O   UNL d   1      27.201 -17.990  -0.537  0.00  0.00    -0.315 OA
BRANCH   4   5
ATOM      5  C   UNL d   1      26.307 -17.939   0.591  0.00  0.00     0.217 C 
BRANCH   5   6
ATOM      6  C   UNL d   1      24.862 -17.812   0.149  0.00  0.00    -0.034 A 
ATOM      7  C   UNL d   1      24.066 -18.949  -0.072  0.00  0.00     0.009 A 
ATOM      8  C   UNL d   1      22.788 -18.828  -0.630  0.00  0.00     0.001 A 
ATOM      9  C   UNL d   1      22.258 -17.568  -0.896  0.00  0.00     0.000 A 
ATOM     10  C   UNL d   1      23.025 -16.430  -0.654  0.00  0.00     0.001 A 
ATOM     11  C   UNL d   1      24.322 -16.553  -0.146  0.00  0.00     0.009 A 
ENDBRANCH   5   6
ENDBRANCH   4   5
ENDBRANCH   2   4
ENDBRANCH   1   2
BRANCH   1  12
ATOM     12  N   UNL d   1      28.325 -15.582   0.730  0.00  0.00    -0.323 N 
ATOM     13  C   UNL d   1      27.368 -14.704   1.167  0.00  0.00     0.361 C 
ATOM     14  O   UNL d   1      26.577 -14.130   0.425  0.00  0.00    -0.238 OA
ATOM     15  H   UNL d   1      28.901 -16.039   1.428  0.00  0.00     0.165 HD
BRANCH  13  16
ATOM     16  O   UNL d   1      27.408 -14.534   2.518  0.00  0.00    -0.299 OA
BRANCH  16  17
ATOM     17  C   UNL d   1      28.737 -14.309   3.057  0.00  0.00     0.219 C 
BRANCH  17  18
ATOM     18  C   UNL d   1      28.676 -13.934   4.528  0.00  0.00    -0.034 A 
ATOM     19  C   UNL d   1      27.789 -12.953   4.989  0.00  0.00     0.009 A 
ATOM     20  C   UNL d   1      27.848 -12.506   6.312  0.00  0.00     0.001 A 
ATOM     21  C   UNL d   1      28.708 -13.116   7.222  0.00  0.00     0.000 A 
ATOM     22  C   UNL d   1      29.534 -14.154   6.803  0.00  0.00     0.001 A 
ATOM     23  C   UNL d   1      29.516 -14.564   5.464  0.00  0.00     0.009 A 
ENDBRANCH  17  18
ENDBRANCH  16  17
ENDBRANCH  13  16
ENDBRANCH   1  12
BRANCH   1  24
ATOM     24  C   UNL d   1      29.829 -16.692  -0.896  0.00  0.00     0.035 C 
BRANCH  24  25
ATOM     25  C   UNL d   1      30.014 -17.104  -2.361  0.00  0.00     0.004 C 
BRANCH  25  26
ATOM     26  C   UNL d   1      30.410 -15.911  -3.239  0.00  0.00     0.020 C 
BRANCH  26  27
ATOM     27  C   UNL d   1      29.529 -15.826  -4.481  0.00  0.00     0.125 C 
BRANCH  27  28
ATOM     28  N   UNL d   1      28.121 -15.615  -4.188  0.00  0.00    -0.337 N 
ATOM     29  C   UNL d   1      27.284 -15.201  -5.193  0.00  0.00     0.361 C 
ATOM     30  O   UNL d   1      27.691 -15.001  -6.332  0.00  0.00    -0.238 OA
ATOM     31  H   UNL d   1      27.739 -15.772  -3.266  0.00  0.00     0.164 HD
BRANCH  29  32
ATOM     32  O   UNL d   1      25.988 -15.045  -4.782  0.00  0.00    -0.294 OA
BRANCH  32  33
ATOM     33  C   UNL d   1      25.628 -13.791  -4.114  0.00  0.00     0.061 C 
ATOM     34  C   UNL d   1      26.027 -12.601  -5.014  0.00  0.00     0.046 C 
ATOM     35  C   UNL d   1      26.389 -13.632  -2.791  0.00  0.00     0.046 C 
ATOM     36  C   UNL d   1      24.110 -13.700  -3.896  0.00  0.00     0.046 C 
ENDBRANCH  32  33
ENDBRANCH  29  32
ENDBRANCH  27  28
ENDBRANCH  26  27
ENDBRANCH  25  26
ENDBRANCH  24  25
ENDBRANCH   1  24
TORSDOF 15
ENDMDL
MODEL 6
REMARK VINA RESULT:    -7.215      2.760      7.628
REMARK INTER + INTRA:         -15.854
REMARK INTER:                 -11.690
REMARK INTRA:                  -4.164
REMARK CONF_INDEPENDENT:        4.474
REMARK UNBOUND:                -4.164
REMARK  15 active torsions:
REMARK  status: ('A' for Active; 'I' for Inactive)
REMARK    1  A    between atoms: C_2  and  O_5 
REMARK    2  A    between atoms: O_5  and  C_6 
REMARK       I    between atoms: C_6  and  N_8 
REMARK    3  A    between atoms: N_8  and  C_9 
REMARK    4  A    between atoms: C_9  and  C_10 
REMARK    5  A    between atoms: C_10  and  C_11 
REMARK    6  A    between atoms: C_11  and  C_12 
REMARK    7  A    between atoms: C_13  and  C_12 
REMARK    8  A    between atoms: C_13  and  C_25 
REMARK    9  A    between atoms: C_13  and  N_14 
REMARK       I    between atoms: N_14  and  C_15 
REMARK   10  A    between atoms: C_15  and  O_17 
REMARK   11  A    between atoms: O_17  and  C_18 
REMARK   12  A    between atoms: C_18  and  C_19 
REMARK   13  A    between atoms: C_25  and  O_27 
REMARK   14  A    between atoms: O_27  and  C_28 
REMARK   15  A    between atoms: C_28  and  C_29 
ROOT
ATOM      1  C   UNL d   1      28.730 -16.387  -0.566  0.00  0.00     0.186 C 
ENDROOT
BRANCH   1   2
ATOM      2  C   UNL d   1      27.532 -16.988   0.209  0.00  0.00     0.282 C 
ATOM      3  O   UNL d   1      27.398 -16.921   1.426  0.00  0.00    -0.263 OA
BRANCH   2   4
ATOM      4  O   UNL d   1      26.643 -17.609  -0.631  0.00  0.00    -0.315 OA
BRANCH   4   5
ATOM      5  C   UNL d   1      25.795 -18.575   0.018  0.00  0.00     0.217 C 
BRANCH   5   6
ATOM      6  C   UNL d   1      24.327 -18.276  -0.221  0.00  0.00    -0.034 A 
ATOM      7  C   UNL d   1      23.414 -19.301  -0.519  0.00  0.00     0.009 A 
ATOM      8  C   UNL d   1      22.099 -19.000  -0.894  0.00  0.00     0.001 A 
ATOM      9  C   UNL d   1      21.659 -17.679  -0.895  0.00  0.00     0.000 A 
ATOM     10  C   UNL d   1      22.546 -16.653  -0.573  0.00  0.00     0.001 A 
ATOM     11  C   UNL d   1      23.873 -16.950  -0.250  0.00  0.00     0.009 A 
ENDBRANCH   5   6
ENDBRANCH   4   5
ENDBRANCH   2   4
ENDBRANCH   1   2
BRANCH   1  12
ATOM     12  N   UNL d   1      28.743 -16.807  -1.984  0.00  0.00    -0.323 N 
ATOM     13  C   UNL d   1      29.757 -16.488  -2.849  0.00  0.00     0.361 C 
ATOM     14  O   UNL d   1      30.735 -15.816  -2.537  0.00  0.00    -0.238 OA
ATOM     15  H   UNL d   1      28.000 -17.405  -2.326  0.00  0.00     0.165 HD
BRANCH  13  16
ATOM     16  O   UNL d   1      29.544 -16.993  -4.095  0.00  0.00    -0.299 OA
BRANCH  16  17
ATOM     17  C   UNL d   1      30.644 -16.793  -5.021  0.00  0.00     0.219 C 
BRANCH  17  18
ATOM     18  C   UNL d   1      30.699 -17.904  -6.057  0.00  0.00    -0.034 A 
ATOM     19  C   UNL d   1      30.406 -19.229  -5.713  0.00  0.00     0.009 A 
ATOM     20  C   UNL d   1      30.607 -20.263  -6.632  0.00  0.00     0.001 A 
ATOM     21  C   UNL d   1      30.988 -19.977  -7.941  0.00  0.00     0.000 A 
ATOM     22  C   UNL d   1      31.196 -18.656  -8.325  0.00  0.00     0.001 A 
ATOM     23  C   UNL d   1      31.049 -17.624  -7.390  0.00  0.00     0.009 A 
ENDBRANCH  17  18
ENDBRANCH  16  17
ENDBRANCH  13  16
ENDBRANCH   1  12
BRANCH   1  24
ATOM     24  C   UNL d   1      28.722 -14.849  -0.465  0.00  0.00     0.035 C 
BRANCH  24  25
ATOM     25  C   UNL d   1      27.873 -14.227  -1.580  0.00  0.00     0.004 C 
BRANCH  25  26
ATOM     26  C   UNL d   1      26.381 -14.528  -1.391  0.00  0.00     0.020 C 
BRANCH  26  27
ATOM     27  C   UNL d   1      25.878 -15.503  -2.449  0.00  0.00     0.125 C 
BRANCH  27  28
ATOM     28  N   UNL d   1      26.725 -15.577  -3.628  0.00  0.00    -0.337 N 
ATOM     29  C   UNL d   1      26.264 -15.068  -4.816  0.00  0.00     0.361 C 
ATOM     30  O   UNL d   1      25.155 -14.553  -4.911  0.00  0.00    -0.238 OA
ATOM     31  H   UNL d   1      27.648 -15.987  -3.598  0.00  0.00     0.164 HD
BRANCH  29  32
ATOM     32  O   UNL d   1      27.160 -15.199  -5.841  0.00  0.00    -0.294 OA
BRANCH  32  33
ATOM     33  C   UNL d   1      28.168 -14.148  -6.009  0.00  0.00     0.061 C 
ATOM     34  C   UNL d   1      28.900 -13.925  -4.667  0.00  0.00     0.046 C 
ATOM     35  C   UNL d   1      27.515 -12.813  -6.394  0.00  0.00     0.046 C 
ATOM     36  C   UNL d   1      29.231 -14.564  -7.037  0.00  0.00     0.046 C 
ENDBRANCH  32  33
ENDBRANCH  29  32
ENDBRANCH  27  28
ENDBRANCH  26  27
ENDBRANCH  25  26
ENDBRANCH  24  25
ENDBRANCH   1  24
TORSDOF 15
ENDMDL
MODEL 7
REMARK VINA RESULT:    -6.859      2.666      7.947
REMARK INTER + INTRA:         -15.949
REMARK INTER:                 -11.334
REMARK INTRA:                  -4.616
REMARK CONF_INDEPENDENT:        4.474
REMARK UNBOUND:                -4.616
REMARK  15 active torsions:
REMARK  status: ('A' for Active; 'I' for Inactive)
REMARK    1  A    between atoms: C_2  and  O_5 
REMARK    2  A    between atoms: O_5  and  C_6 
REMARK       I    between atoms: C_6  and  N_8 
REMARK    3  A    between atoms: N_8  and  C_9 
REMARK    4  A    between atoms: C_9  and  C_10 
REMARK    5  A    between atoms: C_10  and  C_11 
REMARK    6  A    between atoms: C_11  and  C_12 
REMARK    7  A    between atoms: C_13  and  C_12 
REMARK    8  A    between atoms: C_13  and  C_25 
REMARK    9  A    between atoms: C_13  and  N_14 
REMARK       I    between atoms: N_14  and  C_15 
REMARK   10  A    between atoms: C_15  and  O_17 
REMARK   11  A    between atoms: O_17  and  C_18 
REMARK   12  A    between atoms: C_18  and  C_19 
REMARK   13  A    between atoms: C_25  and  O_27 
REMARK   14  A    between atoms: O_27  and  C_28 
REMARK   15  A    between atoms: C_28  and  C_29 
ROOT
ATOM      1  C   UNL d   1      27.977 -15.902  -2.651  0.00  0.00     0.186 C 
ENDROOT
BRANCH   1   2
ATOM      2  C   UNL d   1      27.894 -16.382  -1.180  0.00  0.00     0.282 C 
ATOM      3  O   UNL d   1      28.840 -16.851  -0.558  0.00  0.00    -0.263 OA
BRANCH   2   4
ATOM      4  O   UNL d   1      26.634 -16.222  -0.663  0.00  0.00    -0.315 OA
BRANCH   4   5
ATOM      5  C   UNL d   1      26.087 -17.413  -0.067  0.00  0.00     0.217 C 
BRANCH   5   6
ATOM      6  C   UNL d   1      24.622 -17.588  -0.419  0.00  0.00    -0.034 A 
ATOM      7  C   UNL d   1      23.811 -16.484  -0.728  0.00  0.00     0.009 A 
ATOM      8  C   UNL d   1      22.429 -16.637  -0.895  0.00  0.00     0.001 A 
ATOM      9  C   UNL d   1      21.855 -17.905  -0.837  0.00  0.00     0.000 A 
ATOM     10  C   UNL d   1      22.653 -19.013  -0.559  0.00  0.00     0.001 A 
ATOM     11  C   UNL d   1      24.024 -18.854  -0.341  0.00  0.00     0.009 A 
ENDBRANCH   5   6
ENDBRANCH   4   5
ENDBRANCH   2   4
ENDBRANCH   1   2
BRANCH   1  12
ATOM     12  N   UNL d   1      26.663 -15.460  -3.166  0.00  0.00    -0.323 N 
ATOM     13  C   UNL d   1      26.428 -15.201  -4.491  0.00  0.00     0.361 C 
ATOM     14  O   UNL d   1      27.282 -15.295  -5.368  0.00  0.00    -0.238 OA
ATOM     15  H   UNL d   1      25.880 -15.397  -2.526  0.00  0.00     0.165 HD
BRANCH  13  16
ATOM     16  O   UNL d   1      25.142 -14.816  -4.718  0.00  0.00    -0.299 OA
BRANCH  16  17
ATOM     17  C   UNL d   1      24.694 -13.705  -3.898  0.00  0.00     0.219 C 
BRANCH  17  18
ATOM     18  C   UNL d   1      25.544 -12.469  -4.137  0.00  0.00    -0.034 A 
ATOM     19  C   UNL d   1      26.080 -12.192  -5.401  0.00  0.00     0.009 A 
ATOM     20  C   UNL d   1      26.984 -11.140  -5.576  0.00  0.00     0.001 A 
ATOM     21  C   UNL d   1      27.272 -10.278  -4.520  0.00  0.00     0.000 A 
ATOM     22  C   UNL d   1      26.677 -10.484  -3.279  0.00  0.00     0.001 A 
ATOM     23  C   UNL d   1      25.815 -11.571  -3.088  0.00  0.00     0.009 A 
ENDBRANCH  17  18
ENDBRANCH  16  17
ENDBRANCH  13  16
ENDBRANCH   1  12
BRANCH   1  24
ATOM     24  C   UNL d   1      29.013 -14.771  -2.792  0.00  0.00     0.035 C 
BRANCH  24  25
ATOM     25  C   UNL d   1      29.240 -14.058  -1.454  0.00  0.00     0.004 C 
BRANCH  25  26
ATOM     26  C   UNL d   1      28.323 -12.838  -1.301  0.00  0.00     0.020 C 
BRANCH  26  27
ATOM     27  C   UNL d   1      27.100 -13.172  -0.454  0.00  0.00     0.125 C 
BRANCH  27  28
ATOM     28  N   UNL d   1      27.393 -14.013   0.694  0.00  0.00    -0.337 N 
ATOM     29  C   UNL d   1      27.080 -13.562   1.951  0.00  0.00     0.361 C 
ATOM     30  O   UNL d   1      26.560 -12.466   2.133  0.00  0.00    -0.238 OA
ATOM     31  H   UNL d   1      27.817 -14.925   0.593  0.00  0.00     0.164 HD
BRANCH  29  32
ATOM     32  O   UNL d   1      27.406 -14.451   2.938  0.00  0.00    -0.294 OA
BRANCH  32  33
ATOM     33  C   UNL d   1      28.463 -14.072   3.880  0.00  0.00     0.061 C 
ATOM     34  C   UNL d   1      28.525 -15.110   5.022  0.00  0.00     0.046 C 
ATOM     35  C   UNL d   1      28.167 -12.710   4.524  0.00  0.00     0.046 C 
ATOM     36  C   UNL d   1      29.838 -14.075   3.194  0.00  0.00     0.046 C 
ENDBRANCH  32  33
ENDBRANCH  29  32
ENDBRANCH  27  28
ENDBRANCH  26  27
ENDBRANCH  25  26
ENDBRANCH  24  25
ENDBRANCH   1  24
TORSDOF 15
ENDMDL
