MODEL 1
REMARK VINA RESULT:    -9.555      0.000      0.000
REMARK INTER + INTRA:         -14.295
REMARK INTER:                 -11.941
REMARK INTRA:                  -2.354
REMARK CONF_INDEPENDENT:        2.386
REMARK UNBOUND:                -2.354
REMARK  8 active torsions:
REMARK  status: ('A' for Active; 'I' for Inactive)
REMARK    1  A    between atoms: C_5  and  C_6 
REMARK    2  A    between atoms: C_9  and  O_10 
REMARK    3  A    between atoms: O_10  and  C_11 
REMARK    4  A    between atoms: C_11  and  C_12 
REMARK    5  A    between atoms: C_12  and  N_13 
REMARK    6  A    between atoms: N_16  and  C_17 
REMARK    7  A    between atoms: C_26  and  O_27 
REMARK    8  A    between atoms: C_28  and  C_29 
ROOT
ATOM      1  C   UNL d   1      27.379 -16.399   0.233  0.00  0.00     0.029 A 
ATOM      2  C   UNL d   1      27.287 -15.073   0.678  0.00  0.00     0.019 A 
ATOM      3  C   UNL d   1      28.442 -14.316   0.884  0.00  0.00     0.038 A 
ATOM      4  C   UNL d   1      29.705 -14.880   0.659  0.00  0.00     0.071 A 
ATOM      5  C   UNL d   1      29.797 -16.192   0.192  0.00  0.00     0.074 A 
ATOM      6  C   UNL d   1      28.641 -16.943  -0.025  0.00  0.00     0.081 A 
ENDROOT
BRANCH   4   7
ATOM      7  O   UNL d   1      30.916 -14.254   0.854  0.00  0.00    -0.349 OA
BRANCH   7   8
ATOM      8  C   UNL d   1      31.874 -15.049   1.535  0.00  0.00     0.203 C 
BRANCH   8   9
ATOM      9  C   UNL d   1      31.808 -14.854   3.054  0.00  0.00     0.261 C 
BRANCH   9  10
ATOM     10  N   UNL d   1      30.379 -14.533   3.555  0.00  0.00    -0.066 N 
ATOM     11  C   UNL d   1      30.096 -15.197   4.921  0.00  0.00     0.254 C 
ATOM     12  C   UNL d   1      28.709 -14.806   5.481  0.00  0.00     0.150 C 
ATOM     13  N   UNL d   1      28.501 -13.358   5.476  0.00  0.00    -0.378 N 
ATOM     14  C   UNL d   1      28.653 -12.720   4.168  0.00  0.00     0.150 C 
ATOM     15  C   UNL d   1      30.048 -13.024   3.600  0.00  0.00     0.254 C 
ATOM     16  H   UNL d   1      29.727 -14.961   2.882  0.00  0.00     0.280 HD
BRANCH  13  17
ATOM     17  C   UNL d   1      28.619 -12.573   6.613  0.00  0.00     0.030 A 
ATOM     18  C   UNL d   1      28.829 -11.191   6.466  0.00  0.00     0.029 A 
ATOM     19  C   UNL d   1      28.980 -10.339   7.566  0.00  0.00     0.002 A 
ATOM     20  C   UNL d   1      28.895 -10.848   8.855  0.00  0.00     0.000 A 
ATOM     21  C   UNL d   1      28.676 -12.211   9.034  0.00  0.00     0.002 A 
ATOM     22  C   UNL d   1      28.535 -13.064   7.924  0.00  0.00     0.029 A 
ENDBRANCH  13  17
ENDBRANCH   9  10
ENDBRANCH   8   9
ENDBRANCH   7   8
ENDBRANCH   4   7
BRANCH   6  23
ATOM     23  O   UNL d   1      28.743 -18.203  -0.544  0.00  0.00    -0.360 OA
ATOM     24  H   UNL d   1      29.335 -18.743   0.001  0.00  0.00     0.217 HD
ENDBRANCH   6  23
BRANCH   1  25
ATOM     25  C   UNL d   1      26.156 -17.151  -0.018  0.00  0.00     0.103 A 
ATOM     26  N   UNL d   1      25.708 -18.086   0.831  0.00  0.00    -0.173 NA
ATOM     27  N   UNL d   1      24.590 -18.550   0.254  0.00  0.00    -0.281 N 
ATOM     28  C   UNL d   1      24.241 -17.881  -0.892  0.00  0.00     0.037 A 
ATOM     29  H   UNL d   1      24.103 -19.311   0.705  0.00  0.00     0.189 HD
ATOM     30  C   UNL d   1      23.005 -18.202  -1.640  0.00  0.00     0.070 C 
ATOM     31  C   UNL d   1      25.255 -16.976  -1.110  0.00  0.00     0.029 A 
BRANCH  31  32
ATOM     32  C   UNL d   1      25.327 -16.024  -2.202  0.00  0.00    -0.022 A 
ATOM     33  C   UNL d   1      26.479 -15.944  -2.993  0.00  0.00     0.012 A 
ATOM     34  C   UNL d   1      26.620 -14.914  -3.925  0.00  0.00     0.001 A 
ATOM     35  C   UNL d   1      25.589 -13.994  -4.107  0.00  0.00     0.000 A 
ATOM     36  C   UNL d   1      24.427 -14.085  -3.340  0.00  0.00     0.001 A 
ATOM     37  C   UNL d   1      24.300 -15.091  -2.382  0.00  0.00     0.012 A 
ENDBRANCH  31  32
ENDBRANCH   1  25
TORSDOF 8
ENDMDL
MODEL 2
REMARK VINA RESULT:    -9.171      5.331      8.993
REMARK INTER + INTRA:         -13.988
REMARK INTER:                 -11.557
REMARK INTRA:                  -2.431
REMARK CONF_INDEPENDENT:        2.386
REMARK UNBOUND:                -2.431
REMARK  8 active torsions:
REMARK  status: ('A' for Active; 'I' for Inactive)
REMARK    1  A    between atoms: C_5  and  C_6 
REMARK    2  A    between atoms: C_9  and  O_10 
REMARK    3  A    between atoms: O_10  and  C_11 
REMARK    4  A    between atoms: C_11  and  C_12 
REMARK    5  A    between atoms: C_12  and  N_13 
REMARK    6  A    between atoms: N_16  and  C_17 
REMARK    7  A    between atoms: C_26  and  O_27 
REMARK    8  A    between atoms: C_28  and  C_29 
ROOT
ATOM      1  C   UNL d   1      27.152 -14.369  -4.347  0.00  0.00     0.029 A 
ATOM      2  C   UNL d   1      28.030 -14.848  -3.366  0.00  0.00     0.019 A 
ATOM      3  C   UNL d   1      27.554 -15.188  -2.098  0.00  0.00     0.038 A 
ATOM      4  C   UNL d   1      26.194 -15.043  -1.792  0.00  0.00     0.071 A 
ATOM      5  C   UNL d   1      25.315 -14.589  -2.776  0.00  0.00     0.074 A 
ATOM      6  C   UNL d   1      25.790 -14.261  -4.047  0.00  0.00     0.081 A 
ENDROOT
BRANCH   4   7
ATOM      7  O   UNL d   1      25.606 -15.311  -0.576  0.00  0.00    -0.349 OA
BRANCH   7   8
ATOM      8  C   UNL d   1      26.334 -16.226   0.228  0.00  0.00     0.203 C 
BRANCH   8   9
ATOM      9  C   UNL d   1      25.559 -17.530   0.458  0.00  0.00     0.261 C 
BRANCH   9  10
ATOM     10  N   UNL d   1      24.337 -17.674  -0.481  0.00  0.00    -0.066 N 
ATOM     11  C   UNL d   1      24.030 -19.158  -0.785  0.00  0.00     0.254 C 
ATOM     12  C   UNL d   1      22.753 -19.323  -1.640  0.00  0.00     0.150 C 
ATOM     13  N   UNL d   1      21.617 -18.588  -1.085  0.00  0.00    -0.378 N 
ATOM     14  C   UNL d   1      21.847 -17.156  -0.892  0.00  0.00     0.150 C 
ATOM     15  C   UNL d   1      23.070 -16.942   0.013  0.00  0.00     0.254 C 
ATOM     16  H   UNL d   1      24.601 -17.241  -1.377  0.00  0.00     0.280 HD
BRANCH  13  17
ATOM     17  C   UNL d   1      20.602 -19.199  -0.364  0.00  0.00     0.030 A 
ATOM     18  C   UNL d   1      20.742 -19.333   1.028  0.00  0.00     0.029 A 
ATOM     19  C   UNL d   1      19.770 -19.957   1.819  0.00  0.00     0.002 A 
ATOM     20  C   UNL d   1      18.608 -20.443   1.234  0.00  0.00     0.000 A 
ATOM     21  C   UNL d   1      18.434 -20.315  -0.140  0.00  0.00     0.002 A 
ATOM     22  C   UNL d   1      19.420 -19.695  -0.931  0.00  0.00     0.029 A 
ENDBRANCH  13  17
ENDBRANCH   9  10
ENDBRANCH   8   9
ENDBRANCH   7   8
ENDBRANCH   4   7
BRANCH   6  23
ATOM     23  O   UNL d   1      24.909 -13.882  -5.020  0.00  0.00    -0.360 OA
ATOM     24  H   UNL d   1      24.171 -13.391  -4.630  0.00  0.00     0.217 HD
ENDBRANCH   6  23
BRANCH   1  25
ATOM     25  C   UNL d   1      27.667 -14.065  -5.676  0.00  0.00     0.103 A 
ATOM     26  N   UNL d   1      28.196 -15.008  -6.468  0.00  0.00    -0.173 NA
ATOM     27  N   UNL d   1      28.559 -14.345  -7.576  0.00  0.00    -0.281 N 
ATOM     28  C   UNL d   1      28.196 -13.022  -7.573  0.00  0.00     0.037 A 
ATOM     29  H   UNL d   1      29.034 -14.861  -8.303  0.00  0.00     0.189 HD
ATOM     30  C   UNL d   1      28.452 -12.138  -8.732  0.00  0.00     0.070 C 
ATOM     31  C   UNL d   1      27.632 -12.801  -6.337  0.00  0.00     0.029 A 
BRANCH  31  32
ATOM     32  C   UNL d   1      27.079 -11.546  -5.866  0.00  0.00    -0.022 A 
ATOM     33  C   UNL d   1      25.905 -11.035  -6.434  0.00  0.00     0.012 A 
ATOM     34  C   UNL d   1      25.470  -9.749  -6.108  0.00  0.00     0.001 A 
ATOM     35  C   UNL d   1      26.176  -8.991  -5.175  0.00  0.00     0.000 A 
ATOM     36  C   UNL d   1      27.331  -9.505  -4.585  0.00  0.00     0.001 A 
ATOM     37  C   UNL d   1      27.788 -10.776  -4.938  0.00  0.00     0.012 A 
ENDBRANCH  31  32
ENDBRANCH   1  25
TORSDOF 8
ENDMDL
MODEL 3
REMARK VINA RESULT:    -9.105      1.589      2.476
REMARK INTER + INTRA:         -13.845
REMARK INTER:                 -11.491
REMARK INTRA:                  -2.354
REMARK CONF_INDEPENDENT:        2.386
REMARK UNBOUND:                -2.354
REMARK  8 active torsions:
REMARK  status: ('A' for Active; 'I' for Inactive)
REMARK    1  A    between atoms: C_5  and  C_6 
REMARK    2  A    between atoms: C_9  and  O_10 
REMARK    3  A    between atoms: O_10  and  C_11 
REMARK    4  A    between atoms: C_11  and  C_12 
REMARK    5  A    between atoms: C_12  and  N_13 
REMARK    6  A    between atoms: N_16  and  C_17 
REMARK    7  A    between atoms: C_26  and  O_27 
REMARK    8  A    between atoms: C_28  and  C_29 
ROOT
ATOM      1  C   UNL d   1      27.969 -16.166   0.253  0.00  0.00     0.029 A 
ATOM      2  C   UNL d   1      27.915 -14.855   0.743  0.00  0.00     0.019 A 
ATOM      3  C   UNL d   1      29.085 -14.104   0.877  0.00  0.00     0.038 A 
ATOM      4  C   UNL d   1      30.325 -14.659   0.533  0.00  0.00     0.071 A 
ATOM      5  C   UNL d   1      30.376 -15.956   0.021  0.00  0.00     0.074 A 
ATOM      6  C   UNL d   1      29.205 -16.702  -0.124  0.00  0.00     0.081 A 
ENDROOT
BRANCH   4   7
ATOM      7  O   UNL d   1      31.548 -14.038   0.647  0.00  0.00    -0.349 OA
BRANCH   7   8
ATOM      8  C   UNL d   1      32.361 -14.552   1.691  0.00  0.00     0.203 C 
BRANCH   8   9
ATOM      9  C   UNL d   1      31.530 -15.248   2.777  0.00  0.00     0.261 C 
BRANCH   9  10
ATOM     10  N   UNL d   1      30.949 -14.257   3.813  0.00  0.00    -0.066 N 
ATOM     11  C   UNL d   1      31.251 -12.791   3.427  0.00  0.00     0.254 C 
ATOM     12  C   UNL d   1      30.592 -11.787   4.399  0.00  0.00     0.150 C 
ATOM     13  N   UNL d   1      29.170 -12.062   4.597  0.00  0.00    -0.378 N 
ATOM     14  C   UNL d   1      28.865 -13.412   5.072  0.00  0.00     0.150 C 
ATOM     15  C   UNL d   1      29.442 -14.450   4.097  0.00  0.00     0.254 C 
ATOM     16  H   UNL d   1      31.443 -14.433   4.700  0.00  0.00     0.280 HD
BRANCH  13  17
ATOM     17  C   UNL d   1      28.165 -11.338   3.972  0.00  0.00     0.030 A 
ATOM     18  C   UNL d   1      27.581 -11.856   2.803  0.00  0.00     0.029 A 
ATOM     19  C   UNL d   1      26.579 -11.173   2.105  0.00  0.00     0.002 A 
ATOM     20  C   UNL d   1      26.111  -9.954   2.578  0.00  0.00     0.000 A 
ATOM     21  C   UNL d   1      26.661  -9.420   3.739  0.00  0.00     0.002 A 
ATOM     22  C   UNL d   1      27.676 -10.107   4.431  0.00  0.00     0.029 A 
ENDBRANCH  13  17
ENDBRANCH   9  10
ENDBRANCH   8   9
ENDBRANCH   7   8
ENDBRANCH   4   7
BRANCH   6  23
ATOM     23  O   UNL d   1      29.262 -17.946  -0.688  0.00  0.00    -0.360 OA
ATOM     24  H   UNL d   1      29.603 -18.588  -0.048  0.00  0.00     0.217 HD
ENDBRANCH   6  23
BRANCH   1  25
ATOM     25  C   UNL d   1      26.729 -16.912   0.079  0.00  0.00     0.103 A 
ATOM     26  N   UNL d   1      26.306 -17.811   0.979  0.00  0.00    -0.173 NA
ATOM     27  N   UNL d   1      25.159 -18.280   0.465  0.00  0.00    -0.281 N 
ATOM     28  C   UNL d   1      24.771 -17.648  -0.688  0.00  0.00     0.037 A 
ATOM     29  H   UNL d   1      24.684 -19.019   0.963  0.00  0.00     0.189 HD
ATOM     30  C   UNL d   1      23.501 -17.981  -1.373  0.00  0.00     0.070 C 
ATOM     31  C   UNL d   1      25.785 -16.765  -0.981  0.00  0.00     0.029 A 
BRANCH  31  32
ATOM     32  C   UNL d   1      25.822 -15.853  -2.108  0.00  0.00    -0.022 A 
ATOM     33  C   UNL d   1      27.009 -15.670  -2.828  0.00  0.00     0.012 A 
ATOM     34  C   UNL d   1      27.095 -14.667  -3.796  0.00  0.00     0.001 A 
ATOM     35  C   UNL d   1      25.980 -13.880  -4.084  0.00  0.00     0.000 A 
ATOM     36  C   UNL d   1      24.787 -14.077  -3.389  0.00  0.00     0.001 A 
ATOM     37  C   UNL d   1      24.711 -15.054  -2.395  0.00  0.00     0.012 A 
ENDBRANCH  31  32
ENDBRANCH   1  25
TORSDOF 8
ENDMDL
MODEL 4
REMARK VINA RESULT:    -8.743      5.504      9.310
REMARK INTER + INTRA:         -14.019
REMARK INTER:                 -11.130
REMARK INTRA:                  -2.889
REMARK CONF_INDEPENDENT:        2.386
REMARK UNBOUND:                -2.889
REMARK  8 active torsions:
REMARK  status: ('A' for Active; 'I' for Inactive)
REMARK    1  A    between atoms: C_5  and  C_6 
REMARK    2  A    between atoms: C_9  and  O_10 
REMARK    3  A    between atoms: O_10  and  C_11 
REMARK    4  A    between atoms: C_11  and  C_12 
REMARK    5  A    between atoms: C_12  and  N_13 
REMARK    6  A    between atoms: N_16  and  C_17 
REMARK    7  A    between atoms: C_26  and  O_27 
REMARK    8  A    between atoms: C_28  and  C_29 
ROOT
ATOM      1  C   UNL d   1      28.936 -15.729  -4.741  0.00  0.00     0.029 A 
ATOM      2  C   UNL d   1      29.310 -16.252  -3.496  0.00  0.00     0.019 A 
ATOM      3  C   UNL d   1      28.398 -16.278  -2.439  0.00  0.00     0.038 A 
ATOM      4  C   UNL d   1      27.103 -15.770  -2.610  0.00  0.00     0.071 A 
ATOM      5  C   UNL d   1      26.722 -15.272  -3.857  0.00  0.00     0.074 A 
ATOM      6  C   UNL d   1      27.631 -15.258  -4.916  0.00  0.00     0.081 A 
ENDROOT
BRANCH   4   7
ATOM      7  O   UNL d   1      26.124 -15.708  -1.644  0.00  0.00    -0.349 OA
BRANCH   7   8
ATOM      8  C   UNL d   1      26.551 -16.138  -0.361  0.00  0.00     0.203 C 
BRANCH   8   9
ATOM      9  C   UNL d   1      25.611 -17.193   0.235  0.00  0.00     0.261 C 
BRANCH   9  10
ATOM     10  N   UNL d   1      24.346 -17.421  -0.626  0.00  0.00    -0.066 N 
ATOM     11  C   UNL d   1      24.107 -18.925  -0.894  0.00  0.00     0.254 C 
ATOM     12  C   UNL d   1      22.793 -19.176  -1.668  0.00  0.00     0.150 C 
ATOM     13  N   UNL d   1      21.652 -18.499  -1.054  0.00  0.00    -0.378 N 
ATOM     14  C   UNL d   1      21.809 -17.053  -0.892  0.00  0.00     0.150 C 
ATOM     15  C   UNL d   1      23.069 -16.755  -0.065  0.00  0.00     0.254 C 
ATOM     16  H   UNL d   1      24.529 -16.987  -1.542  0.00  0.00     0.280 HD
BRANCH  13  17
ATOM     17  C   UNL d   1      20.718 -19.155  -0.266  0.00  0.00     0.030 A 
ATOM     18  C   UNL d   1      19.575 -19.699  -0.877  0.00  0.00     0.029 A 
ATOM     19  C   UNL d   1      18.579 -20.355  -0.144  0.00  0.00     0.002 A 
ATOM     20  C   UNL d   1      18.717 -20.511   1.228  0.00  0.00     0.000 A 
ATOM     21  C   UNL d   1      19.843 -19.994   1.862  0.00  0.00     0.002 A 
ATOM     22  C   UNL d   1      20.836 -19.327   1.121  0.00  0.00     0.029 A 
ENDBRANCH  13  17
ENDBRANCH   9  10
ENDBRANCH   8   9
ENDBRANCH   7   8
ENDBRANCH   4   7
BRANCH   6  23
ATOM     23  O   UNL d   1      27.225 -14.828  -6.148  0.00  0.00    -0.360 OA
ATOM     24  H   UNL d   1      27.757 -15.247  -6.841  0.00  0.00     0.217 HD
ENDBRANCH   6  23
BRANCH   1  25
ATOM     25  C   UNL d   1      29.893 -15.757  -5.840  0.00  0.00     0.103 A 
ATOM     26  N   UNL d   1      30.023 -14.735  -6.697  0.00  0.00    -0.173 NA
ATOM     27  N   UNL d   1      30.974 -15.138  -7.552  0.00  0.00    -0.281 N 
ATOM     28  C   UNL d   1      31.537 -16.345  -7.224  0.00  0.00     0.037 A 
ATOM     29  H   UNL d   1      31.203 -14.532  -8.327  0.00  0.00     0.189 HD
ATOM     30  C   UNL d   1      32.647 -16.930  -8.009  0.00  0.00     0.070 C 
ATOM     31  C   UNL d   1      30.838 -16.788  -6.124  0.00  0.00     0.029 A 
BRANCH  31  32
ATOM     32  C   UNL d   1      31.080 -18.021  -5.400  0.00  0.00    -0.022 A 
ATOM     33  C   UNL d   1      30.330 -19.168  -5.690  0.00  0.00     0.012 A 
ATOM     34  C   UNL d   1      30.436 -20.299  -4.880  0.00  0.00     0.001 A 
ATOM     35  C   UNL d   1      31.330 -20.307  -3.810  0.00  0.00     0.000 A 
ATOM     36  C   UNL d   1      32.100 -19.178  -3.533  0.00  0.00     0.001 A 
ATOM     37  C   UNL d   1      31.967 -18.032  -4.319  0.00  0.00     0.012 A 
ENDBRANCH  31  32
ENDBRANCH   1  25
TORSDOF 8
ENDMDL
MODEL 5
REMARK VINA RESULT:    -8.317      2.560      4.838
REMARK INTER + INTRA:         -14.007
REMARK INTER:                 -10.704
REMARK INTRA:                  -3.303
REMARK CONF_INDEPENDENT:        2.386
REMARK UNBOUND:                -3.303
REMARK  8 active torsions:
REMARK  status: ('A' for Active; 'I' for Inactive)
REMARK    1  A    between atoms: C_5  and  C_6 
REMARK    2  A    between atoms: C_9  and  O_10 
REMARK    3  A    between atoms: O_10  and  C_11 
REMARK    4  A    between atoms: C_11  and  C_12 
REMARK    5  A    between atoms: C_12  and  N_13 
REMARK    6  A    between atoms: N_16  and  C_17 
REMARK    7  A    between atoms: C_26  and  O_27 
REMARK    8  A    between atoms: C_28  and  C_29 
ROOT
ATOM      1  C   UNL d   1      27.093 -14.072   0.443  0.00  0.00     0.029 A 
ATOM      2  C   UNL d   1      26.501 -12.985   1.098  0.00  0.00     0.019 A 
ATOM      3  C   UNL d   1      26.662 -12.817   2.475  0.00  0.00     0.038 A 
ATOM      4  C   UNL d   1      27.408 -13.742   3.217  0.00  0.00     0.071 A 
ATOM      5  C   UNL d   1      28.019 -14.812   2.562  0.00  0.00     0.074 A 
ATOM      6  C   UNL d   1      27.868 -14.972   1.184  0.00  0.00     0.081 A 
ENDROOT
BRANCH   4   7
ATOM      7  O   UNL d   1      27.615 -13.709   4.578  0.00  0.00    -0.349 OA
BRANCH   7   8
ATOM      8  C   UNL d   1      28.304 -14.841   5.085  0.00  0.00     0.203 C 
BRANCH   8   9
ATOM      9  C   UNL d   1      29.603 -14.450   5.800  0.00  0.00     0.261 C 
BRANCH   9  10
ATOM     10  N   UNL d   1      30.592 -13.699   4.876  0.00  0.00    -0.066 N 
ATOM     11  C   UNL d   1      30.800 -14.449   3.541  0.00  0.00     0.254 C 
ATOM     12  C   UNL d   1      31.707 -13.662   2.568  0.00  0.00     0.150 C 
ATOM     13  N   UNL d   1      31.270 -12.277   2.403  0.00  0.00    -0.378 N 
ATOM     14  C   UNL d   1      31.173 -11.511   3.646  0.00  0.00     0.150 C 
ATOM     15  C   UNL d   1      30.223 -12.220   4.623  0.00  0.00     0.254 C 
ATOM     16  H   UNL d   1      31.503 -13.699   5.356  0.00  0.00     0.280 HD
BRANCH  13  17
ATOM     17  C   UNL d   1      30.560 -11.835   1.296  0.00  0.00     0.030 A 
ATOM     18  C   UNL d   1      29.492 -10.941   1.486  0.00  0.00     0.029 A 
ATOM     19  C   UNL d   1      28.716 -10.469   0.421  0.00  0.00     0.002 A 
ATOM     20  C   UNL d   1      29.011 -10.862  -0.878  0.00  0.00     0.000 A 
ATOM     21  C   UNL d   1      30.070 -11.737  -1.101  0.00  0.00     0.002 A 
ATOM     22  C   UNL d   1      30.839 -12.216  -0.024  0.00  0.00     0.029 A 
ENDBRANCH  13  17
ENDBRANCH   9  10
ENDBRANCH   8   9
ENDBRANCH   7   8
ENDBRANCH   4   7
BRANCH   6  23
ATOM     23  O   UNL d   1      28.525 -15.986   0.545  0.00  0.00    -0.360 OA
ATOM     24  H   UNL d   1      29.135 -16.427   1.155  0.00  0.00     0.217 HD
ENDBRANCH   6  23
BRANCH   1  25
ATOM     25  C   UNL d   1      26.948 -14.198  -1.001  0.00  0.00     0.103 A 
ATOM     26  N   UNL d   1      27.592 -13.391  -1.855  0.00  0.00    -0.173 NA
ATOM     27  N   UNL d   1      27.197 -13.808  -3.068  0.00  0.00    -0.281 N 
ATOM     28  C   UNL d   1      26.395 -14.920  -3.035  0.00  0.00     0.037 A 
ATOM     29  H   UNL d   1      27.527 -13.299  -3.875  0.00  0.00     0.189 HD
ATOM     30  C   UNL d   1      25.906 -15.569  -4.273  0.00  0.00     0.070 C 
ATOM     31  C   UNL d   1      26.193 -15.188  -1.700  0.00  0.00     0.029 A 
BRANCH  31  32
ATOM     32  C   UNL d   1      25.417 -16.287  -1.159  0.00  0.00    -0.022 A 
ATOM     33  C   UNL d   1      24.022 -16.287  -1.270  0.00  0.00     0.012 A 
ATOM     34  C   UNL d   1      23.264 -17.249  -0.598  0.00  0.00     0.001 A 
ATOM     35  C   UNL d   1      23.902 -18.244   0.141  0.00  0.00     0.000 A 
ATOM     36  C   UNL d   1      25.293 -18.266   0.232  0.00  0.00     0.001 A 
ATOM     37  C   UNL d   1      26.050 -17.282  -0.407  0.00  0.00     0.012 A 
ENDBRANCH  31  32
ENDBRANCH   1  25
TORSDOF 8
ENDMDL
MODEL 6
REMARK VINA RESULT:    -8.279      2.563      5.516
REMARK INTER + INTRA:         -14.163
REMARK INTER:                 -10.666
REMARK INTRA:                  -3.498
REMARK CONF_INDEPENDENT:        2.386
REMARK UNBOUND:                -3.498
REMARK  8 active torsions:
REMARK  status: ('A' for Active; 'I' for Inactive)
REMARK    1  A    between atoms: C_5  and  C_6 
REMARK    2  A    between atoms: C_9  and  O_10 
REMARK    3  A    between atoms: O_10  and  C_11 
REMARK    4  A    between atoms: C_11  and  C_12 
REMARK    5  A    between atoms: C_12  and  N_13 
REMARK    6  A    between atoms: N_16  and  C_17 
REMARK    7  A    between atoms: C_26  and  O_27 
REMARK    8  A    between atoms: C_28  and  C_29 
ROOT
ATOM      1  C   UNL d   1      27.084 -14.024   0.468  0.00  0.00     0.029 A 
ATOM      2  C   UNL d   1      26.625 -12.865   1.108  0.00  0.00     0.019 A 
ATOM      3  C   UNL d   1      26.819 -12.693   2.480  0.00  0.00     0.038 A 
ATOM      4  C   UNL d   1      27.465 -13.683   3.233  0.00  0.00     0.071 A 
ATOM      5  C   UNL d   1      27.944 -14.827   2.592  0.00  0.00     0.074 A 
ATOM      6  C   UNL d   1      27.760 -14.992   1.218  0.00  0.00     0.081 A 
ENDROOT
BRANCH   4   7
ATOM      7  O   UNL d   1      27.689 -13.650   4.591  0.00  0.00    -0.349 OA
BRANCH   7   8
ATOM      8  C   UNL d   1      28.906 -14.260   4.990  0.00  0.00     0.203 C 
BRANCH   8   9
ATOM      9  C   UNL d   1      30.087 -13.283   4.929  0.00  0.00     0.261 C 
BRANCH   9  10
ATOM     10  N   UNL d   1      31.132 -13.672   3.857  0.00  0.00    -0.066 N 
ATOM     11  C   UNL d   1      31.155 -15.199   3.618  0.00  0.00     0.254 C 
ATOM     12  C   UNL d   1      32.123 -15.594   2.479  0.00  0.00     0.150 C 
ATOM     13  N   UNL d   1      31.896 -14.812   1.265  0.00  0.00    -0.378 N 
ATOM     14  C   UNL d   1      31.980 -13.362   1.443  0.00  0.00     0.150 C 
ATOM     15  C   UNL d   1      30.982 -12.911   2.521  0.00  0.00     0.254 C 
ATOM     16  H   UNL d   1      32.055 -13.423   4.239  0.00  0.00     0.280 HD
BRANCH  13  17
ATOM     17  C   UNL d   1      31.208 -15.305   0.166  0.00  0.00     0.030 A 
ATOM     18  C   UNL d   1      31.055 -16.695   0.027  0.00  0.00     0.029 A 
ATOM     19  C   UNL d   1      30.394 -17.267  -1.066  0.00  0.00     0.002 A 
ATOM     20  C   UNL d   1      29.839 -16.453  -2.044  0.00  0.00     0.000 A 
ATOM     21  C   UNL d   1      29.963 -15.071  -1.930  0.00  0.00     0.002 A 
ATOM     22  C   UNL d   1      30.638 -14.503  -0.833  0.00  0.00     0.029 A 
ENDBRANCH  13  17
ENDBRANCH   9  10
ENDBRANCH   8   9
ENDBRANCH   7   8
ENDBRANCH   4   7
BRANCH   6  23
ATOM     23  O   UNL d   1      28.292 -16.085   0.593  0.00  0.00    -0.360 OA
ATOM     24  H   UNL d   1      28.824 -16.602   1.216  0.00  0.00     0.217 HD
ENDBRANCH   6  23
BRANCH   1  25
ATOM     25  C   UNL d   1      26.909 -14.158  -0.972  0.00  0.00     0.103 A 
ATOM     26  N   UNL d   1      27.521 -13.344  -1.843  0.00  0.00    -0.173 NA
ATOM     27  N   UNL d   1      27.106 -13.771  -3.045  0.00  0.00    -0.281 N 
ATOM     28  C   UNL d   1      26.323 -14.897  -2.991  0.00  0.00     0.037 A 
ATOM     29  H   UNL d   1      27.409 -13.260  -3.861  0.00  0.00     0.189 HD
ATOM     30  C   UNL d   1      25.819 -15.558  -4.216  0.00  0.00     0.070 C 
ATOM     31  C   UNL d   1      26.156 -15.162  -1.651  0.00  0.00     0.029 A 
BRANCH  31  32
ATOM     32  C   UNL d   1      25.411 -16.272  -1.089  0.00  0.00    -0.022 A 
ATOM     33  C   UNL d   1      26.086 -17.363  -0.527  0.00  0.00     0.012 A 
ATOM     34  C   UNL d   1      25.380 -18.506  -0.148  0.00  0.00     0.001 A 
ATOM     35  C   UNL d   1      23.992 -18.543  -0.281  0.00  0.00     0.000 A 
ATOM     36  C   UNL d   1      23.311 -17.450  -0.816  0.00  0.00     0.001 A 
ATOM     37  C   UNL d   1      24.020 -16.320  -1.230  0.00  0.00     0.012 A 
ENDBRANCH  31  32
ENDBRANCH   1  25
TORSDOF 8
ENDMDL
MODEL 7
REMARK VINA RESULT:    -7.862      4.533      8.032
REMARK INTER + INTRA:         -13.921
REMARK INTER:                 -10.249
REMARK INTRA:                  -3.672
REMARK CONF_INDEPENDENT:        2.386
REMARK UNBOUND:                -3.672
REMARK  8 active torsions:
REMARK  status: ('A' for Active; 'I' for Inactive)
REMARK    1  A    between atoms: C_5  and  C_6 
REMARK    2  A    between atoms: C_9  and  O_10 
REMARK    3  A    between atoms: O_10  and  C_11 
REMARK    4  A    between atoms: C_11  and  C_12 
REMARK    5  A    between atoms: C_12  and  N_13 
REMARK    6  A    between atoms: N_16  and  C_17 
REMARK    7  A    between atoms: C_26  and  O_27 
REMARK    8  A    between atoms: C_28  and  C_29 
ROOT
ATOM      1  C   UNL d   1      27.066 -14.531  -4.189  0.00  0.00     0.029 A 
ATOM      2  C   UNL d   1      27.626 -14.003  -3.018  0.00  0.00     0.019 A 
ATOM      3  C   UNL d   1      27.136 -14.384  -1.767  0.00  0.00     0.038 A 
ATOM      4  C   UNL d   1      26.069 -15.288  -1.671  0.00  0.00     0.071 A 
ATOM      5  C   UNL d   1      25.526 -15.833  -2.836  0.00  0.00     0.074 A 
ATOM      6  C   UNL d   1      26.026 -15.461  -4.085  0.00  0.00     0.081 A 
ENDROOT
BRANCH   4   7
ATOM      7  O   UNL d   1      25.475 -15.717  -0.506  0.00  0.00    -0.349 OA
BRANCH   7   8
ATOM      8  C   UNL d   1      26.244 -16.662   0.221  0.00  0.00     0.203 C 
BRANCH   8   9
ATOM      9  C   UNL d   1      27.405 -16.001   0.974  0.00  0.00     0.261 C 
BRANCH   9  10
ATOM     10  N   UNL d   1      28.791 -16.429   0.434  0.00  0.00    -0.066 N 
ATOM     11  C   UNL d   1      28.677 -17.640  -0.520  0.00  0.00     0.254 C 
ATOM     12  C   UNL d   1      30.039 -18.017  -1.145  0.00  0.00     0.150 C 
ATOM     13  N   UNL d   1      30.713 -16.863  -1.738  0.00  0.00    -0.378 N 
ATOM     14  C   UNL d   1      30.934 -15.743  -0.822  0.00  0.00     0.150 C 
ATOM     15  C   UNL d   1      29.594 -15.285  -0.226  0.00  0.00     0.254 C 
ATOM     16  H   UNL d   1      29.339 -16.747   1.245  0.00  0.00     0.280 HD
BRANCH  13  17
ATOM     17  C   UNL d   1      30.728 -16.615  -3.103  0.00  0.00     0.030 A 
ATOM     18  C   UNL d   1      30.406 -17.659  -3.987  0.00  0.00     0.029 A 
ATOM     19  C   UNL d   1      30.422 -17.491  -5.376  0.00  0.00     0.002 A 
ATOM     20  C   UNL d   1      30.736 -16.253  -5.922  0.00  0.00     0.000 A 
ATOM     21  C   UNL d   1      31.048 -15.196  -5.072  0.00  0.00     0.002 A 
ATOM     22  C   UNL d   1      31.041 -15.375  -3.676  0.00  0.00     0.029 A 
ENDBRANCH  13  17
ENDBRANCH   9  10
ENDBRANCH   8   9
ENDBRANCH   7   8
ENDBRANCH   4   7
BRANCH   6  23
ATOM     23  O   UNL d   1      25.530 -16.052  -5.213  0.00  0.00    -0.360 OA
ATOM     24  H   UNL d   1      26.150 -15.942  -5.949  0.00  0.00     0.217 HD
ENDBRANCH   6  23
BRANCH   1  25
ATOM     25  C   UNL d   1      27.627 -14.153  -5.479  0.00  0.00     0.103 A 
ATOM     26  N   UNL d   1      28.098 -15.061  -6.345  0.00  0.00    -0.173 NA
ATOM     27  N   UNL d   1      28.530 -14.334  -7.386  0.00  0.00    -0.281 N 
ATOM     28  C   UNL d   1      28.267 -12.993  -7.270  0.00  0.00     0.037 A 
ATOM     29  H   UNL d   1      28.978 -14.819  -8.150  0.00  0.00     0.189 HD
ATOM     30  C   UNL d   1      28.610 -12.033  -8.344  0.00  0.00     0.070 C 
ATOM     31  C   UNL d   1      27.699 -12.837  -6.026  0.00  0.00     0.029 A 
BRANCH  31  32
ATOM     32  C   UNL d   1      27.233 -11.589  -5.453  0.00  0.00    -0.022 A 
ATOM     33  C   UNL d   1      27.873 -11.045  -4.333  0.00  0.00     0.012 A 
ATOM     34  C   UNL d   1      27.321  -9.944  -3.674  0.00  0.00     0.001 A 
ATOM     35  C   UNL d   1      26.158  -9.352  -4.165  0.00  0.00     0.000 A 
ATOM     36  C   UNL d   1      25.530  -9.873  -5.296  0.00  0.00     0.001 A 
ATOM     37  C   UNL d   1      26.060 -10.997  -5.933  0.00  0.00     0.012 A 
ENDBRANCH  31  32
ENDBRANCH   1  25
TORSDOF 8
ENDMDL
MODEL 8
REMARK VINA RESULT:    -7.257      4.179      6.578
REMARK INTER + INTRA:         -13.581
REMARK INTER:                  -9.644
REMARK INTRA:                  -3.938
REMARK CONF_INDEPENDENT:        2.386
REMARK UNBOUND:                -3.938
REMARK  8 active torsions:
REMARK  status: ('A' for Active; 'I' for Inactive)
REMARK    1  A    between atoms: C_5  and  C_6 
REMARK    2  A    between atoms: C_9  and  O_10 
REMARK    3  A    between atoms: O_10  and  C_11 
REMARK    4  A    between atoms: C_11  and  C_12 
REMARK    5  A    between atoms: C_12  and  N_13 
REMARK    6  A    between atoms: N_16  and  C_17 
REMARK    7  A    between atoms: C_26  and  O_27 
REMARK    8  A    between atoms: C_28  and  C_29 
ROOT
ATOM      1  C   UNL d   1      25.768 -14.385  -2.971  0.00  0.00     0.029 A 
ATOM      2  C   UNL d   1      25.905 -14.150  -1.596  0.00  0.00     0.019 A 
ATOM      3  C   UNL d   1      25.782 -15.201  -0.685  0.00  0.00     0.038 A 
ATOM      4  C   UNL d   1      25.508 -16.499  -1.136  0.00  0.00     0.071 A 
ATOM      5  C   UNL d   1      25.396 -16.739  -2.506  0.00  0.00     0.074 A 
ATOM      6  C   UNL d   1      25.531 -15.690  -3.417  0.00  0.00     0.081 A 
ENDROOT
BRANCH   4   7
ATOM      7  O   UNL d   1      25.332 -17.610  -0.343  0.00  0.00    -0.349 OA
BRANCH   7   8
ATOM      8  C   UNL d   1      26.369 -17.813   0.605  0.00  0.00     0.203 C 
BRANCH   8   9
ATOM      9  C   UNL d   1      27.702 -18.165  -0.068  0.00  0.00     0.261 C 
BRANCH   9  10
ATOM     10  N   UNL d   1      28.761 -17.047   0.081  0.00  0.00    -0.066 N 
ATOM     11  C   UNL d   1      29.324 -16.614  -1.291  0.00  0.00     0.254 C 
ATOM     12  C   UNL d   1      30.310 -15.430  -1.168  0.00  0.00     0.150 C 
ATOM     13  N   UNL d   1      29.753 -14.327  -0.385  0.00  0.00    -0.378 N 
ATOM     14  C   UNL d   1      29.315 -14.690   0.963  0.00  0.00     0.150 C 
ATOM     15  C   UNL d   1      28.277 -15.820   0.887  0.00  0.00     0.254 C 
ATOM     16  H   UNL d   1      29.549 -17.454   0.605  0.00  0.00     0.280 HD
BRANCH  13  17
ATOM     17  C   UNL d   1      29.236 -13.177  -0.962  0.00  0.00     0.030 A 
ATOM     18  C   UNL d   1      29.717 -12.772  -2.220  0.00  0.00     0.029 A 
ATOM     19  C   UNL d   1      29.259 -11.611  -2.854  0.00  0.00     0.002 A 
ATOM     20  C   UNL d   1      28.279 -10.832  -2.253  0.00  0.00     0.000 A 
ATOM     21  C   UNL d   1      27.774 -11.213  -1.013  0.00  0.00     0.002 A 
ATOM     22  C   UNL d   1      28.246 -12.376  -0.376  0.00  0.00     0.029 A 
ENDBRANCH  13  17
ENDBRANCH   9  10
ENDBRANCH   8   9
ENDBRANCH   7   8
ENDBRANCH   4   7
BRANCH   6  23
ATOM     23  O   UNL d   1      25.484 -15.949  -4.758  0.00  0.00    -0.360 OA
ATOM     24  H   UNL d   1      25.085 -15.203  -5.230  0.00  0.00     0.217 HD
ENDBRANCH   6  23
BRANCH   1  25
ATOM     25  C   UNL d   1      25.946 -13.279  -3.903  0.00  0.00     0.103 A 
ATOM     26  N   UNL d   1      25.174 -12.185  -3.867  0.00  0.00    -0.173 NA
ATOM     27  N   UNL d   1      25.633 -11.422  -4.870  0.00  0.00    -0.281 N 
ATOM     28  C   UNL d   1      26.741 -11.937  -5.494  0.00  0.00     0.037 A 
ATOM     29  H   UNL d   1      25.155 -10.553  -5.062  0.00  0.00     0.189 HD
ATOM     30  C   UNL d   1      27.433 -11.212  -6.584  0.00  0.00     0.070 C 
ATOM     31  C   UNL d   1      26.958 -13.160  -4.902  0.00  0.00     0.029 A 
BRANCH  31  32
ATOM     32  C   UNL d   1      28.034 -14.080  -5.218  0.00  0.00    -0.022 A 
ATOM     33  C   UNL d   1      28.506 -14.189  -6.531  0.00  0.00     0.012 A 
ATOM     34  C   UNL d   1      29.414 -15.195  -6.870  0.00  0.00     0.001 A 
ATOM     35  C   UNL d   1      29.892 -16.060  -5.886  0.00  0.00     0.000 A 
ATOM     36  C   UNL d   1      29.446 -15.939  -4.570  0.00  0.00     0.001 A 
ATOM     37  C   UNL d   1      28.510 -14.958  -4.238  0.00  0.00     0.012 A 
ENDBRANCH  31  32
ENDBRANCH   1  25
TORSDOF 8
ENDMDL
MODEL 9
REMARK VINA RESULT:    -6.967      4.453      6.892
REMARK INTER + INTRA:         -13.833
REMARK INTER:                  -9.353
REMARK INTRA:                  -4.480
REMARK CONF_INDEPENDENT:        2.386
REMARK UNBOUND:                -4.480
REMARK  8 active torsions:
REMARK  status: ('A' for Active; 'I' for Inactive)
REMARK    1  A    between atoms: C_5  and  C_6 
REMARK    2  A    between atoms: C_9  and  O_10 
REMARK    3  A    between atoms: O_10  and  C_11 
REMARK    4  A    between atoms: C_11  and  C_12 
REMARK    5  A    between atoms: C_12  and  N_13 
REMARK    6  A    between atoms: N_16  and  C_17 
REMARK    7  A    between atoms: C_26  and  O_27 
REMARK    8  A    between atoms: C_28  and  C_29 
ROOT
ATOM      1  C   UNL d   1      25.863 -14.635  -2.745  0.00  0.00     0.029 A 
ATOM      2  C   UNL d   1      25.510 -15.936  -3.127  0.00  0.00     0.019 A 
ATOM      3  C   UNL d   1      25.346 -16.935  -2.164  0.00  0.00     0.038 A 
ATOM      4  C   UNL d   1      25.545 -16.646  -0.807  0.00  0.00     0.071 A 
ATOM      5  C   UNL d   1      25.873 -15.345  -0.424  0.00  0.00     0.074 A 
ATOM      6  C   UNL d   1      26.024 -14.346  -1.386  0.00  0.00     0.081 A 
ENDROOT
BRANCH   4   7
ATOM      7  O   UNL d   1      25.447 -17.544   0.233  0.00  0.00    -0.349 OA
BRANCH   7   8
ATOM      8  C   UNL d   1      26.683 -17.825   0.871  0.00  0.00     0.203 C 
BRANCH   8   9
ATOM      9  C   UNL d   1      27.774 -18.213  -0.134  0.00  0.00     0.261 C 
BRANCH   9  10
ATOM     10  N   UNL d   1      29.001 -17.273  -0.079  0.00  0.00    -0.066 N 
ATOM     11  C   UNL d   1      29.749 -17.237  -1.432  0.00  0.00     0.254 C 
ATOM     12  C   UNL d   1      30.918 -16.227  -1.423  0.00  0.00     0.150 C 
ATOM     13  N   UNL d   1      30.506 -14.909  -0.943  0.00  0.00    -0.378 N 
ATOM     14  C   UNL d   1      29.896 -14.902   0.387  0.00  0.00     0.150 C 
ATOM     15  C   UNL d   1      28.681 -15.842   0.408  0.00  0.00     0.254 C 
ATOM     16  H   UNL d   1      29.655 -17.680   0.605  0.00  0.00     0.280 HD
BRANCH  13  17
ATOM     17  C   UNL d   1      30.256 -13.840  -1.792  0.00  0.00     0.030 A 
ATOM     18  C   UNL d   1      29.194 -12.969  -1.493  0.00  0.00     0.029 A 
ATOM     19  C   UNL d   1      28.868 -11.883  -2.314  0.00  0.00     0.002 A 
ATOM     20  C   UNL d   1      29.622 -11.621  -3.450  0.00  0.00     0.000 A 
ATOM     21  C   UNL d   1      30.688 -12.457  -3.766  0.00  0.00     0.002 A 
ATOM     22  C   UNL d   1      31.004 -13.554  -2.942  0.00  0.00     0.029 A 
ENDBRANCH  13  17
ENDBRANCH   9  10
ENDBRANCH   8   9
ENDBRANCH   7   8
ENDBRANCH   4   7
BRANCH   6  23
ATOM     23  O   UNL d   1      26.280 -13.062  -0.992  0.00  0.00    -0.360 OA
ATOM     24  H   UNL d   1      26.000 -12.439  -1.679  0.00  0.00     0.217 HD
ENDBRANCH   6  23
BRANCH   1  25
ATOM     25  C   UNL d   1      25.983 -13.602  -3.766  0.00  0.00     0.103 A 
ATOM     26  N   UNL d   1      25.242 -12.485  -3.739  0.00  0.00    -0.173 NA
ATOM     27  N   UNL d   1      25.627 -11.807  -4.831  0.00  0.00    -0.281 N 
ATOM     28  C   UNL d   1      26.660 -12.397  -5.513  0.00  0.00     0.037 A 
ATOM     29  H   UNL d   1      25.154 -10.939  -5.040  0.00  0.00     0.189 HD
ATOM     30  C   UNL d   1      27.267 -11.769  -6.709  0.00  0.00     0.070 C 
ATOM     31  C   UNL d   1      26.901 -13.583  -4.858  0.00  0.00     0.029 A 
BRANCH  31  32
ATOM     32  C   UNL d   1      27.922 -14.554  -5.202  0.00  0.00    -0.022 A 
ATOM     33  C   UNL d   1      28.415 -15.433  -4.231  0.00  0.00     0.012 A 
ATOM     34  C   UNL d   1      29.516 -16.244  -4.512  0.00  0.00     0.001 A 
ATOM     35  C   UNL d   1      30.094 -16.217  -5.781  0.00  0.00     0.000 A 
ATOM     36  C   UNL d   1      29.591 -15.362  -6.761  0.00  0.00     0.001 A 
ATOM     37  C   UNL d   1      28.513 -14.524  -6.469  0.00  0.00     0.012 A 
ENDBRANCH  31  32
ENDBRANCH   1  25
TORSDOF 8
ENDMDL
