MODEL 1
REMARK VINA RESULT:    -8.165      0.000      0.000
REMARK INTER + INTRA:         -12.701
REMARK INTER:                 -10.253
REMARK INTRA:                  -2.448
REMARK CONF_INDEPENDENT:        2.088
REMARK UNBOUND:                -2.448
REMARK  7 active torsions:
REMARK  status: ('A' for Active; 'I' for Inactive)
REMARK    1  A    between atoms: C_2  and  C_3 
REMARK    2  A    between atoms: C_8  and  N_9 
REMARK       I    between atoms: N_9  and  C_10 
REMARK    3  A    between atoms: C_10  and  C_12 
REMARK    4  A    between atoms: C_12  and  S_13 
REMARK    5  A    between atoms: C_14  and  S_13 
REMARK    6  A    between atoms: N_24  and  C_25 
REMARK    7  A    between atoms: C_29  and  O_30 
ROOT
ATOM      1  C   UNL d   1      25.727 -12.645  -4.518  0.00  0.00     0.281 C 
ATOM      2  N   UNL d   1      26.022 -14.078  -4.732  0.00  0.00    -0.232 NA
ATOM      3  C   UNL d   1      27.068 -14.311  -5.430  0.00  0.00     0.185 A 
ATOM      4  N   UNL d   1      27.558 -15.575  -5.671  0.00  0.00    -0.129 NA
ATOM      5  N   UNL d   1      28.576 -15.464  -6.415  0.00  0.00    -0.152 NA
ATOM      6  C   UNL d   1      28.787 -14.141  -6.689  0.00  0.00     0.071 A 
ATOM      7  C   UNL d   1      29.870 -13.678  -7.589  0.00  0.00     0.073 C 
ATOM      8  C   UNL d   1      27.907 -13.350  -6.094  0.00  0.00     0.085 A 
ATOM      9  C   UNL d   1      27.604 -11.937  -6.027  0.00  0.00     0.141 C 
ATOM     10  N   UNL d   1      28.322 -11.060  -6.665  0.00  0.00    -0.283 NA
ATOM     11  N   UNL d   1      26.517 -11.593  -5.241  0.00  0.00    -0.298 N 
ATOM     12  H   UNL d   1      29.095 -11.450  -7.193  0.00  0.00     0.188 HD
ENDROOT
BRANCH   1  13
ATOM     13  S   UNL d   1      25.530 -12.271  -2.765  0.00  0.00    -0.111 SA
BRANCH  13  14
ATOM     14  C   UNL d   1      27.074 -12.838  -1.899  0.00  0.00     0.181 C 
BRANCH  14  15
ATOM     15  C   UNL d   1      26.620 -14.082  -1.147  0.00  0.00     0.231 C 
ATOM     16  N   UNL d   1      25.963 -15.120  -1.806  0.00  0.00    -0.326 N 
ATOM     17  H   UNL d   1      25.924 -15.068  -2.815  0.00  0.00     0.169 HD
ATOM     18  O   UNL d   1      26.936 -14.071   0.023  0.00  0.00    -0.272 OA
BRANCH  16  19
ATOM     19  C   UNL d   1      25.346 -16.302  -1.219  0.00  0.00     0.041 C 
ATOM     20  C   UNL d   1      24.050 -16.652  -1.645  0.00  0.00     0.030 C 
ATOM     21  C   UNL d   1      23.373 -17.771  -1.106  0.00  0.00     0.002 C 
ATOM     22  C   UNL d   1      23.952 -18.547  -0.111  0.00  0.00     0.001 C 
ATOM     23  C   UNL d   1      25.200 -18.201   0.359  0.00  0.00     0.009 C 
ATOM     24  C   UNL d   1      25.919 -17.148  -0.234  0.00  0.00    -0.032 C 
BRANCH  24  25
ATOM     25  C   UNL d   1      27.356 -17.117   0.182  0.00  0.00     0.036 C 
ATOM     26  C   UNL d   1      28.205 -17.075  -1.111  0.00  0.00     0.010 C 
ENDBRANCH  24  25
ENDBRANCH  16  19
ENDBRANCH  14  15
ENDBRANCH  13  14
ENDBRANCH   1  13
BRANCH  11  27
ATOM     27  C   UNL d   1      26.169 -10.223  -5.150  0.00  0.00     0.041 A 
ATOM     28  C   UNL d   1      26.674  -9.423  -4.118  0.00  0.00     0.030 A 
ATOM     29  C   UNL d   1      26.143  -8.155  -3.869  0.00  0.00     0.005 A 
ATOM     30  C   UNL d   1      25.169  -7.618  -4.716  0.00  0.00     0.037 A 
ATOM     31  C   UNL d   1      24.659  -8.381  -5.763  0.00  0.00     0.070 A 
ATOM     32  C   UNL d   1      25.140  -9.677  -5.932  0.00  0.00     0.066 A 
BRANCH  31  33
ATOM     33  O   UNL d   1      23.669  -7.822  -6.529  0.00  0.00    -0.356 OA
ATOM     34  C   UNL d   1      22.832  -6.863  -5.870  0.00  0.00     0.210 C 
ENDBRANCH  31  33
ENDBRANCH  11  27
TORSDOF 7
ENDMDL
MODEL 2
REMARK VINA RESULT:    -7.869      3.112      5.015
REMARK INTER + INTRA:         -12.909
REMARK INTER:                  -9.957
REMARK INTRA:                  -2.952
REMARK CONF_INDEPENDENT:        2.088
REMARK UNBOUND:                -2.952
REMARK  7 active torsions:
REMARK  status: ('A' for Active; 'I' for Inactive)
REMARK    1  A    between atoms: C_2  and  C_3 
REMARK    2  A    between atoms: C_8  and  N_9 
REMARK       I    between atoms: N_9  and  C_10 
REMARK    3  A    between atoms: C_10  and  C_12 
REMARK    4  A    between atoms: C_12  and  S_13 
REMARK    5  A    between atoms: C_14  and  S_13 
REMARK    6  A    between atoms: N_24  and  C_25 
REMARK    7  A    between atoms: C_29  and  O_30 
ROOT
ATOM      1  C   UNL d   1      27.445 -12.702  -3.717  0.00  0.00     0.281 C 
ATOM      2  N   UNL d   1      27.672 -13.316  -5.043  0.00  0.00    -0.232 NA
ATOM      3  C   UNL d   1      28.297 -14.431  -5.018  0.00  0.00     0.185 A 
ATOM      4  N   UNL d   1      28.533 -15.200  -6.136  0.00  0.00    -0.129 NA
ATOM      5  N   UNL d   1      29.197 -16.216  -5.779  0.00  0.00    -0.152 NA
ATOM      6  C   UNL d   1      29.422 -16.152  -4.431  0.00  0.00     0.071 A 
ATOM      7  C   UNL d   1      30.227 -17.165  -3.710  0.00  0.00     0.073 C 
ATOM      8  C   UNL d   1      28.873 -15.083  -3.872  0.00  0.00     0.085 A 
ATOM      9  C   UNL d   1      28.793 -14.477  -2.561  0.00  0.00     0.141 C 
ATOM     10  N   UNL d   1      29.355 -15.027  -1.526  0.00  0.00    -0.283 NA
ATOM     11  N   UNL d   1      28.081 -13.291  -2.491  0.00  0.00    -0.298 N 
ATOM     12  H   UNL d   1      29.834 -15.901  -1.718  0.00  0.00     0.188 HD
ENDROOT
BRANCH   1  13
ATOM     13  S   UNL d   1      25.703 -12.313  -3.466  0.00  0.00    -0.111 SA
BRANCH  13  14
ATOM     14  C   UNL d   1      24.709 -13.665  -4.267  0.00  0.00     0.181 C 
BRANCH  14  15
ATOM     15  C   UNL d   1      25.155 -14.917  -3.523  0.00  0.00     0.231 C 
ATOM     16  N   UNL d   1      24.782 -15.136  -2.197  0.00  0.00    -0.326 N 
ATOM     17  H   UNL d   1      24.101 -14.500  -1.804  0.00  0.00     0.169 HD
ATOM     18  O   UNL d   1      25.796 -15.678  -4.216  0.00  0.00    -0.272 OA
BRANCH  16  19
ATOM     19  C   UNL d   1      25.230 -16.198  -1.307  0.00  0.00     0.041 C 
ATOM     20  C   UNL d   1      26.615 -16.337  -1.089  0.00  0.00     0.030 C 
ATOM     21  C   UNL d   1      27.134 -17.358  -0.259  0.00  0.00     0.002 C 
ATOM     22  C   UNL d   1      26.294 -18.282   0.348  0.00  0.00     0.001 C 
ATOM     23  C   UNL d   1      24.938 -18.200   0.115  0.00  0.00     0.009 C 
ATOM     24  C   UNL d   1      24.405 -17.135  -0.633  0.00  0.00    -0.032 C 
BRANCH  24  25
ATOM     25  C   UNL d   1      22.917 -17.031  -0.519  0.00  0.00     0.036 C 
ATOM     26  C   UNL d   1      22.356 -18.473  -0.519  0.00  0.00     0.010 C 
ENDBRANCH  24  25
ENDBRANCH  16  19
ENDBRANCH  14  15
ENDBRANCH  13  14
ENDBRANCH   1  13
BRANCH  11  27
ATOM     27  C   UNL d   1      27.982 -12.648  -1.234  0.00  0.00     0.041 A 
ATOM     28  C   UNL d   1      28.608 -11.416  -1.009  0.00  0.00     0.030 A 
ATOM     29  C   UNL d   1      28.735 -10.901   0.283  0.00  0.00     0.005 A 
ATOM     30  C   UNL d   1      28.143 -11.558   1.366  0.00  0.00     0.037 A 
ATOM     31  C   UNL d   1      27.497 -12.775   1.174  0.00  0.00     0.070 A 
ATOM     32  C   UNL d   1      27.466 -13.312  -0.110  0.00  0.00     0.066 A 
BRANCH  31  33
ATOM     33  O   UNL d   1      26.981 -13.400   2.281  0.00  0.00    -0.356 OA
ATOM     34  C   UNL d   1      27.780 -14.450   2.838  0.00  0.00     0.210 C 
ENDBRANCH  31  33
ENDBRANCH  11  27
TORSDOF 7
ENDMDL
MODEL 3
REMARK VINA RESULT:    -7.688      3.781      7.475
REMARK INTER + INTRA:         -12.601
REMARK INTER:                  -9.776
REMARK INTRA:                  -2.825
REMARK CONF_INDEPENDENT:        2.088
REMARK UNBOUND:                -2.825
REMARK  7 active torsions:
REMARK  status: ('A' for Active; 'I' for Inactive)
REMARK    1  A    between atoms: C_2  and  C_3 
REMARK    2  A    between atoms: C_8  and  N_9 
REMARK       I    between atoms: N_9  and  C_10 
REMARK    3  A    between atoms: C_10  and  C_12 
REMARK    4  A    between atoms: C_12  and  S_13 
REMARK    5  A    between atoms: C_14  and  S_13 
REMARK    6  A    between atoms: N_24  and  C_25 
REMARK    7  A    between atoms: C_29  and  O_30 
ROOT
ATOM      1  C   UNL d   1      25.646 -14.508  -1.743  0.00  0.00     0.281 C 
ATOM      2  N   UNL d   1      26.583 -13.375  -1.905  0.00  0.00    -0.232 NA
ATOM      3  C   UNL d   1      27.672 -13.481  -1.244  0.00  0.00     0.185 A 
ATOM      4  N   UNL d   1      28.706 -12.575  -1.325  0.00  0.00    -0.129 NA
ATOM      5  N   UNL d   1      29.616 -12.948  -0.529  0.00  0.00    -0.152 NA
ATOM      6  C   UNL d   1      29.219 -14.097   0.098  0.00  0.00     0.071 A 
ATOM      7  C   UNL d   1      30.038 -14.758   1.139  0.00  0.00     0.073 C 
ATOM      8  C   UNL d   1      28.028 -14.514  -0.308  0.00  0.00     0.085 A 
ATOM      9  C   UNL d   1      27.107 -15.589  -0.010  0.00  0.00     0.141 C 
ATOM     10  N   UNL d   1      27.392 -16.499   0.873  0.00  0.00    -0.283 NA
ATOM     11  N   UNL d   1      25.922 -15.579  -0.728  0.00  0.00    -0.298 N 
ATOM     12  H   UNL d   1      28.299 -16.391   1.315  0.00  0.00     0.188 HD
ENDROOT
BRANCH   1  13
ATOM     13  S   UNL d   1      25.157 -15.186  -3.340  0.00  0.00    -0.111 SA
BRANCH  13  14
ATOM     14  C   UNL d   1      25.958 -14.145  -4.656  0.00  0.00     0.181 C 
BRANCH  14  15
ATOM     15  C   UNL d   1      27.250 -14.893  -4.957  0.00  0.00     0.231 C 
ATOM     16  N   UNL d   1      28.148 -15.216  -3.940  0.00  0.00    -0.326 N 
ATOM     17  H   UNL d   1      27.840 -15.053  -2.991  0.00  0.00     0.169 HD
ATOM     18  O   UNL d   1      27.360 -15.198  -6.125  0.00  0.00    -0.272 OA
BRANCH  16  19
ATOM     19  C   UNL d   1      29.476 -15.798  -4.073  0.00  0.00     0.041 C 
ATOM     20  C   UNL d   1      30.252 -15.426  -5.189  0.00  0.00     0.030 C 
ATOM     21  C   UNL d   1      31.541 -15.965  -5.404  0.00  0.00     0.002 C 
ATOM     22  C   UNL d   1      32.078 -16.906  -4.536  0.00  0.00     0.001 C 
ATOM     23  C   UNL d   1      31.323 -17.324  -3.462  0.00  0.00     0.009 C 
ATOM     24  C   UNL d   1      30.080 -16.729  -3.187  0.00  0.00    -0.032 C 
BRANCH  24  25
ATOM     25  C   UNL d   1      29.554 -17.074  -1.830  0.00  0.00     0.036 C 
ATOM     26  C   UNL d   1      30.759 -17.541  -0.979  0.00  0.00     0.010 C 
ENDBRANCH  24  25
ENDBRANCH  16  19
ENDBRANCH  14  15
ENDBRANCH  13  14
ENDBRANCH   1  13
BRANCH  11  27
ATOM     27  C   UNL d   1      24.979 -16.602  -0.467  0.00  0.00     0.041 A 
ATOM     28  C   UNL d   1      25.399 -17.900  -0.149  0.00  0.00     0.030 A 
ATOM     29  C   UNL d   1      24.495 -18.965  -0.144  0.00  0.00     0.005 A 
ATOM     30  C   UNL d   1      23.132 -18.735  -0.351  0.00  0.00     0.037 A 
ATOM     31  C   UNL d   1      22.679 -17.454  -0.650  0.00  0.00     0.070 A 
ATOM     32  C   UNL d   1      23.614 -16.426  -0.741  0.00  0.00     0.066 A 
BRANCH  31  33
ATOM     33  O   UNL d   1      21.338 -17.298  -0.895  0.00  0.00    -0.356 OA
ATOM     34  C   UNL d   1      20.556 -18.498  -0.893  0.00  0.00     0.210 C 
ENDBRANCH  31  33
ENDBRANCH  11  27
TORSDOF 7
ENDMDL
MODEL 4
REMARK VINA RESULT:    -7.687      0.562      1.646
REMARK INTER + INTRA:         -12.279
REMARK INTER:                  -9.775
REMARK INTRA:                  -2.505
REMARK CONF_INDEPENDENT:        2.088
REMARK UNBOUND:                -2.505
REMARK  7 active torsions:
REMARK  status: ('A' for Active; 'I' for Inactive)
REMARK    1  A    between atoms: C_2  and  C_3 
REMARK    2  A    between atoms: C_8  and  N_9 
REMARK       I    between atoms: N_9  and  C_10 
REMARK    3  A    between atoms: C_10  and  C_12 
REMARK    4  A    between atoms: C_12  and  S_13 
REMARK    5  A    between atoms: C_14  and  S_13 
REMARK    6  A    between atoms: N_24  and  C_25 
REMARK    7  A    between atoms: C_29  and  O_30 
ROOT
ATOM      1  C   UNL d   1      25.739 -12.639  -4.518  0.00  0.00     0.281 C 
ATOM      2  N   UNL d   1      26.038 -14.073  -4.720  0.00  0.00    -0.232 NA
ATOM      3  C   UNL d   1      27.088 -14.310  -5.409  0.00  0.00     0.185 A 
ATOM      4  N   UNL d   1      27.582 -15.575  -5.639  0.00  0.00    -0.129 NA
ATOM      5  N   UNL d   1      28.604 -15.468  -6.376  0.00  0.00    -0.152 NA
ATOM      6  C   UNL d   1      28.816 -14.146  -6.658  0.00  0.00     0.071 A 
ATOM      7  C   UNL d   1      29.905 -13.688  -7.552  0.00  0.00     0.073 C 
ATOM      8  C   UNL d   1      27.931 -13.352  -6.074  0.00  0.00     0.085 A 
ATOM      9  C   UNL d   1      27.627 -11.939  -6.018  0.00  0.00     0.141 C 
ATOM     10  N   UNL d   1      28.348 -11.066  -6.657  0.00  0.00    -0.283 NA
ATOM     11  N   UNL d   1      26.533 -11.591  -5.242  0.00  0.00    -0.298 N 
ATOM     12  H   UNL d   1      29.125 -11.458  -7.177  0.00  0.00     0.188 HD
ENDROOT
BRANCH   1  13
ATOM     13  S   UNL d   1      25.530 -12.254  -2.769  0.00  0.00    -0.111 SA
BRANCH  13  14
ATOM     14  C   UNL d   1      27.208 -12.343  -1.975  0.00  0.00     0.181 C 
BRANCH  14  15
ATOM     15  C   UNL d   1      27.158 -13.649  -1.192  0.00  0.00     0.231 C 
ATOM     16  N   UNL d   1      26.504 -14.769  -1.704  0.00  0.00    -0.326 N 
ATOM     17  H   UNL d   1      26.186 -14.714  -2.662  0.00  0.00     0.169 HD
ATOM     18  O   UNL d   1      27.775 -13.600  -0.149  0.00  0.00    -0.272 OA
BRANCH  16  19
ATOM     19  C   UNL d   1      26.246 -16.036  -1.033  0.00  0.00     0.041 C 
ATOM     20  C   UNL d   1      27.335 -16.699  -0.433  0.00  0.00     0.030 C 
ATOM     21  C   UNL d   1      27.174 -17.945   0.216  0.00  0.00     0.002 C 
ATOM     22  C   UNL d   1      25.937 -18.575   0.258  0.00  0.00     0.001 C 
ATOM     23  C   UNL d   1      24.864 -17.973  -0.361  0.00  0.00     0.009 C 
ATOM     24  C   UNL d   1      24.993 -16.693  -0.929  0.00  0.00    -0.032 C 
BRANCH  24  25
ATOM     25  C   UNL d   1      23.676 -16.070  -1.269  0.00  0.00     0.036 C 
ATOM     26  C   UNL d   1      22.573 -17.004  -0.716  0.00  0.00     0.010 C 
ENDBRANCH  24  25
ENDBRANCH  16  19
ENDBRANCH  14  15
ENDBRANCH  13  14
ENDBRANCH   1  13
BRANCH  11  27
ATOM     27  C   UNL d   1      26.183 -10.221  -5.163  0.00  0.00     0.041 A 
ATOM     28  C   UNL d   1      26.751  -9.392  -4.188  0.00  0.00     0.030 A 
ATOM     29  C   UNL d   1      26.230  -8.121  -3.936  0.00  0.00     0.005 A 
ATOM     30  C   UNL d   1      25.198  -7.610  -4.729  0.00  0.00     0.037 A 
ATOM     31  C   UNL d   1      24.624  -8.402  -5.719  0.00  0.00     0.070 A 
ATOM     32  C   UNL d   1      25.100  -9.700  -5.888  0.00  0.00     0.066 A 
BRANCH  31  33
ATOM     33  O   UNL d   1      23.580  -7.868  -6.431  0.00  0.00    -0.356 OA
ATOM     34  C   UNL d   1      23.123  -6.580  -6.002  0.00  0.00     0.210 C 
ENDBRANCH  31  33
ENDBRANCH  11  27
TORSDOF 7
ENDMDL
MODEL 5
REMARK VINA RESULT:    -7.681      3.751      6.708
REMARK INTER + INTRA:         -12.411
REMARK INTER:                  -9.769
REMARK INTRA:                  -2.641
REMARK CONF_INDEPENDENT:        2.088
REMARK UNBOUND:                -2.641
REMARK  7 active torsions:
REMARK  status: ('A' for Active; 'I' for Inactive)
REMARK    1  A    between atoms: C_2  and  C_3 
REMARK    2  A    between atoms: C_8  and  N_9 
REMARK       I    between atoms: N_9  and  C_10 
REMARK    3  A    between atoms: C_10  and  C_12 
REMARK    4  A    between atoms: C_12  and  S_13 
REMARK    5  A    between atoms: C_14  and  S_13 
REMARK    6  A    between atoms: N_24  and  C_25 
REMARK    7  A    between atoms: C_29  and  O_30 
ROOT
ATOM      1  C   UNL d   1      27.998 -16.153  -0.897  0.00  0.00     0.281 C 
ATOM      2  N   UNL d   1      27.630 -16.938   0.301  0.00  0.00    -0.232 NA
ATOM      3  C   UNL d   1      26.457 -17.445   0.271  0.00  0.00     0.185 A 
ATOM      4  N   UNL d   1      25.959 -18.275   1.250  0.00  0.00    -0.129 NA
ATOM      5  N   UNL d   1      24.769 -18.575   0.940  0.00  0.00    -0.152 NA
ATOM      6  C   UNL d   1      24.445 -17.959  -0.237  0.00  0.00     0.071 A 
ATOM      7  C   UNL d   1      23.097 -18.060  -0.843  0.00  0.00     0.073 C 
ATOM      8  C   UNL d   1      25.449 -17.254  -0.737  0.00  0.00     0.085 A 
ATOM      9  C   UNL d   1      25.700 -16.399  -1.878  0.00  0.00     0.141 C 
ATOM     10  N   UNL d   1      24.781 -16.174  -2.769  0.00  0.00    -0.283 NA
ATOM     11  N   UNL d   1      26.971 -15.854  -1.951  0.00  0.00    -0.298 N 
ATOM     12  H   UNL d   1      23.899 -16.646  -2.597  0.00  0.00     0.188 HD
ENDROOT
BRANCH   1  13
ATOM     13  S   UNL d   1      29.556 -16.726  -1.602  0.00  0.00    -0.111 SA
BRANCH  13  14
ATOM     14  C   UNL d   1      30.924 -16.103  -0.508  0.00  0.00     0.181 C 
BRANCH  14  15
ATOM     15  C   UNL d   1      30.310 -14.881   0.162  0.00  0.00     0.231 C 
ATOM     16  N   UNL d   1      29.355 -15.017   1.169  0.00  0.00    -0.326 N 
ATOM     17  H   UNL d   1      29.193 -15.951   1.521  0.00  0.00     0.169 HD
ATOM     18  O   UNL d   1      30.777 -13.836  -0.239  0.00  0.00    -0.272 OA
BRANCH  16  19
ATOM     19  C   UNL d   1      28.577 -13.965   1.808  0.00  0.00     0.041 C 
ATOM     20  C   UNL d   1      27.705 -13.206   1.003  0.00  0.00     0.030 C 
ATOM     21  C   UNL d   1      26.933 -12.150   1.543  0.00  0.00     0.002 C 
ATOM     22  C   UNL d   1      27.031 -11.805   2.884  0.00  0.00     0.001 C 
ATOM     23  C   UNL d   1      27.911 -12.500   3.686  0.00  0.00     0.009 C 
ATOM     24  C   UNL d   1      28.613 -13.608   3.182  0.00  0.00    -0.032 C 
BRANCH  24  25
ATOM     25  C   UNL d   1      29.268 -14.421   4.254  0.00  0.00     0.036 C 
ATOM     26  C   UNL d   1      28.138 -15.040   5.112  0.00  0.00     0.010 C 
ENDBRANCH  24  25
ENDBRANCH  16  19
ENDBRANCH  14  15
ENDBRANCH  13  14
ENDBRANCH   1  13
BRANCH  11  27
ATOM     27  C   UNL d   1      27.266 -15.000  -3.040  0.00  0.00     0.041 A 
ATOM     28  C   UNL d   1      26.938 -13.639  -2.992  0.00  0.00     0.030 A 
ATOM     29  C   UNL d   1      26.986 -12.849  -4.142  0.00  0.00     0.005 A 
ATOM     30  C   UNL d   1      27.468 -13.378  -5.343  0.00  0.00     0.037 A 
ATOM     31  C   UNL d   1      27.820 -14.722  -5.420  0.00  0.00     0.070 A 
ATOM     32  C   UNL d   1      27.674 -15.511  -4.282  0.00  0.00     0.066 A 
BRANCH  31  33
ATOM     33  O   UNL d   1      28.235 -15.198  -6.637  0.00  0.00    -0.356 OA
ATOM     34  C   UNL d   1      29.643 -15.121  -6.894  0.00  0.00     0.210 C 
ENDBRANCH  31  33
ENDBRANCH  11  27
TORSDOF 7
ENDMDL
MODEL 6
REMARK VINA RESULT:    -7.575      2.526      8.167
REMARK INTER + INTRA:         -12.491
REMARK INTER:                  -9.663
REMARK INTRA:                  -2.828
REMARK CONF_INDEPENDENT:        2.088
REMARK UNBOUND:                -2.828
REMARK  7 active torsions:
REMARK  status: ('A' for Active; 'I' for Inactive)
REMARK    1  A    between atoms: C_2  and  C_3 
REMARK    2  A    between atoms: C_8  and  N_9 
REMARK       I    between atoms: N_9  and  C_10 
REMARK    3  A    between atoms: C_10  and  C_12 
REMARK    4  A    between atoms: C_12  and  S_13 
REMARK    5  A    between atoms: C_14  and  S_13 
REMARK    6  A    between atoms: N_24  and  C_25 
REMARK    7  A    between atoms: C_29  and  O_30 
ROOT
ATOM      1  C   UNL d   1      25.308 -14.343  -2.565  0.00  0.00     0.281 C 
ATOM      2  N   UNL d   1      25.856 -13.025  -2.951  0.00  0.00    -0.232 NA
ATOM      3  C   UNL d   1      26.658 -12.507  -2.100  0.00  0.00     0.185 A 
ATOM      4  N   UNL d   1      27.336 -11.328  -2.309  0.00  0.00    -0.129 NA
ATOM      5  N   UNL d   1      28.015 -11.078  -1.271  0.00  0.00    -0.152 NA
ATOM      6  C   UNL d   1      27.809 -12.070  -0.352  0.00  0.00     0.071 A 
ATOM      7  C   UNL d   1      28.417 -12.041   0.999  0.00  0.00     0.073 C 
ATOM      8  C   UNL d   1      26.995 -13.016  -0.797  0.00  0.00     0.085 A 
ATOM      9  C   UNL d   1      26.400 -14.240  -0.307  0.00  0.00     0.141 C 
ATOM     10  N   UNL d   1      26.654 -14.684   0.889  0.00  0.00    -0.283 NA
ATOM     11  N   UNL d   1      25.561 -14.896  -1.192  0.00  0.00    -0.298 N 
ATOM     12  H   UNL d   1      27.295 -14.110   1.426  0.00  0.00     0.188 HD
ENDROOT
BRANCH   1  13
ATOM     13  S   UNL d   1      25.582 -15.569  -3.858  0.00  0.00    -0.111 SA
BRANCH  13  14
ATOM     14  C   UNL d   1      27.400 -15.575  -4.245  0.00  0.00     0.181 C 
BRANCH  14  15
ATOM     15  C   UNL d   1      27.516 -14.597  -5.406  0.00  0.00     0.231 C 
ATOM     16  N   UNL d   1      27.458 -13.220  -5.195  0.00  0.00    -0.326 N 
ATOM     17  H   UNL d   1      27.471 -12.905  -4.235  0.00  0.00     0.169 HD
ATOM     18  O   UNL d   1      27.709 -15.146  -6.470  0.00  0.00    -0.272 OA
BRANCH  16  19
ATOM     19  C   UNL d   1      27.414 -12.165  -6.198  0.00  0.00     0.041 C 
ATOM     20  C   UNL d   1      28.044 -12.402  -7.436  0.00  0.00     0.030 C 
ATOM     21  C   UNL d   1      28.068 -11.420  -8.453  0.00  0.00     0.002 C 
ATOM     22  C   UNL d   1      27.495 -10.170  -8.254  0.00  0.00     0.001 C 
ATOM     23  C   UNL d   1      26.913  -9.893  -7.037  0.00  0.00     0.009 C 
ATOM     24  C   UNL d   1      26.803 -10.892  -6.053  0.00  0.00    -0.032 C 
BRANCH  24  25
ATOM     25  C   UNL d   1      25.878 -10.515  -4.939  0.00  0.00     0.036 C 
ATOM     26  C   UNL d   1      25.155  -9.215  -5.366  0.00  0.00     0.010 C 
ENDBRANCH  24  25
ENDBRANCH  16  19
ENDBRANCH  14  15
ENDBRANCH  13  14
ENDBRANCH   1  13
BRANCH  11  27
ATOM     27  C   UNL d   1      24.942 -16.093  -0.759  0.00  0.00     0.041 A 
ATOM     28  C   UNL d   1      25.711 -17.181  -0.327  0.00  0.00     0.030 A 
ATOM     29  C   UNL d   1      25.134 -18.440  -0.145  0.00  0.00     0.005 A 
ATOM     30  C   UNL d   1      23.754 -18.611  -0.287  0.00  0.00     0.037 A 
ATOM     31  C   UNL d   1      22.958 -17.545  -0.696  0.00  0.00     0.070 A 
ATOM     32  C   UNL d   1      23.573 -16.324  -0.961  0.00  0.00     0.066 A 
BRANCH  31  33
ATOM     33  O   UNL d   1      21.619 -17.785  -0.870  0.00  0.00    -0.356 OA
ATOM     34  C   UNL d   1      21.204 -19.150  -0.736  0.00  0.00     0.210 C 
ENDBRANCH  31  33
ENDBRANCH  11  27
TORSDOF 7
ENDMDL
MODEL 7
REMARK VINA RESULT:    -7.468      4.123      7.129
REMARK INTER + INTRA:         -12.467
REMARK INTER:                  -9.557
REMARK INTRA:                  -2.911
REMARK CONF_INDEPENDENT:        2.088
REMARK UNBOUND:                -2.911
REMARK  7 active torsions:
REMARK  status: ('A' for Active; 'I' for Inactive)
REMARK    1  A    between atoms: C_2  and  C_3 
REMARK    2  A    between atoms: C_8  and  N_9 
REMARK       I    between atoms: N_9  and  C_10 
REMARK    3  A    between atoms: C_10  and  C_12 
REMARK    4  A    between atoms: C_12  and  S_13 
REMARK    5  A    between atoms: C_14  and  S_13 
REMARK    6  A    between atoms: N_24  and  C_25 
REMARK    7  A    between atoms: C_29  and  O_30 
ROOT
ATOM      1  C   UNL d   1      27.587 -14.614  -1.259  0.00  0.00     0.281 C 
ATOM      2  N   UNL d   1      26.622 -14.043  -0.296  0.00  0.00    -0.232 NA
ATOM      3  C   UNL d   1      27.053 -13.949   0.904  0.00  0.00     0.185 A 
ATOM      4  N   UNL d   1      26.340 -13.369   1.929  0.00  0.00    -0.129 NA
ATOM      5  N   UNL d   1      27.027 -13.464   2.987  0.00  0.00    -0.152 NA
ATOM      6  C   UNL d   1      28.202 -14.103   2.700  0.00  0.00     0.071 A 
ATOM      7  C   UNL d   1      29.206 -14.426   3.741  0.00  0.00     0.073 C 
ATOM      8  C   UNL d   1      28.312 -14.419   1.418  0.00  0.00     0.085 A 
ATOM      9  C   UNL d   1      29.255 -15.096   0.555  0.00  0.00     0.141 C 
ATOM     10  N   UNL d   1      30.372 -15.574   1.016  0.00  0.00    -0.283 NA
ATOM     11  N   UNL d   1      28.887 -15.190  -0.778  0.00  0.00    -0.298 N 
ATOM     12  H   UNL d   1      30.519 -15.425   2.009  0.00  0.00     0.188 HD
ENDROOT
BRANCH   1  13
ATOM     13  S   UNL d   1      27.804 -13.533  -2.687  0.00  0.00    -0.111 SA
BRANCH  13  14
ATOM     14  C   UNL d   1      26.307 -13.737  -3.771  0.00  0.00     0.181 C 
BRANCH  14  15
ATOM     15  C   UNL d   1      25.668 -15.018  -3.252  0.00  0.00     0.231 C 
ATOM     16  N   UNL d   1      25.003 -15.044  -2.026  0.00  0.00    -0.326 N 
ATOM     17  H   UNL d   1      24.852 -14.154  -1.570  0.00  0.00     0.169 HD
ATOM     18  O   UNL d   1      25.763 -15.944  -4.028  0.00  0.00    -0.272 OA
BRANCH  16  19
ATOM     19  C   UNL d   1      24.464 -16.202  -1.328  0.00  0.00     0.041 C 
ATOM     20  C   UNL d   1      23.063 -16.322  -1.230  0.00  0.00     0.030 C 
ATOM     21  C   UNL d   1      22.461 -17.404  -0.547  0.00  0.00     0.002 C 
ATOM     22  C   UNL d   1      23.232 -18.373   0.080  0.00  0.00     0.001 C 
ATOM     23  C   UNL d   1      24.604 -18.257   0.040  0.00  0.00     0.009 C 
ATOM     24  C   UNL d   1      25.214 -17.239  -0.713  0.00  0.00    -0.032 C 
BRANCH  24  25
ATOM     25  C   UNL d   1      26.683 -17.449  -0.898  0.00  0.00     0.036 C 
ATOM     26  C   UNL d   1      27.272 -17.809   0.487  0.00  0.00     0.010 C 
ENDBRANCH  24  25
ENDBRANCH  16  19
ENDBRANCH  14  15
ENDBRANCH  13  14
ENDBRANCH   1  13
BRANCH  11  27
ATOM     27  C   UNL d   1      29.768 -15.855  -1.665  0.00  0.00     0.041 A 
ATOM     28  C   UNL d   1      31.125 -15.515  -1.714  0.00  0.00     0.030 A 
ATOM     29  C   UNL d   1      31.942 -15.974  -2.750  0.00  0.00     0.005 A 
ATOM     30  C   UNL d   1      31.442 -16.871  -3.699  0.00  0.00     0.037 A 
ATOM     31  C   UNL d   1      30.102 -17.243  -3.667  0.00  0.00     0.070 A 
ATOM     32  C   UNL d   1      29.287 -16.698  -2.678  0.00  0.00     0.066 A 
BRANCH  31  33
ATOM     33  O   UNL d   1      29.655 -18.084  -4.654  0.00  0.00    -0.356 OA
ATOM     34  C   UNL d   1      30.617 -19.011  -5.171  0.00  0.00     0.210 C 
ENDBRANCH  31  33
ENDBRANCH  11  27
TORSDOF 7
ENDMDL
MODEL 8
REMARK VINA RESULT:    -7.153      3.334      7.509
REMARK INTER + INTRA:         -12.715
REMARK INTER:                  -9.241
REMARK INTRA:                  -3.474
REMARK CONF_INDEPENDENT:        2.088
REMARK UNBOUND:                -3.474
REMARK  7 active torsions:
REMARK  status: ('A' for Active; 'I' for Inactive)
REMARK    1  A    between atoms: C_2  and  C_3 
REMARK    2  A    between atoms: C_8  and  N_9 
REMARK       I    between atoms: N_9  and  C_10 
REMARK    3  A    between atoms: C_10  and  C_12 
REMARK    4  A    between atoms: C_12  and  S_13 
REMARK    5  A    between atoms: C_14  and  S_13 
REMARK    6  A    between atoms: N_24  and  C_25 
REMARK    7  A    between atoms: C_29  and  O_30 
ROOT
ATOM      1  C   UNL d   1      26.575 -14.223  -1.941  0.00  0.00     0.281 C 
ATOM      2  N   UNL d   1      27.569 -13.250  -2.444  0.00  0.00    -0.232 NA
ATOM      3  C   UNL d   1      28.750 -13.717  -2.592  0.00  0.00     0.185 A 
ATOM      4  N   UNL d   1      29.795 -12.997  -3.125  0.00  0.00    -0.129 NA
ATOM      5  N   UNL d   1      30.826 -13.729  -3.103  0.00  0.00    -0.152 NA
ATOM      6  C   UNL d   1      30.502 -14.942  -2.560  0.00  0.00     0.071 A 
ATOM      7  C   UNL d   1      31.507 -16.008  -2.338  0.00  0.00     0.073 C 
ATOM      8  C   UNL d   1      29.220 -15.029  -2.236  0.00  0.00     0.085 A 
ATOM      9  C   UNL d   1      28.329 -15.992  -1.627  0.00  0.00     0.141 C 
ATOM     10  N   UNL d   1      28.752 -17.163  -1.251  0.00  0.00    -0.283 NA
ATOM     11  N   UNL d   1      27.013 -15.584  -1.483  0.00  0.00    -0.298 N 
ATOM     12  H   UNL d   1      29.737 -17.334  -1.427  0.00  0.00     0.188 HD
ENDROOT
BRANCH   1  13
ATOM     13  S   UNL d   1      25.128 -14.295  -3.015  0.00  0.00    -0.111 SA
BRANCH  13  14
ATOM     14  C   UNL d   1      25.612 -13.554  -4.650  0.00  0.00     0.181 C 
BRANCH  14  15
ATOM     15  C   UNL d   1      26.655 -14.527  -5.183  0.00  0.00     0.231 C 
ATOM     16  N   UNL d   1      28.012 -14.210  -5.158  0.00  0.00    -0.326 N 
ATOM     17  H   UNL d   1      28.277 -13.374  -4.654  0.00  0.00     0.169 HD
ATOM     18  O   UNL d   1      26.177 -15.575  -5.559  0.00  0.00    -0.272 OA
BRANCH  16  19
ATOM     19  C   UNL d   1      29.115 -14.958  -5.746  0.00  0.00     0.041 C 
ATOM     20  C   UNL d   1      29.280 -16.303  -5.360  0.00  0.00     0.030 C 
ATOM     21  C   UNL d   1      30.340 -17.091  -5.866  0.00  0.00     0.002 C 
ATOM     22  C   UNL d   1      31.276 -16.555  -6.740  0.00  0.00     0.001 C 
ATOM     23  C   UNL d   1      31.167 -15.229  -7.099  0.00  0.00     0.009 C 
ATOM     24  C   UNL d   1      30.067 -14.463  -6.675  0.00  0.00    -0.032 C 
BRANCH  24  25
ATOM     25  C   UNL d   1      29.946 -13.162  -7.404  0.00  0.00     0.036 C 
ATOM     26  C   UNL d   1      28.532 -13.120  -8.032  0.00  0.00     0.010 C 
ENDBRANCH  24  25
ENDBRANCH  16  19
ENDBRANCH  14  15
ENDBRANCH  13  14
ENDBRANCH   1  13
BRANCH  11  27
ATOM     27  C   UNL d   1      26.100 -16.484  -0.881  0.00  0.00     0.041 A 
ATOM     28  C   UNL d   1      26.419 -17.130   0.320  0.00  0.00     0.030 A 
ATOM     29  C   UNL d   1      25.651 -18.200   0.784  0.00  0.00     0.005 A 
ATOM     30  C   UNL d   1      24.483 -18.575   0.112  0.00  0.00     0.037 A 
ATOM     31  C   UNL d   1      24.128 -17.940  -1.074  0.00  0.00     0.070 A 
ATOM     32  C   UNL d   1      24.962 -16.939  -1.564  0.00  0.00     0.066 A 
BRANCH  31  33
ATOM     33  O   UNL d   1      23.001 -18.385  -1.717  0.00  0.00    -0.356 OA
ATOM     34  C   UNL d   1      21.841 -18.568  -0.896  0.00  0.00     0.210 C 
ENDBRANCH  31  33
ENDBRANCH  11  27
TORSDOF 7
ENDMDL
MODEL 9
REMARK VINA RESULT:    -6.389      3.459      8.076
REMARK INTER + INTRA:         -12.106
REMARK INTER:                  -8.477
REMARK INTRA:                  -3.628
REMARK CONF_INDEPENDENT:        2.088
REMARK UNBOUND:                -3.628
REMARK  7 active torsions:
REMARK  status: ('A' for Active; 'I' for Inactive)
REMARK    1  A    between atoms: C_2  and  C_3 
REMARK    2  A    between atoms: C_8  and  N_9 
REMARK       I    between atoms: N_9  and  C_10 
REMARK    3  A    between atoms: C_10  and  C_12 
REMARK    4  A    between atoms: C_12  and  S_13 
REMARK    5  A    between atoms: C_14  and  S_13 
REMARK    6  A    between atoms: N_24  and  C_25 
REMARK    7  A    between atoms: C_29  and  O_30 
ROOT
ATOM      1  C   UNL d   1      28.499 -15.575  -5.570  0.00  0.00     0.281 C 
ATOM      2  N   UNL d   1      27.118 -15.084  -5.770  0.00  0.00    -0.232 NA
ATOM      3  C   UNL d   1      26.430 -14.968  -4.699  0.00  0.00     0.185 A 
ATOM      4  N   UNL d   1      25.155 -14.450  -4.663  0.00  0.00    -0.129 NA
ATOM      5  N   UNL d   1      24.745 -14.503  -3.467  0.00  0.00    -0.152 NA
ATOM      6  C   UNL d   1      25.722 -15.053  -2.683  0.00  0.00     0.071 A 
ATOM      7  C   UNL d   1      25.530 -15.310  -1.237  0.00  0.00     0.073 C 
ATOM      8  C   UNL d   1      26.817 -15.349  -3.367  0.00  0.00     0.085 A 
ATOM      9  C   UNL d   1      28.110 -15.949  -3.118  0.00  0.00     0.141 C 
ATOM     10  N   UNL d   1      28.453 -16.348  -1.929  0.00  0.00    -0.283 NA
ATOM     11  N   UNL d   1      28.942 -16.059  -4.220  0.00  0.00    -0.298 N 
ATOM     12  H   UNL d   1      27.751 -16.197  -1.213  0.00  0.00     0.188 HD
ENDROOT
BRANCH   1  13
ATOM     13  S   UNL d   1      29.703 -14.470  -6.332  0.00  0.00    -0.111 SA
BRANCH  13  14
ATOM     14  C   UNL d   1      28.801 -13.453  -7.601  0.00  0.00     0.181 C 
BRANCH  14  15
ATOM     15  C   UNL d   1      28.293 -12.262  -6.800  0.00  0.00     0.231 C 
ATOM     16  N   UNL d   1      27.070 -12.313  -6.133  0.00  0.00    -0.326 N 
ATOM     17  H   UNL d   1      26.608 -13.212  -6.095  0.00  0.00     0.169 HD
ATOM     18  O   UNL d   1      29.076 -11.336  -6.779  0.00  0.00    -0.272 OA
BRANCH  16  19
ATOM     19  C   UNL d   1      26.382 -11.229  -5.446  0.00  0.00     0.041 C 
ATOM     20  C   UNL d   1      25.673 -10.296  -6.229  0.00  0.00     0.030 C 
ATOM     21  C   UNL d   1      24.999  -9.200  -5.642  0.00  0.00     0.002 C 
ATOM     22  C   UNL d   1      25.037  -8.988  -4.270  0.00  0.00     0.001 C 
ATOM     23  C   UNL d   1      25.761  -9.858  -3.484  0.00  0.00     0.009 C 
ATOM     24  C   UNL d   1      26.358 -11.001  -4.046  0.00  0.00    -0.032 C 
BRANCH  24  25
ATOM     25  C   UNL d   1      26.824 -11.981  -3.017  0.00  0.00     0.036 C 
ATOM     26  C   UNL d   1      28.352 -12.144  -3.200  0.00  0.00     0.010 C 
ENDBRANCH  24  25
ENDBRANCH  16  19
ENDBRANCH  14  15
ENDBRANCH  13  14
ENDBRANCH   1  13
BRANCH  11  27
ATOM     27  C   UNL d   1      30.215 -16.651  -4.035  0.00  0.00     0.041 A 
ATOM     28  C   UNL d   1      31.317 -15.875  -3.652  0.00  0.00     0.030 A 
ATOM     29  C   UNL d   1      32.613 -16.390  -3.718  0.00  0.00     0.005 A 
ATOM     30  C   UNL d   1      32.826 -17.728  -4.064  0.00  0.00     0.037 A 
ATOM     31  C   UNL d   1      31.750 -18.531  -4.432  0.00  0.00     0.070 A 
ATOM     32  C   UNL d   1      30.478 -17.966  -4.448  0.00  0.00     0.066 A 
BRANCH  31  33
ATOM     33  O   UNL d   1      32.024 -19.820  -4.813  0.00  0.00    -0.356 OA
ATOM     34  C   UNL d   1      30.993 -20.489  -5.547  0.00  0.00     0.210 C 
ENDBRANCH  31  33
ENDBRANCH  11  27
TORSDOF 7
ENDMDL
