MODEL 1
REMARK VINA RESULT:    -8.141      0.000      0.000
REMARK INTER + INTRA:         -12.114
REMARK INTER:                 -10.527
REMARK INTRA:                  -1.586
REMARK CONF_INDEPENDENT:        2.386
REMARK UNBOUND:                -1.586
REMARK  8 active torsions:
REMARK  status: ('A' for Active; 'I' for Inactive)
REMARK    1  A    between atoms: C_2  and  C_3 
REMARK       I    between atoms: C_3  and  N_5 
REMARK    2  A    between atoms: N_5  and  C_6 
REMARK    3  A    between atoms: C_9  and  N_10 
REMARK       I    between atoms: N_10  and  C_11 
REMARK       I    between atoms: C_11  and  N_13 
REMARK    4  A    between atoms: N_13  and  C_14 
REMARK    5  A    between atoms: C_14  and  C_15 
REMARK    6  A    between atoms: C_15  and  O_17 
REMARK    7  A    between atoms: C_15  and  C_18 
REMARK    8  A    between atoms: C_18  and  O_19 
ROOT
ATOM      1  N   UNL d   1      25.739 -16.071  -1.249  0.00  0.00    -0.309 N 
ATOM      2  C   UNL d   1      25.943 -15.419  -2.458  0.00  0.00     0.320 C 
ATOM      3  O   UNL d   1      25.155 -15.365  -3.405  0.00  0.00    -0.247 OA
ATOM      4  N   UNL d   1      27.146 -14.769  -2.593  0.00  0.00    -0.340 N 
ATOM      5  H   UNL d   1      26.486 -16.075  -0.570  0.00  0.00     0.170 HD
ATOM      6  H   UNL d   1      27.802 -14.736  -1.831  0.00  0.00     0.164 HD
ENDROOT
BRANCH   1   7
ATOM      7  C   UNL d   1      24.578 -16.858  -0.950  0.00  0.00     0.036 A 
ATOM      8  C   UNL d   1      23.274 -16.327  -0.968  0.00  0.00     0.032 A 
ATOM      9  C   UNL d   1      22.159 -17.105  -0.528  0.00  0.00     0.032 A 
ATOM     10  C   UNL d   1      22.346 -18.418  -0.085  0.00  0.00     0.034 A 
ATOM     11  C   UNL d   1      23.622 -18.953  -0.157  0.00  0.00     0.032 A 
ATOM     12  C   UNL d   1      24.702 -18.195  -0.584  0.00  0.00     0.032 A 
BRANCH  10  13
ATOM     13  N   UNL d   1      21.311 -19.241   0.428  0.00  0.00    -0.327 N 
ATOM     14  C   UNL d   1      20.316 -19.726  -0.423  0.00  0.00     0.221 C 
ATOM     15  O   UNL d   1      20.331 -19.571  -1.644  0.00  0.00    -0.273 OA
ATOM     16  H   UNL d   1      21.367 -19.559   1.386  0.00  0.00     0.169 HD
BRANCH  14  17
ATOM     17  C   UNL d   1      19.191 -20.512   0.229  0.00  0.00     0.098 C 
ATOM     18  C   UNL d   1      19.133 -20.176   1.723  0.00  0.00     0.014 C 
ENDBRANCH  14  17
ENDBRANCH  10  13
ENDBRANCH   1   7
BRANCH   4  19
ATOM     19  C   UNL d   1      27.380 -14.011  -3.838  0.00  0.00     0.164 C 
BRANCH  19  20
ATOM     20  C   UNL d   1      28.054 -14.814  -4.966  0.00  0.00     0.091 C 
ATOM     21  C   UNL d   1      28.956 -15.898  -4.377  0.00  0.00     0.050 C 
BRANCH  20  22
ATOM     22  O   UNL d   1      27.033 -15.423  -5.770  0.00  0.00    -0.386 OA
ATOM     23  H   UNL d   1      27.160 -15.140  -6.688  0.00  0.00     0.210 HD
ENDBRANCH  20  22
BRANCH  20  24
ATOM     24  C   UNL d   1      28.890 -13.876  -5.872  0.00  0.00     0.206 C 
BRANCH  24  25
ATOM     25  O   UNL d   1      28.460 -14.001  -7.236  0.00  0.00    -0.393 OA
ATOM     26  C   UNL d   1      28.961 -12.950  -8.046  0.00  0.00     0.201 C 
ENDBRANCH  24  25
ENDBRANCH  20  24
ENDBRANCH  19  20
ENDBRANCH   4  19
TORSDOF 8
ENDMDL
MODEL 2
REMARK VINA RESULT:    -7.919      0.991      2.083
REMARK INTER + INTRA:         -12.300
REMARK INTER:                 -10.305
REMARK INTRA:                  -1.994
REMARK CONF_INDEPENDENT:        2.386
REMARK UNBOUND:                -1.994
REMARK  8 active torsions:
REMARK  status: ('A' for Active; 'I' for Inactive)
REMARK    1  A    between atoms: C_2  and  C_3 
REMARK       I    between atoms: C_3  and  N_5 
REMARK    2  A    between atoms: N_5  and  C_6 
REMARK    3  A    between atoms: C_9  and  N_10 
REMARK       I    between atoms: N_10  and  C_11 
REMARK       I    between atoms: C_11  and  N_13 
REMARK    4  A    between atoms: N_13  and  C_14 
REMARK    5  A    between atoms: C_14  and  C_15 
REMARK    6  A    between atoms: C_15  and  O_17 
REMARK    7  A    between atoms: C_15  and  C_18 
REMARK    8  A    between atoms: C_18  and  O_19 
ROOT
ATOM      1  N   UNL d   1      25.817 -16.010  -1.266  0.00  0.00    -0.309 N 
ATOM      2  C   UNL d   1      26.370 -15.861  -2.530  0.00  0.00     0.320 C 
ATOM      3  O   UNL d   1      25.928 -16.324  -3.584  0.00  0.00    -0.247 OA
ATOM      4  N   UNL d   1      27.521 -15.114  -2.596  0.00  0.00    -0.340 N 
ATOM      5  H   UNL d   1      26.303 -15.615  -0.475  0.00  0.00     0.170 HD
ATOM      6  H   UNL d   1      27.894 -14.669  -1.775  0.00  0.00     0.164 HD
ENDROOT
BRANCH   1   7
ATOM      7  C   UNL d   1      24.657 -16.809  -0.988  0.00  0.00     0.036 A 
ATOM      8  C   UNL d   1      23.346 -16.312  -1.105  0.00  0.00     0.032 A 
ATOM      9  C   UNL d   1      22.225 -17.092  -0.685  0.00  0.00     0.032 A 
ATOM     10  C   UNL d   1      22.416 -18.376  -0.163  0.00  0.00     0.034 A 
ATOM     11  C   UNL d   1      23.705 -18.882  -0.137  0.00  0.00     0.032 A 
ATOM     12  C   UNL d   1      24.790 -18.121  -0.545  0.00  0.00     0.032 A 
BRANCH  10  13
ATOM     13  N   UNL d   1      21.371 -19.196   0.336  0.00  0.00    -0.327 N 
ATOM     14  C   UNL d   1      20.379 -19.667  -0.524  0.00  0.00     0.221 C 
ATOM     15  O   UNL d   1      20.403 -19.502  -1.744  0.00  0.00    -0.273 OA
ATOM     16  H   UNL d   1      21.419 -19.522   1.293  0.00  0.00     0.169 HD
BRANCH  14  17
ATOM     17  C   UNL d   1      19.245 -20.450   0.114  0.00  0.00     0.098 C 
ATOM     18  C   UNL d   1      19.232 -20.191   1.624  0.00  0.00     0.014 C 
ENDBRANCH  14  17
ENDBRANCH  10  13
ENDBRANCH   1   7
BRANCH   4  19
ATOM     19  C   UNL d   1      28.110 -14.878  -3.929  0.00  0.00     0.164 C 
BRANCH  19  20
ATOM     20  C   UNL d   1      27.156 -14.237  -4.953  0.00  0.00     0.091 C 
ATOM     21  C   UNL d   1      27.918 -13.254  -5.843  0.00  0.00     0.050 C 
BRANCH  20  22
ATOM     22  O   UNL d   1      26.585 -15.275  -5.763  0.00  0.00    -0.386 OA
ATOM     23  H   UNL d   1      25.765 -15.573  -5.342  0.00  0.00     0.210 HD
ENDBRANCH  20  22
BRANCH  20  24
ATOM     24  C   UNL d   1      26.003 -13.498  -4.229  0.00  0.00     0.206 C 
BRANCH  24  25
ATOM     25  O   UNL d   1      24.742 -14.078  -4.594  0.00  0.00    -0.393 OA
ATOM     26  C   UNL d   1      23.826 -14.075  -3.512  0.00  0.00     0.201 C 
ENDBRANCH  24  25
ENDBRANCH  20  24
ENDBRANCH  19  20
ENDBRANCH   4  19
TORSDOF 8
ENDMDL
MODEL 3
REMARK VINA RESULT:    -7.606      1.178      1.857
REMARK INTER + INTRA:         -11.995
REMARK INTER:                  -9.992
REMARK INTRA:                  -2.003
REMARK CONF_INDEPENDENT:        2.386
REMARK UNBOUND:                -2.003
REMARK  8 active torsions:
REMARK  status: ('A' for Active; 'I' for Inactive)
REMARK    1  A    between atoms: C_2  and  C_3 
REMARK       I    between atoms: C_3  and  N_5 
REMARK    2  A    between atoms: N_5  and  C_6 
REMARK    3  A    between atoms: C_9  and  N_10 
REMARK       I    between atoms: N_10  and  C_11 
REMARK       I    between atoms: C_11  and  N_13 
REMARK    4  A    between atoms: N_13  and  C_14 
REMARK    5  A    between atoms: C_14  and  C_15 
REMARK    6  A    between atoms: C_15  and  O_17 
REMARK    7  A    between atoms: C_15  and  C_18 
REMARK    8  A    between atoms: C_18  and  O_19 
ROOT
ATOM      1  N   UNL d   1      25.757 -16.043  -1.789  0.00  0.00    -0.309 N 
ATOM      2  C   UNL d   1      25.512 -15.136  -2.812  0.00  0.00     0.320 C 
ATOM      3  O   UNL d   1      24.408 -14.821  -3.264  0.00  0.00    -0.247 OA
ATOM      4  N   UNL d   1      26.619 -14.535  -3.359  0.00  0.00    -0.340 N 
ATOM      5  H   UNL d   1      26.714 -16.245  -1.542  0.00  0.00     0.170 HD
ATOM      6  H   UNL d   1      27.538 -14.716  -2.990  0.00  0.00     0.164 HD
ENDROOT
BRANCH   1   7
ATOM      7  C   UNL d   1      24.736 -16.818  -1.144  0.00  0.00     0.036 A 
ATOM      8  C   UNL d   1      24.965 -18.117  -0.653  0.00  0.00     0.032 A 
ATOM      9  C   UNL d   1      23.890 -18.909  -0.145  0.00  0.00     0.032 A 
ATOM     10  C   UNL d   1      22.589 -18.396  -0.115  0.00  0.00     0.034 A 
ATOM     11  C   UNL d   1      22.398 -17.086  -0.521  0.00  0.00     0.032 A 
ATOM     12  C   UNL d   1      23.444 -16.320  -1.014  0.00  0.00     0.032 A 
BRANCH  10  13
ATOM     13  N   UNL d   1      21.453 -19.131   0.312  0.00  0.00    -0.327 N 
ATOM     14  C   UNL d   1      20.496 -19.541  -0.617  0.00  0.00     0.221 C 
ATOM     15  O   UNL d   1      20.623 -19.397  -1.833  0.00  0.00    -0.273 OA
ATOM     16  H   UNL d   1      21.405 -19.446   1.272  0.00  0.00     0.169 HD
BRANCH  14  17
ATOM     17  C   UNL d   1      19.263 -20.231  -0.059  0.00  0.00     0.098 C 
ATOM     18  C   UNL d   1      19.106 -19.875   1.422  0.00  0.00     0.014 C 
ENDBRANCH  14  17
ENDBRANCH  10  13
ENDBRANCH   1   7
BRANCH   4  19
ATOM     19  C   UNL d   1      26.400 -13.519  -4.407  0.00  0.00     0.164 C 
BRANCH  19  20
ATOM     20  C   UNL d   1      27.677 -13.049  -5.128  0.00  0.00     0.091 C 
ATOM     21  C   UNL d   1      27.605 -11.548  -5.408  0.00  0.00     0.050 C 
BRANCH  20  22
ATOM     22  O   UNL d   1      28.808 -13.327  -4.288  0.00  0.00    -0.386 OA
ATOM     23  H   UNL d   1      29.197 -14.168  -4.570  0.00  0.00     0.210 HD
ENDBRANCH  20  22
BRANCH  20  24
ATOM     24  C   UNL d   1      27.861 -13.820  -6.459  0.00  0.00     0.206 C 
BRANCH  24  25
ATOM     25  O   UNL d   1      28.170 -15.195  -6.191  0.00  0.00    -0.393 OA
ATOM     26  C   UNL d   1      29.529 -15.495  -6.465  0.00  0.00     0.201 C 
ENDBRANCH  24  25
ENDBRANCH  20  24
ENDBRANCH  19  20
ENDBRANCH   4  19
TORSDOF 8
ENDMDL
MODEL 4
REMARK VINA RESULT:    -7.002      1.588      2.187
REMARK INTER + INTRA:         -11.487
REMARK INTER:                  -9.388
REMARK INTRA:                  -2.099
REMARK CONF_INDEPENDENT:        2.386
REMARK UNBOUND:                -2.099
REMARK  8 active torsions:
REMARK  status: ('A' for Active; 'I' for Inactive)
REMARK    1  A    between atoms: C_2  and  C_3 
REMARK       I    between atoms: C_3  and  N_5 
REMARK    2  A    between atoms: N_5  and  C_6 
REMARK    3  A    between atoms: C_9  and  N_10 
REMARK       I    between atoms: N_10  and  C_11 
REMARK       I    between atoms: C_11  and  N_13 
REMARK    4  A    between atoms: N_13  and  C_14 
REMARK    5  A    between atoms: C_14  and  C_15 
REMARK    6  A    between atoms: C_15  and  O_17 
REMARK    7  A    between atoms: C_15  and  C_18 
REMARK    8  A    between atoms: C_18  and  O_19 
ROOT
ATOM      1  N   UNL d   1      25.581 -15.700  -2.093  0.00  0.00    -0.309 N 
ATOM      2  C   UNL d   1      25.191 -14.755  -3.033  0.00  0.00     0.320 C 
ATOM      3  O   UNL d   1      24.033 -14.450  -3.329  0.00  0.00    -0.247 OA
ATOM      4  N   UNL d   1      26.208 -14.101  -3.683  0.00  0.00    -0.340 N 
ATOM      5  H   UNL d   1      26.566 -15.888  -1.976  0.00  0.00     0.170 HD
ATOM      6  H   UNL d   1      27.169 -14.274  -3.441  0.00  0.00     0.164 HD
ENDROOT
BRANCH   1   7
ATOM      7  C   UNL d   1      24.666 -16.531  -1.364  0.00  0.00     0.036 A 
ATOM      8  C   UNL d   1      25.009 -17.813  -0.898  0.00  0.00     0.032 A 
ATOM      9  C   UNL d   1      24.029 -18.664  -0.301  0.00  0.00     0.032 A 
ATOM     10  C   UNL d   1      22.709 -18.226  -0.157  0.00  0.00     0.034 A 
ATOM     11  C   UNL d   1      22.409 -16.929  -0.542  0.00  0.00     0.032 A 
ATOM     12  C   UNL d   1      23.363 -16.107  -1.121  0.00  0.00     0.032 A 
BRANCH  10  13
ATOM     13  N   UNL d   1      21.657 -19.023   0.364  0.00  0.00    -0.327 N 
ATOM     14  C   UNL d   1      20.644 -19.482  -0.478  0.00  0.00     0.221 C 
ATOM     15  O   UNL d   1      20.653 -19.327  -1.700  0.00  0.00    -0.273 OA
ATOM     16  H   UNL d   1      21.713 -19.342   1.322  0.00  0.00     0.169 HD
BRANCH  14  17
ATOM     17  C   UNL d   1      19.505 -20.240   0.183  0.00  0.00     0.098 C 
ATOM     18  C   UNL d   1      19.580 -20.050   1.701  0.00  0.00     0.014 C 
ENDBRANCH  14  17
ENDBRANCH  10  13
ENDBRANCH   1   7
BRANCH   4  19
ATOM     19  C   UNL d   1      25.839 -13.045  -4.646  0.00  0.00     0.164 C 
BRANCH  19  20
ATOM     20  C   UNL d   1      26.910 -11.959  -4.857  0.00  0.00     0.091 C 
ATOM     21  C   UNL d   1      26.344 -10.582  -4.510  0.00  0.00     0.050 C 
BRANCH  20  22
ATOM     22  O   UNL d   1      28.030 -12.247  -4.006  0.00  0.00    -0.386 OA
ATOM     23  H   UNL d   1      28.695 -12.721  -4.528  0.00  0.00     0.210 HD
ENDBRANCH  20  22
BRANCH  20  24
ATOM     24  C   UNL d   1      27.404 -11.964  -6.325  0.00  0.00     0.206 C 
BRANCH  24  25
ATOM     25  O   UNL d   1      28.705 -12.566  -6.403  0.00  0.00    -0.393 OA
ATOM     26  C   UNL d   1      28.654 -13.863  -6.972  0.00  0.00     0.201 C 
ENDBRANCH  24  25
ENDBRANCH  20  24
ENDBRANCH  19  20
ENDBRANCH   4  19
TORSDOF 8
ENDMDL
MODEL 5
REMARK VINA RESULT:    -6.980      1.744      2.835
REMARK INTER + INTRA:         -11.624
REMARK INTER:                  -9.366
REMARK INTRA:                  -2.258
REMARK CONF_INDEPENDENT:        2.386
REMARK UNBOUND:                -2.258
REMARK  8 active torsions:
REMARK  status: ('A' for Active; 'I' for Inactive)
REMARK    1  A    between atoms: C_2  and  C_3 
REMARK       I    between atoms: C_3  and  N_5 
REMARK    2  A    between atoms: N_5  and  C_6 
REMARK    3  A    between atoms: C_9  and  N_10 
REMARK       I    between atoms: N_10  and  C_11 
REMARK       I    between atoms: C_11  and  N_13 
REMARK    4  A    between atoms: N_13  and  C_14 
REMARK    5  A    between atoms: C_14  and  C_15 
REMARK    6  A    between atoms: C_15  and  O_17 
REMARK    7  A    between atoms: C_15  and  C_18 
REMARK    8  A    between atoms: C_18  and  O_19 
ROOT
ATOM      1  N   UNL d   1      26.018 -16.240  -1.830  0.00  0.00    -0.309 N 
ATOM      2  C   UNL d   1      25.858 -15.455  -2.964  0.00  0.00     0.320 C 
ATOM      3  O   UNL d   1      24.791 -15.160  -3.508  0.00  0.00    -0.247 OA
ATOM      4  N   UNL d   1      27.013 -14.962  -3.520  0.00  0.00    -0.340 N 
ATOM      5  H   UNL d   1      26.953 -16.443  -1.511  0.00  0.00     0.170 HD
ATOM      6  H   UNL d   1      27.905 -15.128  -3.085  0.00  0.00     0.164 HD
ENDROOT
BRANCH   1   7
ATOM      7  C   UNL d   1      24.937 -16.897  -1.152  0.00  0.00     0.036 A 
ATOM      8  C   UNL d   1      25.111 -18.083  -0.415  0.00  0.00     0.032 A 
ATOM      9  C   UNL d   1      23.989 -18.782   0.126  0.00  0.00     0.032 A 
ATOM     10  C   UNL d   1      22.695 -18.286  -0.056  0.00  0.00     0.034 A 
ATOM     11  C   UNL d   1      22.549 -17.073  -0.708  0.00  0.00     0.032 A 
ATOM     12  C   UNL d   1      23.641 -16.397  -1.233  0.00  0.00     0.032 A 
BRANCH  10  13
ATOM     13  N   UNL d   1      21.519 -18.944   0.390  0.00  0.00    -0.327 N 
ATOM     14  C   UNL d   1      20.568 -19.380  -0.533  0.00  0.00     0.221 C 
ATOM     15  O   UNL d   1      20.729 -19.326  -1.753  0.00  0.00    -0.273 OA
ATOM     16  H   UNL d   1      21.436 -19.188   1.368  0.00  0.00     0.169 HD
BRANCH  14  17
ATOM     17  C   UNL d   1      19.295 -19.979   0.039  0.00  0.00     0.098 C 
ATOM     18  C   UNL d   1      19.551 -20.446   1.475  0.00  0.00     0.014 C 
ENDBRANCH  14  17
ENDBRANCH  10  13
ENDBRANCH   1   7
BRANCH   4  19
ATOM     19  C   UNL d   1      26.886 -14.072  -4.691  0.00  0.00     0.164 C 
BRANCH  19  20
ATOM     20  C   UNL d   1      26.432 -12.638  -4.367  0.00  0.00     0.091 C 
ATOM     21  C   UNL d   1      26.701 -11.715  -5.556  0.00  0.00     0.050 C 
BRANCH  20  22
ATOM     22  O   UNL d   1      25.025 -12.653  -4.081  0.00  0.00    -0.386 OA
ATOM     23  H   UNL d   1      24.892 -13.111  -3.238  0.00  0.00     0.210 HD
ENDBRANCH  20  22
BRANCH  20  24
ATOM     24  C   UNL d   1      27.174 -12.106  -3.116  0.00  0.00     0.206 C 
BRANCH  24  25
ATOM     25  O   UNL d   1      26.477 -12.502  -1.925  0.00  0.00    -0.393 OA
ATOM     26  C   UNL d   1      27.345 -12.582  -0.807  0.00  0.00     0.201 C 
ENDBRANCH  24  25
ENDBRANCH  20  24
ENDBRANCH  19  20
ENDBRANCH   4  19
TORSDOF 8
ENDMDL
MODEL 6
REMARK VINA RESULT:    -6.935      2.634      3.196
REMARK INTER + INTRA:         -11.191
REMARK INTER:                  -9.321
REMARK INTRA:                  -1.870
REMARK CONF_INDEPENDENT:        2.386
REMARK UNBOUND:                -1.870
REMARK  8 active torsions:
REMARK  status: ('A' for Active; 'I' for Inactive)
REMARK    1  A    between atoms: C_2  and  C_3 
REMARK       I    between atoms: C_3  and  N_5 
REMARK    2  A    between atoms: N_5  and  C_6 
REMARK    3  A    between atoms: C_9  and  N_10 
REMARK       I    between atoms: N_10  and  C_11 
REMARK       I    between atoms: C_11  and  N_13 
REMARK    4  A    between atoms: N_13  and  C_14 
REMARK    5  A    between atoms: C_14  and  C_15 
REMARK    6  A    between atoms: C_15  and  O_17 
REMARK    7  A    between atoms: C_15  and  C_18 
REMARK    8  A    between atoms: C_18  and  O_19 
ROOT
ATOM      1  N   UNL d   1      25.821 -16.448  -1.216  0.00  0.00    -0.309 N 
ATOM      2  C   UNL d   1      27.000 -16.601  -0.497  0.00  0.00     0.320 C 
ATOM      3  O   UNL d   1      27.197 -17.391   0.428  0.00  0.00    -0.247 OA
ATOM      4  N   UNL d   1      28.040 -15.786  -0.872  0.00  0.00    -0.340 N 
ATOM      5  H   UNL d   1      25.776 -15.730  -1.924  0.00  0.00     0.170 HD
ATOM      6  H   UNL d   1      27.949 -15.162  -1.656  0.00  0.00     0.164 HD
ENDROOT
BRANCH   1   7
ATOM      7  C   UNL d   1      24.609 -17.159  -0.926  0.00  0.00     0.036 A 
ATOM      8  C   UNL d   1      23.343 -16.545  -0.951  0.00  0.00     0.032 A 
ATOM      9  C   UNL d   1      22.177 -17.249  -0.520  0.00  0.00     0.032 A 
ATOM     10  C   UNL d   1      22.276 -18.573  -0.080  0.00  0.00     0.034 A 
ATOM     11  C   UNL d   1      23.514 -19.189  -0.145  0.00  0.00     0.032 A 
ATOM     12  C   UNL d   1      24.644 -18.502  -0.563  0.00  0.00     0.032 A 
BRANCH  10  13
ATOM     13  N   UNL d   1      21.185 -19.328   0.424  0.00  0.00    -0.327 N 
ATOM     14  C   UNL d   1      20.202 -19.803  -0.444  0.00  0.00     0.221 C 
ATOM     15  O   UNL d   1      20.269 -19.698  -1.669  0.00  0.00    -0.273 OA
ATOM     16  H   UNL d   1      21.191 -19.609   1.396  0.00  0.00     0.169 HD
BRANCH  14  17
ATOM     17  C   UNL d   1      19.019 -20.511   0.194  0.00  0.00     0.098 C 
ATOM     18  C   UNL d   1      19.097 -20.364   1.716  0.00  0.00     0.014 C 
ENDBRANCH  14  17
ENDBRANCH  10  13
ENDBRANCH   1   7
BRANCH   4  19
ATOM     19  C   UNL d   1      29.331 -15.957  -0.176  0.00  0.00     0.164 C 
BRANCH  19  20
ATOM     20  C   UNL d   1      30.252 -17.033  -0.778  0.00  0.00     0.091 C 
ATOM     21  C   UNL d   1      31.602 -17.037  -0.060  0.00  0.00     0.050 C 
BRANCH  20  22
ATOM     22  O   UNL d   1      29.624 -18.315  -0.626  0.00  0.00    -0.386 OA
ATOM     23  H   UNL d   1      29.162 -18.328   0.225  0.00  0.00     0.210 HD
ENDBRANCH  20  22
BRANCH  20  24
ATOM     24  C   UNL d   1      30.468 -16.776  -2.291  0.00  0.00     0.206 C 
BRANCH  24  25
ATOM     25  O   UNL d   1      29.203 -16.576  -2.940  0.00  0.00    -0.393 OA
ATOM     26  C   UNL d   1      29.277 -15.580  -3.946  0.00  0.00     0.201 C 
ENDBRANCH  24  25
ENDBRANCH  20  24
ENDBRANCH  19  20
ENDBRANCH   4  19
TORSDOF 8
ENDMDL
MODEL 7
REMARK VINA RESULT:    -6.277      1.553      2.681
REMARK INTER + INTRA:         -10.556
REMARK INTER:                  -8.663
REMARK INTRA:                  -1.892
REMARK CONF_INDEPENDENT:        2.386
REMARK UNBOUND:                -1.892
REMARK  8 active torsions:
REMARK  status: ('A' for Active; 'I' for Inactive)
REMARK    1  A    between atoms: C_2  and  C_3 
REMARK       I    between atoms: C_3  and  N_5 
REMARK    2  A    between atoms: N_5  and  C_6 
REMARK    3  A    between atoms: C_9  and  N_10 
REMARK       I    between atoms: N_10  and  C_11 
REMARK       I    between atoms: C_11  and  N_13 
REMARK    4  A    between atoms: N_13  and  C_14 
REMARK    5  A    between atoms: C_14  and  C_15 
REMARK    6  A    between atoms: C_15  and  O_17 
REMARK    7  A    between atoms: C_15  and  C_18 
REMARK    8  A    between atoms: C_18  and  O_19 
ROOT
ATOM      1  N   UNL d   1      27.561 -15.480  -1.834  0.00  0.00    -0.309 N 
ATOM      2  C   UNL d   1      27.879 -15.423  -3.184  0.00  0.00     0.320 C 
ATOM      3  O   UNL d   1      27.252 -15.945  -4.109  0.00  0.00    -0.247 OA
ATOM      4  N   UNL d   1      29.004 -14.702  -3.505  0.00  0.00    -0.340 N 
ATOM      5  H   UNL d   1      28.184 -15.043  -1.171  0.00  0.00     0.170 HD
ATOM      6  H   UNL d   1      29.521 -14.211  -2.794  0.00  0.00     0.164 HD
ENDROOT
BRANCH   1   7
ATOM      7  C   UNL d   1      26.466 -16.239  -1.301  0.00  0.00     0.036 A 
ATOM      8  C   UNL d   1      26.541 -16.923  -0.073  0.00  0.00     0.032 A 
ATOM      9  C   UNL d   1      25.482 -17.780   0.355  0.00  0.00     0.032 A 
ATOM     10  C   UNL d   1      24.341 -17.942  -0.438  0.00  0.00     0.034 A 
ATOM     11  C   UNL d   1      24.246 -17.194  -1.600  0.00  0.00     0.032 A 
ATOM     12  C   UNL d   1      25.276 -16.363  -2.012  0.00  0.00     0.032 A 
BRANCH  10  13
ATOM     13  N   UNL d   1      23.270 -18.819  -0.124  0.00  0.00    -0.327 N 
ATOM     14  C   UNL d   1      21.951 -18.411  -0.322  0.00  0.00     0.221 C 
ATOM     15  O   UNL d   1      21.641 -17.349  -0.863  0.00  0.00    -0.273 OA
ATOM     16  H   UNL d   1      23.479 -19.774   0.136  0.00  0.00     0.169 HD
BRANCH  14  17
ATOM     17  C   UNL d   1      20.869 -19.373   0.138  0.00  0.00     0.098 C 
ATOM     18  C   UNL d   1      19.736 -19.396  -0.893  0.00  0.00     0.014 C 
ENDBRANCH  14  17
ENDBRANCH  10  13
ENDBRANCH   1   7
BRANCH   4  19
ATOM     19  C   UNL d   1      29.346 -14.564  -4.934  0.00  0.00     0.164 C 
BRANCH  19  20
ATOM     20  C   UNL d   1      28.236 -13.950  -5.807  0.00  0.00     0.091 C 
ATOM     21  C   UNL d   1      28.849 -13.145  -6.953  0.00  0.00     0.050 C 
BRANCH  20  22
ATOM     22  O   UNL d   1      27.431 -15.011  -6.343  0.00  0.00    -0.386 OA
ATOM     23  H   UNL d   1      26.781 -15.268  -5.672  0.00  0.00     0.210 HD
ENDBRANCH  20  22
BRANCH  20  24
ATOM     24  C   UNL d   1      27.323 -13.033  -4.956  0.00  0.00     0.206 C 
BRANCH  24  25
ATOM     25  O   UNL d   1      26.091 -13.706  -4.659  0.00  0.00    -0.393 OA
ATOM     26  C   UNL d   1      25.145 -12.836  -4.059  0.00  0.00     0.201 C 
ENDBRANCH  24  25
ENDBRANCH  20  24
ENDBRANCH  19  20
ENDBRANCH   4  19
TORSDOF 8
ENDMDL
MODEL 8
REMARK VINA RESULT:    -6.268      3.700      4.442
REMARK INTER + INTRA:         -10.684
REMARK INTER:                  -8.654
REMARK INTRA:                  -2.030
REMARK CONF_INDEPENDENT:        2.386
REMARK UNBOUND:                -2.030
REMARK  8 active torsions:
REMARK  status: ('A' for Active; 'I' for Inactive)
REMARK    1  A    between atoms: C_2  and  C_3 
REMARK       I    between atoms: C_3  and  N_5 
REMARK    2  A    between atoms: N_5  and  C_6 
REMARK    3  A    between atoms: C_9  and  N_10 
REMARK       I    between atoms: N_10  and  C_11 
REMARK       I    between atoms: C_11  and  N_13 
REMARK    4  A    between atoms: N_13  and  C_14 
REMARK    5  A    between atoms: C_14  and  C_15 
REMARK    6  A    between atoms: C_15  and  O_17 
REMARK    7  A    between atoms: C_15  and  C_18 
REMARK    8  A    between atoms: C_18  and  O_19 
ROOT
ATOM      1  N   UNL d   1      25.787 -16.495  -1.081  0.00  0.00    -0.309 N 
ATOM      2  C   UNL d   1      26.957 -16.703  -0.362  0.00  0.00     0.320 C 
ATOM      3  O   UNL d   1      27.138 -17.552   0.514  0.00  0.00    -0.247 OA
ATOM      4  N   UNL d   1      28.008 -15.877  -0.675  0.00  0.00    -0.340 N 
ATOM      5  H   UNL d   1      25.756 -15.734  -1.743  0.00  0.00     0.170 HD
ATOM      6  H   UNL d   1      27.930 -15.204  -1.419  0.00  0.00     0.164 HD
ENDROOT
BRANCH   1   7
ATOM      7  C   UNL d   1      24.566 -17.211  -0.848  0.00  0.00     0.036 A 
ATOM      8  C   UNL d   1      23.302 -16.594  -0.893  0.00  0.00     0.032 A 
ATOM      9  C   UNL d   1      22.123 -17.307  -0.518  0.00  0.00     0.032 A 
ATOM     10  C   UNL d   1      22.206 -18.644  -0.113  0.00  0.00     0.034 A 
ATOM     11  C   UNL d   1      23.445 -19.261  -0.159  0.00  0.00     0.032 A 
ATOM     12  C   UNL d   1      24.588 -18.564  -0.523  0.00  0.00     0.032 A 
BRANCH  10  13
ATOM     13  N   UNL d   1      21.100 -19.411   0.336  0.00  0.00    -0.327 N 
ATOM     14  C   UNL d   1      20.136 -19.846  -0.573  0.00  0.00     0.221 C 
ATOM     15  O   UNL d   1      20.232 -19.696  -1.792  0.00  0.00    -0.273 OA
ATOM     16  H   UNL d   1      21.081 -19.728   1.296  0.00  0.00     0.169 HD
BRANCH  14  17
ATOM     17  C   UNL d   1      18.934 -20.571   0.010  0.00  0.00     0.098 C 
ATOM     18  C   UNL d   1      18.765 -20.178   1.480  0.00  0.00     0.014 C 
ENDBRANCH  14  17
ENDBRANCH  10  13
ENDBRANCH   1   7
BRANCH   4  19
ATOM     19  C   UNL d   1      29.290 -16.104   0.021  0.00  0.00     0.164 C 
BRANCH  19  20
ATOM     20  C   UNL d   1      30.112 -14.831   0.291  0.00  0.00     0.091 C 
ATOM     21  C   UNL d   1      31.573 -15.050  -0.105  0.00  0.00     0.050 C 
BRANCH  20  22
ATOM     22  O   UNL d   1      29.562 -13.754  -0.482  0.00  0.00    -0.386 OA
ATOM     23  H   UNL d   1      28.938 -13.267   0.076  0.00  0.00     0.210 HD
ENDBRANCH  20  22
BRANCH  20  24
ATOM     24  C   UNL d   1      30.032 -14.442   1.789  0.00  0.00     0.206 C 
BRANCH  24  25
ATOM     25  O   UNL d   1      28.739 -13.893   2.084  0.00  0.00    -0.393 OA
ATOM     26  C   UNL d   1      28.195 -14.434   3.276  0.00  0.00     0.201 C 
ENDBRANCH  24  25
ENDBRANCH  20  24
ENDBRANCH  19  20
ENDBRANCH   4  19
TORSDOF 8
ENDMDL
MODEL 9
REMARK VINA RESULT:    -6.112      5.418      6.214
REMARK INTER + INTRA:         -10.603
REMARK INTER:                  -8.498
REMARK INTRA:                  -2.105
REMARK CONF_INDEPENDENT:        2.386
REMARK UNBOUND:                -2.105
REMARK  8 active torsions:
REMARK  status: ('A' for Active; 'I' for Inactive)
REMARK    1  A    between atoms: C_2  and  C_3 
REMARK       I    between atoms: C_3  and  N_5 
REMARK    2  A    between atoms: N_5  and  C_6 
REMARK    3  A    between atoms: C_9  and  N_10 
REMARK       I    between atoms: N_10  and  C_11 
REMARK       I    between atoms: C_11  and  N_13 
REMARK    4  A    between atoms: N_13  and  C_14 
REMARK    5  A    between atoms: C_14  and  C_15 
REMARK    6  A    between atoms: C_15  and  O_17 
REMARK    7  A    between atoms: C_15  and  C_18 
REMARK    8  A    between atoms: C_18  and  O_19 
ROOT
ATOM      1  N   UNL d   1      27.718 -16.341   0.937  0.00  0.00    -0.309 N 
ATOM      2  C   UNL d   1      27.795 -15.052   1.446  0.00  0.00     0.320 C 
ATOM      3  O   UNL d   1      26.907 -14.197   1.416  0.00  0.00    -0.247 OA
ATOM      4  N   UNL d   1      28.984 -14.715   2.046  0.00  0.00    -0.340 N 
ATOM      5  H   UNL d   1      28.536 -16.931   0.987  0.00  0.00     0.170 HD
ATOM      6  H   UNL d   1      29.721 -15.393   2.145  0.00  0.00     0.164 HD
ENDROOT
BRANCH   1   7
ATOM      7  C   UNL d   1      26.586 -16.851   0.217  0.00  0.00     0.036 A 
ATOM      8  C   UNL d   1      25.931 -16.117  -0.789  0.00  0.00     0.032 A 
ATOM      9  C   UNL d   1      24.725 -16.600  -1.383  0.00  0.00     0.032 A 
ATOM     10  C   UNL d   1      24.183 -17.825  -0.981  0.00  0.00     0.034 A 
ATOM     11  C   UNL d   1      24.887 -18.574  -0.053  0.00  0.00     0.032 A 
ATOM     12  C   UNL d   1      26.057 -18.102   0.521  0.00  0.00     0.032 A 
BRANCH  10  13
ATOM     13  N   UNL d   1      22.959 -18.353  -1.468  0.00  0.00    -0.327 N 
ATOM     14  C   UNL d   1      21.903 -18.597  -0.589  0.00  0.00     0.221 C 
ATOM     15  O   UNL d   1      21.921 -18.279   0.601  0.00  0.00    -0.273 OA
ATOM     16  H   UNL d   1      22.827 -18.443  -2.467  0.00  0.00     0.169 HD
BRANCH  14  17
ATOM     17  C   UNL d   1      20.670 -19.258  -1.180  0.00  0.00     0.098 C 
ATOM     18  C   UNL d   1      19.728 -19.684  -0.049  0.00  0.00     0.014 C 
ENDBRANCH  14  17
ENDBRANCH  10  13
ENDBRANCH   1   7
BRANCH   4  19
ATOM     19  C   UNL d   1      29.089 -13.375   2.656  0.00  0.00     0.164 C 
BRANCH  19  20
ATOM     20  C   UNL d   1      30.290 -13.187   3.600  0.00  0.00     0.091 C 
ATOM     21  C   UNL d   1      29.806 -12.895   5.021  0.00  0.00     0.050 C 
BRANCH  20  22
ATOM     22  O   UNL d   1      31.071 -14.391   3.597  0.00  0.00    -0.386 OA
ATOM     23  H   UNL d   1      31.901 -14.216   4.065  0.00  0.00     0.210 HD
ENDBRANCH  20  22
BRANCH  20  24
ATOM     24  C   UNL d   1      31.189 -12.025   3.107  0.00  0.00     0.206 C 
BRANCH  24  25
ATOM     25  O   UNL d   1      32.557 -12.456   3.045  0.00  0.00    -0.393 OA
ATOM     26  C   UNL d   1      33.356 -11.819   4.028  0.00  0.00     0.201 C 
ENDBRANCH  24  25
ENDBRANCH  20  24
ENDBRANCH  19  20
ENDBRANCH   4  19
TORSDOF 8
ENDMDL
