MODEL 1
REMARK VINA RESULT:    -9.161      0.000      0.000
REMARK INTER + INTRA:         -12.069
REMARK INTER:                 -10.653
REMARK INTRA:                  -1.416
REMARK CONF_INDEPENDENT:        1.492
REMARK UNBOUND:                -1.416
REMARK  5 active torsions:
REMARK  status: ('A' for Active; 'I' for Inactive)
REMARK       I    between atoms: C_2  and  N_3 
REMARK    1  A    between atoms: C_2  and  C_17 
REMARK    2  A    between atoms: N_3  and  N_4 
REMARK    3  A    between atoms: C_5  and  C_6 
REMARK    4  A    between atoms: C_15  and  O_16 
REMARK    5  A    between atoms: C_22  and  O_23 
ROOT
ATOM      1  N   UNL d   1      23.070 -18.356  -0.396  0.00  0.00    -0.183 NA
ATOM      2  C   UNL d   1      24.197 -18.199   0.222  0.00  0.00     0.153 C 
ENDROOT
BRANCH   1   3
ATOM      3  N   UNL d   1      22.052 -19.064   0.210  0.00  0.00    -0.243 N 
ATOM      4  C   UNL d   1      20.767 -18.941  -0.326  0.00  0.00     0.274 C 
ATOM      5  O   UNL d   1      20.483 -18.197  -1.270  0.00  0.00    -0.266 OA
ATOM      6  H   UNL d   1      22.260 -19.697   0.972  0.00  0.00     0.192 HD
BRANCH   4   7
ATOM      7  C   UNL d   1      19.665 -19.742   0.290  0.00  0.00     0.066 A 
ATOM      8  C   UNL d   1      18.660 -20.328  -0.494  0.00  0.00     0.020 A 
ATOM      9  C   UNL d   1      17.725 -21.200   0.091  0.00  0.00     0.001 A 
ATOM     10  C   UNL d   1      17.786 -21.493   1.455  0.00  0.00     0.003 A 
ATOM     11  C   UNL d   1      18.778 -20.914   2.245  0.00  0.00     0.037 A 
ATOM     12  C   UNL d   1      19.709 -20.045   1.663  0.00  0.00     0.081 A 
BRANCH  12  13
ATOM     13  O   UNL d   1      20.652 -19.454   2.459  0.00  0.00    -0.360 OA
ATOM     14  H   UNL d   1      21.371 -20.075   2.651  0.00  0.00     0.217 HD
ENDBRANCH  12  13
ENDBRANCH   4   7
ENDBRANCH   1   3
BRANCH   2  15
ATOM     15  C   UNL d   1      25.337 -17.469  -0.412  0.00  0.00     0.017 A 
ATOM     16  C   UNL d   1      26.639 -17.801  -0.028  0.00  0.00     0.017 A 
ATOM     17  C   UNL d   1      27.737 -17.192  -0.657  0.00  0.00     0.013 A 
ATOM     18  C   UNL d   1      27.560 -16.221  -1.658  0.00  0.00    -0.023 A 
ATOM     19  C   UNL d   1      28.672 -15.618  -2.283  0.00  0.00     0.012 A 
ATOM     20  C   UNL d   1      26.248 -15.842  -2.035  0.00  0.00     0.008 A 
ATOM     21  C   UNL d   1      28.508 -14.638  -3.263  0.00  0.00     0.001 A 
ATOM     22  C   UNL d   1      27.231 -14.249  -3.635  0.00  0.00     0.001 A 
ATOM     23  C   UNL d   1      26.120 -14.841  -3.031  0.00  0.00     0.015 A 
ATOM     24  C   UNL d   1      25.146 -16.480  -1.390  0.00  0.00     0.088 A 
BRANCH  24  25
ATOM     25  O   UNL d   1      23.855 -16.096  -1.650  0.00  0.00    -0.359 OA
ATOM     26  H   UNL d   1      23.243 -16.825  -1.486  0.00  0.00     0.217 HD
ENDBRANCH  24  25
ENDBRANCH   2  15
TORSDOF 5
ENDMDL
MODEL 2
REMARK VINA RESULT:    -8.957      1.060      1.573
REMARK INTER + INTRA:         -11.969
REMARK INTER:                 -10.449
REMARK INTRA:                  -1.520
REMARK CONF_INDEPENDENT:        1.492
REMARK UNBOUND:                -1.520
REMARK  5 active torsions:
REMARK  status: ('A' for Active; 'I' for Inactive)
REMARK       I    between atoms: C_2  and  N_3 
REMARK    1  A    between atoms: C_2  and  C_17 
REMARK    2  A    between atoms: N_3  and  N_4 
REMARK    3  A    between atoms: C_5  and  C_6 
REMARK    4  A    between atoms: C_15  and  O_16 
REMARK    5  A    between atoms: C_22  and  O_23 
ROOT
ATOM      1  N   UNL d   1      23.479 -18.293  -0.858  0.00  0.00    -0.183 NA
ATOM      2  C   UNL d   1      24.501 -17.775  -0.254  0.00  0.00     0.153 C 
ENDROOT
BRANCH   1   3
ATOM      3  N   UNL d   1      22.574 -19.050  -0.144  0.00  0.00    -0.243 N 
ATOM      4  C   UNL d   1      21.215 -18.768  -0.313  0.00  0.00     0.274 C 
ATOM      5  O   UNL d   1      20.784 -17.850  -1.018  0.00  0.00    -0.266 OA
ATOM      6  H   UNL d   1      22.898 -19.822   0.426  0.00  0.00     0.192 HD
BRANCH   4   7
ATOM      7  C   UNL d   1      20.222 -19.615   0.417  0.00  0.00     0.066 A 
ATOM      8  C   UNL d   1      20.274 -19.767   1.811  0.00  0.00     0.020 A 
ATOM      9  C   UNL d   1      19.243 -20.441   2.488  0.00  0.00     0.001 A 
ATOM     10  C   UNL d   1      18.157 -20.965   1.784  0.00  0.00     0.003 A 
ATOM     11  C   UNL d   1      18.095 -20.823   0.399  0.00  0.00     0.037 A 
ATOM     12  C   UNL d   1      19.122 -20.152  -0.277  0.00  0.00     0.081 A 
BRANCH  12  13
ATOM     13  O   UNL d   1      19.067 -20.055  -1.641  0.00  0.00    -0.360 OA
ATOM     14  H   UNL d   1      19.323 -19.166  -1.928  0.00  0.00     0.217 HD
ENDBRANCH  12  13
ENDBRANCH   4   7
ENDBRANCH   1   3
BRANCH   2  15
ATOM     15  C   UNL d   1      25.523 -16.977  -0.997  0.00  0.00     0.017 A 
ATOM     16  C   UNL d   1      26.875 -17.254  -0.776  0.00  0.00     0.017 A 
ATOM     17  C   UNL d   1      27.862 -16.580  -1.513  0.00  0.00     0.013 A 
ATOM     18  C   UNL d   1      27.524 -15.597  -2.461  0.00  0.00    -0.023 A 
ATOM     19  C   UNL d   1      28.526 -14.927  -3.195  0.00  0.00     0.012 A 
ATOM     20  C   UNL d   1      26.160 -15.274  -2.671  0.00  0.00     0.008 A 
ATOM     21  C   UNL d   1      28.202 -13.936  -4.122  0.00  0.00     0.001 A 
ATOM     22  C   UNL d   1      26.874 -13.601  -4.332  0.00  0.00     0.001 A 
ATOM     23  C   UNL d   1      25.870 -14.259  -3.617  0.00  0.00     0.015 A 
ATOM     24  C   UNL d   1      25.173 -15.978  -1.919  0.00  0.00     0.088 A 
BRANCH  24  25
ATOM     25  O   UNL d   1      23.844 -15.651  -2.015  0.00  0.00    -0.359 OA
ATOM     26  H   UNL d   1      23.290 -16.389  -1.729  0.00  0.00     0.217 HD
ENDBRANCH  24  25
ENDBRANCH   2  15
TORSDOF 5
ENDMDL
MODEL 3
REMARK VINA RESULT:    -8.857      1.266      2.076
REMARK INTER + INTRA:         -11.170
REMARK INTER:                 -10.349
REMARK INTRA:                  -0.821
REMARK CONF_INDEPENDENT:        1.492
REMARK UNBOUND:                -0.821
REMARK  5 active torsions:
REMARK  status: ('A' for Active; 'I' for Inactive)
REMARK       I    between atoms: C_2  and  N_3 
REMARK    1  A    between atoms: C_2  and  C_17 
REMARK    2  A    between atoms: N_3  and  N_4 
REMARK    3  A    between atoms: C_5  and  C_6 
REMARK    4  A    between atoms: C_15  and  O_16 
REMARK    5  A    between atoms: C_22  and  O_23 
ROOT
ATOM      1  N   UNL d   1      23.276 -17.853  -0.100  0.00  0.00    -0.183 NA
ATOM      2  C   UNL d   1      24.462 -18.370  -0.150  0.00  0.00     0.153 C 
ENDROOT
BRANCH   1   3
ATOM      3  N   UNL d   1      22.235 -18.582   0.439  0.00  0.00    -0.243 N 
ATOM      4  C   UNL d   1      21.016 -18.578  -0.246  0.00  0.00     0.274 C 
ATOM      5  O   UNL d   1      20.803 -17.918  -1.268  0.00  0.00    -0.266 OA
ATOM      6  H   UNL d   1      22.388 -19.148   1.264  0.00  0.00     0.192 HD
BRANCH   4   7
ATOM      7  C   UNL d   1      19.897 -19.404   0.300  0.00  0.00     0.066 A 
ATOM      8  C   UNL d   1      18.999 -20.072  -0.547  0.00  0.00     0.020 A 
ATOM      9  C   UNL d   1      18.052 -20.962  -0.012  0.00  0.00     0.001 A 
ATOM     10  C   UNL d   1      17.993 -21.193   1.363  0.00  0.00     0.003 A 
ATOM     11  C   UNL d   1      18.877 -20.533   2.215  0.00  0.00     0.037 A 
ATOM     12  C   UNL d   1      19.820 -19.645   1.684  0.00  0.00     0.081 A 
BRANCH  12  13
ATOM     13  O   UNL d   1      20.655 -18.975   2.537  0.00  0.00    -0.360 OA
ATOM     14  H   UNL d   1      20.852 -18.091   2.194  0.00  0.00     0.217 HD
ENDBRANCH  12  13
ENDBRANCH   4   7
ENDBRANCH   1   3
BRANCH   2  15
ATOM     15  C   UNL d   1      25.610 -17.628  -0.755  0.00  0.00     0.017 A 
ATOM     16  C   UNL d   1      25.345 -16.692  -1.759  0.00  0.00     0.017 A 
ATOM     17  C   UNL d   1      26.387 -15.920  -2.296  0.00  0.00     0.013 A 
ATOM     18  C   UNL d   1      27.716 -16.085  -1.867  0.00  0.00    -0.023 A 
ATOM     19  C   UNL d   1      28.755 -15.303  -2.415  0.00  0.00     0.012 A 
ATOM     20  C   UNL d   1      28.012 -17.057  -0.878  0.00  0.00     0.008 A 
ATOM     21  C   UNL d   1      30.080 -15.474  -2.011  0.00  0.00     0.001 A 
ATOM     22  C   UNL d   1      30.386 -16.427  -1.054  0.00  0.00     0.001 A 
ATOM     23  C   UNL d   1      29.369 -17.205  -0.497  0.00  0.00     0.015 A 
ATOM     24  C   UNL d   1      26.936 -17.824  -0.339  0.00  0.00     0.088 A 
BRANCH  24  25
ATOM     25  O   UNL d   1      27.169 -18.837   0.557  0.00  0.00    -0.359 OA
ATOM     26  H   UNL d   1      28.115 -19.019   0.626  0.00  0.00     0.217 HD
ENDBRANCH  24  25
ENDBRANCH   2  15
TORSDOF 5
ENDMDL
MODEL 4
REMARK VINA RESULT:    -8.358      1.463      2.391
REMARK INTER + INTRA:         -11.312
REMARK INTER:                  -9.849
REMARK INTRA:                  -1.463
REMARK CONF_INDEPENDENT:        1.492
REMARK UNBOUND:                -1.463
REMARK  5 active torsions:
REMARK  status: ('A' for Active; 'I' for Inactive)
REMARK       I    between atoms: C_2  and  N_3 
REMARK    1  A    between atoms: C_2  and  C_17 
REMARK    2  A    between atoms: N_3  and  N_4 
REMARK    3  A    between atoms: C_5  and  C_6 
REMARK    4  A    between atoms: C_15  and  O_16 
REMARK    5  A    between atoms: C_22  and  O_23 
ROOT
ATOM      1  N   UNL d   1      23.713 -18.311  -0.963  0.00  0.00    -0.183 NA
ATOM      2  C   UNL d   1      23.827 -17.027  -0.834  0.00  0.00     0.153 C 
ENDROOT
BRANCH   1   3
ATOM      3  N   UNL d   1      22.786 -18.994  -0.203  0.00  0.00    -0.243 N 
ATOM      4  C   UNL d   1      21.434 -18.715  -0.422  0.00  0.00     0.274 C 
ATOM      5  O   UNL d   1      21.027 -17.856  -1.212  0.00  0.00    -0.266 OA
ATOM      6  H   UNL d   1      23.090 -19.717   0.437  0.00  0.00     0.192 HD
BRANCH   4   7
ATOM      7  C   UNL d   1      20.418 -19.484   0.359  0.00  0.00     0.066 A 
ATOM      8  C   UNL d   1      20.516 -19.623   1.752  0.00  0.00     0.020 A 
ATOM      9  C   UNL d   1      19.471 -20.219   2.479  0.00  0.00     0.001 A 
ATOM     10  C   UNL d   1      18.326 -20.679   1.826  0.00  0.00     0.003 A 
ATOM     11  C   UNL d   1      18.218 -20.550   0.442  0.00  0.00     0.037 A 
ATOM     12  C   UNL d   1      19.259 -19.957  -0.283  0.00  0.00     0.081 A 
BRANCH  12  13
ATOM     13  O   UNL d   1      19.155 -19.873  -1.645  0.00  0.00    -0.360 OA
ATOM     14  H   UNL d   1      19.296 -18.961  -1.941  0.00  0.00     0.217 HD
ENDBRANCH  12  13
ENDBRANCH   4   7
ENDBRANCH   1   3
BRANCH   2  15
ATOM     15  C   UNL d   1      24.841 -16.254  -1.614  0.00  0.00     0.017 A 
ATOM     16  C   UNL d   1      24.405 -15.180  -2.395  0.00  0.00     0.017 A 
ATOM     17  C   UNL d   1      25.336 -14.381  -3.078  0.00  0.00     0.013 A 
ATOM     18  C   UNL d   1      26.714 -14.654  -3.021  0.00  0.00    -0.023 A 
ATOM     19  C   UNL d   1      27.639 -13.843  -3.713  0.00  0.00     0.012 A 
ATOM     20  C   UNL d   1      27.173 -15.762  -2.266  0.00  0.00     0.008 A 
ATOM     21  C   UNL d   1      29.008 -14.117  -3.680  0.00  0.00     0.001 A 
ATOM     22  C   UNL d   1      29.471 -15.203  -2.955  0.00  0.00     0.001 A 
ATOM     23  C   UNL d   1      28.569 -16.011  -2.260  0.00  0.00     0.015 A 
ATOM     24  C   UNL d   1      26.211 -16.554  -1.572  0.00  0.00     0.088 A 
BRANCH  24  25
ATOM     25  O   UNL d   1      26.585 -17.688  -0.895  0.00  0.00    -0.359 OA
ATOM     26  H   UNL d   1      25.881 -18.349  -0.923  0.00  0.00     0.217 HD
ENDBRANCH  24  25
ENDBRANCH   2  15
TORSDOF 5
ENDMDL
MODEL 5
REMARK VINA RESULT:    -6.431      5.146     10.805
REMARK INTER + INTRA:          -9.476
REMARK INTER:                  -7.922
REMARK INTRA:                  -1.554
REMARK CONF_INDEPENDENT:        1.492
REMARK UNBOUND:                -1.554
REMARK  5 active torsions:
REMARK  status: ('A' for Active; 'I' for Inactive)
REMARK       I    between atoms: C_2  and  N_3 
REMARK    1  A    between atoms: C_2  and  C_17 
REMARK    2  A    between atoms: N_3  and  N_4 
REMARK    3  A    between atoms: C_5  and  C_6 
REMARK    4  A    between atoms: C_15  and  O_16 
REMARK    5  A    between atoms: C_22  and  O_23 
ROOT
ATOM      1  N   UNL d   1      27.954 -15.170  -5.994  0.00  0.00    -0.183 NA
ATOM      2  C   UNL d   1      28.273 -14.822  -4.788  0.00  0.00     0.153 C 
ENDROOT
BRANCH   1   3
ATOM      3  N   UNL d   1      28.481 -14.479  -7.065  0.00  0.00    -0.243 N 
ATOM      4  C   UNL d   1      28.151 -13.126  -7.192  0.00  0.00     0.274 C 
ATOM      5  O   UNL d   1      27.374 -12.533  -6.437  0.00  0.00    -0.266 OA
ATOM      6  H   UNL d   1      29.137 -14.934  -7.688  0.00  0.00     0.192 HD
BRANCH   4   7
ATOM      7  C   UNL d   1      28.757 -12.354  -8.320  0.00  0.00     0.066 A 
ATOM      8  C   UNL d   1      28.064 -11.306  -8.945  0.00  0.00     0.020 A 
ATOM      9  C   UNL d   1      28.711 -10.499  -9.896  0.00  0.00     0.001 A 
ATOM     10  C   UNL d   1      30.047 -10.729 -10.230  0.00  0.00     0.003 A 
ATOM     11  C   UNL d   1      30.745 -11.769  -9.619  0.00  0.00     0.037 A 
ATOM     12  C   UNL d   1      30.101 -12.574  -8.671  0.00  0.00     0.081 A 
BRANCH  12  13
ATOM     13  O   UNL d   1      30.788 -13.616  -8.109  0.00  0.00    -0.360 OA
ATOM     14  H   UNL d   1      31.161 -14.187  -8.797  0.00  0.00     0.217 HD
ENDBRANCH  12  13
ENDBRANCH   4   7
ENDBRANCH   1   3
BRANCH   2  15
ATOM     15  C   UNL d   1      27.698 -15.523  -3.598  0.00  0.00     0.017 A 
ATOM     16  C   UNL d   1      28.575 -16.106  -2.679  0.00  0.00     0.017 A 
ATOM     17  C   UNL d   1      28.076 -16.704  -1.511  0.00  0.00     0.013 A 
ATOM     18  C   UNL d   1      26.696 -16.758  -1.249  0.00  0.00    -0.023 A 
ATOM     19  C   UNL d   1      26.208 -17.362  -0.070  0.00  0.00     0.012 A 
ATOM     20  C   UNL d   1      25.788 -16.207  -2.187  0.00  0.00     0.008 A 
ATOM     21  C   UNL d   1      24.839 -17.440   0.189  0.00  0.00     0.001 A 
ATOM     22  C   UNL d   1      23.938 -16.915  -0.723  0.00  0.00     0.001 A 
ATOM     23  C   UNL d   1      24.405 -16.309  -1.892  0.00  0.00     0.015 A 
ATOM     24  C   UNL d   1      26.316 -15.596  -3.363  0.00  0.00     0.088 A 
BRANCH  24  25
ATOM     25  O   UNL d   1      25.486 -15.121  -4.348  0.00  0.00    -0.359 OA
ATOM     26  H   UNL d   1      26.000 -14.793  -5.097  0.00  0.00     0.217 HD
ENDBRANCH  24  25
ENDBRANCH   2  15
TORSDOF 5
ENDMDL
MODEL 6
REMARK VINA RESULT:    -6.335      4.544     10.095
REMARK INTER + INTRA:          -9.128
REMARK INTER:                  -7.826
REMARK INTRA:                  -1.302
REMARK CONF_INDEPENDENT:        1.492
REMARK UNBOUND:                -1.302
REMARK  5 active torsions:
REMARK  status: ('A' for Active; 'I' for Inactive)
REMARK       I    between atoms: C_2  and  N_3 
REMARK    1  A    between atoms: C_2  and  C_17 
REMARK    2  A    between atoms: N_3  and  N_4 
REMARK    3  A    between atoms: C_5  and  C_6 
REMARK    4  A    between atoms: C_15  and  O_16 
REMARK    5  A    between atoms: C_22  and  O_23 
ROOT
ATOM      1  N   UNL d   1      25.374 -13.194  -4.352  0.00  0.00    -0.183 NA
ATOM      2  C   UNL d   1      26.226 -13.626  -3.477  0.00  0.00     0.153 C 
ENDROOT
BRANCH   1   3
ATOM      3  N   UNL d   1      25.655 -12.051  -5.071  0.00  0.00    -0.243 N 
ATOM      4  C   UNL d   1      26.714 -12.101  -5.983  0.00  0.00     0.274 C 
ATOM      5  O   UNL d   1      27.443 -13.086  -6.138  0.00  0.00    -0.266 OA
ATOM      6  H   UNL d   1      25.062 -11.236  -4.979  0.00  0.00     0.192 HD
BRANCH   4   7
ATOM      7  C   UNL d   1      26.997 -10.885  -6.805  0.00  0.00     0.066 A 
ATOM      8  C   UNL d   1      28.017 -10.873  -7.768  0.00  0.00     0.020 A 
ATOM      9  C   UNL d   1      28.163  -9.774  -8.631  0.00  0.00     0.001 A 
ATOM     10  C   UNL d   1      27.296  -8.684  -8.542  0.00  0.00     0.003 A 
ATOM     11  C   UNL d   1      26.280  -8.681  -7.588  0.00  0.00     0.037 A 
ATOM     12  C   UNL d   1      26.134  -9.776  -6.727  0.00  0.00     0.081 A 
BRANCH  12  13
ATOM     13  O   UNL d   1      25.157  -9.742  -5.769  0.00  0.00    -0.360 OA
ATOM     14  H   UNL d   1      24.405 -10.293  -6.032  0.00  0.00     0.217 HD
ENDBRANCH  12  13
ENDBRANCH   4   7
ENDBRANCH   1   3
BRANCH   2  15
ATOM     15  C   UNL d   1      25.946 -14.841  -2.652  0.00  0.00     0.017 A 
ATOM     16  C   UNL d   1      27.022 -15.634  -2.245  0.00  0.00     0.017 A 
ATOM     17  C   UNL d   1      26.807 -16.738  -1.405  0.00  0.00     0.013 A 
ATOM     18  C   UNL d   1      25.514 -17.091  -0.978  0.00  0.00    -0.023 A 
ATOM     19  C   UNL d   1      25.312 -18.203  -0.133  0.00  0.00     0.012 A 
ATOM     20  C   UNL d   1      24.405 -16.323  -1.412  0.00  0.00     0.008 A 
ATOM     21  C   UNL d   1      24.031 -18.575   0.279  0.00  0.00     0.001 A 
ATOM     22  C   UNL d   1      22.936 -17.841  -0.145  0.00  0.00     0.001 A 
ATOM     23  C   UNL d   1      23.120 -16.733  -0.977  0.00  0.00     0.015 A 
ATOM     24  C   UNL d   1      24.647 -15.200  -2.258  0.00  0.00     0.088 A 
BRANCH  24  25
ATOM     25  O   UNL d   1      23.609 -14.470  -2.779  0.00  0.00    -0.359 OA
ATOM     26  H   UNL d   1      23.921 -13.891  -3.486  0.00  0.00     0.217 HD
ENDBRANCH  24  25
ENDBRANCH   2  15
TORSDOF 5
ENDMDL
