MODEL 1
REMARK VINA RESULT:    -8.708      0.000      0.000
REMARK INTER + INTRA:         -11.772
REMARK INTER:                 -10.498
REMARK INTRA:                  -1.274
REMARK CONF_INDEPENDENT:        1.790
REMARK UNBOUND:                -1.274
REMARK  6 active torsions:
REMARK  status: ('A' for Active; 'I' for Inactive)
REMARK       I    between atoms: N_2  and  C_3 
REMARK    1  A    between atoms: C_3  and  C_5 
REMARK    2  A    between atoms: C_8  and  N_9 
REMARK       I    between atoms: N_9  and  C_10 
REMARK    3  A    between atoms: C_10  and  C_12 
REMARK    4  A    between atoms: C_12  and  N_13 
REMARK    5  A    between atoms: N_13  and  C_14 
REMARK    6  A    between atoms: C_20  and  S_21 
ROOT
ATOM      1  N   UNL d   1      25.605 -16.410  -0.687  0.00  0.00    -0.326 N 
ATOM      2  C   UNL d   1      26.838 -16.831  -0.153  0.00  0.00     0.235 C 
ATOM      3  O   UNL d   1      26.973 -17.831   0.561  0.00  0.00    -0.272 OA
ATOM      4  H   UNL d   1      25.498 -15.451  -1.004  0.00  0.00     0.169 HD
ENDROOT
BRANCH   2   5
ATOM      5  C   UNL d   1      28.109 -15.983  -0.413  0.00  0.00     0.195 C 
BRANCH   5   6
ATOM      6  N   UNL d   1      28.670 -15.496   0.841  0.00  0.00    -0.283 NA
ATOM      7  H   UNL d   1      28.909 -16.247   1.499  0.00  0.00     0.128 HD
BRANCH   6   8
ATOM      8  C   UNL d   1      28.046 -14.399   1.461  0.00  0.00     0.027 A 
ATOM      9  C   UNL d   1      28.238 -14.449   2.867  0.00  0.00     0.048 A 
ATOM     10  C   UNL d   1      27.723 -13.492   3.729  0.00  0.00     0.035 A 
ATOM     11 CL   UNL d   1      27.906 -13.688   5.427  0.00  0.00    -0.084 Cl
ATOM     12  C   UNL d   1      27.043 -12.409   3.208  0.00  0.00     0.025 A 
ATOM     13  C   UNL d   1      26.800 -12.349   1.823  0.00  0.00     0.022 A 
ATOM     14  C   UNL d   1      27.253 -13.351   0.905  0.00  0.00     0.021 A 
BRANCH  14  15
ATOM     15  S   UNL d   1      26.655 -12.948  -0.806  0.00  0.00    -0.133 SA
ATOM     16  C   UNL d   1      28.012 -12.904  -2.051  0.00  0.00     0.095 C 
ENDBRANCH  14  15
ENDBRANCH   6   8
ENDBRANCH   5   6
ENDBRANCH   2   5
BRANCH   1  17
ATOM     17  C   UNL d   1      24.414 -17.224  -0.696  0.00  0.00     0.034 A 
ATOM     18  C   UNL d   1      24.445 -18.615  -0.489  0.00  0.00     0.030 A 
ATOM     19  C   UNL d   1      23.242 -19.379  -0.521  0.00  0.00     0.019 A 
ATOM     20  C   UNL d   1      21.999 -18.757  -0.715  0.00  0.00     0.032 A 
ATOM     21  C   UNL d   1      21.966 -17.386  -0.895  0.00  0.00     0.019 A 
ATOM     22  C   UNL d   1      23.152 -16.648  -0.872  0.00  0.00     0.030 A 
BRANCH  20  23
ATOM     23  C   UNL d   1      20.715 -19.509  -0.565  0.00  0.00     0.251 C 
ATOM     24  N   UNL d   1      20.420 -19.984   0.709  0.00  0.00    -0.361 N 
ATOM     25  C   UNL d   1      19.212 -20.743   0.946  0.00  0.00     0.149 C 
ATOM     26  H   UNL d   1      21.005 -19.746   1.497  0.00  0.00     0.162 HD
ATOM     27  O   UNL d   1      20.012 -19.700  -1.533  0.00  0.00    -0.268 OA
ENDBRANCH  20  23
ENDBRANCH   1  17
TORSDOF 6
ENDMDL
MODEL 2
REMARK VINA RESULT:    -8.671      1.049      1.492
REMARK INTER + INTRA:         -11.949
REMARK INTER:                 -10.460
REMARK INTRA:                  -1.489
REMARK CONF_INDEPENDENT:        1.790
REMARK UNBOUND:                -1.489
REMARK  6 active torsions:
REMARK  status: ('A' for Active; 'I' for Inactive)
REMARK       I    between atoms: N_2  and  C_3 
REMARK    1  A    between atoms: C_3  and  C_5 
REMARK    2  A    between atoms: C_8  and  N_9 
REMARK       I    between atoms: N_9  and  C_10 
REMARK    3  A    between atoms: C_10  and  C_12 
REMARK    4  A    between atoms: C_12  and  N_13 
REMARK    5  A    between atoms: N_13  and  C_14 
REMARK    6  A    between atoms: C_20  and  S_21 
ROOT
ATOM      1  N   UNL d   1      26.015 -16.943  -0.881  0.00  0.00    -0.326 N 
ATOM      2  C   UNL d   1      27.120 -17.459  -0.177  0.00  0.00     0.235 C 
ATOM      3  O   UNL d   1      27.024 -18.173   0.827  0.00  0.00    -0.272 OA
ATOM      4  H   UNL d   1      26.140 -16.144  -1.495  0.00  0.00     0.169 HD
ENDROOT
BRANCH   2   5
ATOM      5  C   UNL d   1      28.554 -17.081  -0.630  0.00  0.00     0.195 C 
BRANCH   5   6
ATOM      6  N   UNL d   1      29.107 -16.038   0.224  0.00  0.00    -0.283 NA
ATOM      7  H   UNL d   1      29.636 -16.405   1.025  0.00  0.00     0.128 HD
BRANCH   6   8
ATOM      8  C   UNL d   1      28.279 -14.954   0.563  0.00  0.00     0.027 A 
ATOM      9  C   UNL d   1      28.236 -14.784   1.972  0.00  0.00     0.048 A 
ATOM     10  C   UNL d   1      27.488 -13.789   2.584  0.00  0.00     0.035 A 
ATOM     11 CL   UNL d   1      27.402 -13.723   4.300  0.00  0.00    -0.084 Cl
ATOM     12  C   UNL d   1      26.800 -12.883   1.803  0.00  0.00     0.025 A 
ATOM     13  C   UNL d   1      26.788 -13.046   0.405  0.00  0.00     0.022 A 
ATOM     14  C   UNL d   1      27.489 -14.101  -0.264  0.00  0.00     0.021 A 
BRANCH  14  15
ATOM     15  S   UNL d   1      27.150 -14.017  -2.088  0.00  0.00    -0.133 SA
ATOM     16  C   UNL d   1      25.369 -14.234  -2.501  0.00  0.00     0.095 C 
ENDBRANCH  14  15
ENDBRANCH   6   8
ENDBRANCH   5   6
ENDBRANCH   2   5
BRANCH   1  17
ATOM     17  C   UNL d   1      24.659 -17.397  -0.689  0.00  0.00     0.034 A 
ATOM     18  C   UNL d   1      23.554 -16.527  -0.731  0.00  0.00     0.030 A 
ATOM     19  C   UNL d   1      22.234 -17.021  -0.522  0.00  0.00     0.019 A 
ATOM     20  C   UNL d   1      22.002 -18.390  -0.315  0.00  0.00     0.032 A 
ATOM     21  C   UNL d   1      23.086 -19.250  -0.299  0.00  0.00     0.019 A 
ATOM     22  C   UNL d   1      24.377 -18.753  -0.494  0.00  0.00     0.030 A 
BRANCH  20  23
ATOM     23  C   UNL d   1      20.617 -18.953  -0.283  0.00  0.00     0.251 C 
ATOM     24  N   UNL d   1      20.440 -20.126   0.443  0.00  0.00    -0.361 N 
ATOM     25  C   UNL d   1      19.141 -20.757   0.511  0.00  0.00     0.149 C 
ATOM     26  H   UNL d   1      21.196 -20.514   0.989  0.00  0.00     0.162 HD
ATOM     27  O   UNL d   1      19.729 -18.401  -0.895  0.00  0.00    -0.268 OA
ENDBRANCH  20  23
ENDBRANCH   1  17
TORSDOF 6
ENDMDL
MODEL 3
REMARK VINA RESULT:    -8.588      3.721      4.850
REMARK INTER + INTRA:         -11.299
REMARK INTER:                 -10.378
REMARK INTRA:                  -0.922
REMARK CONF_INDEPENDENT:        1.790
REMARK UNBOUND:                -0.922
REMARK  6 active torsions:
REMARK  status: ('A' for Active; 'I' for Inactive)
REMARK       I    between atoms: N_2  and  C_3 
REMARK    1  A    between atoms: C_3  and  C_5 
REMARK    2  A    between atoms: C_8  and  N_9 
REMARK       I    between atoms: N_9  and  C_10 
REMARK    3  A    between atoms: C_10  and  C_12 
REMARK    4  A    between atoms: C_12  and  N_13 
REMARK    5  A    between atoms: N_13  and  C_14 
REMARK    6  A    between atoms: C_20  and  S_21 
ROOT
ATOM      1  N   UNL d   1      25.442 -16.372  -0.978  0.00  0.00    -0.326 N 
ATOM      2  C   UNL d   1      25.637 -15.410  -1.989  0.00  0.00     0.235 C 
ATOM      3  O   UNL d   1      24.940 -15.331  -3.007  0.00  0.00    -0.272 OA
ATOM      4  H   UNL d   1      26.199 -16.582  -0.334  0.00  0.00     0.169 HD
ENDROOT
BRANCH   2   5
ATOM      5  C   UNL d   1      26.820 -14.415  -1.874  0.00  0.00     0.195 C 
BRANCH   5   6
ATOM      6  N   UNL d   1      26.359 -13.044  -2.053  0.00  0.00    -0.283 NA
ATOM      7  H   UNL d   1      25.493 -12.835  -1.540  0.00  0.00     0.128 HD
BRANCH   6   8
ATOM      8  C   UNL d   1      26.371 -12.507  -3.352  0.00  0.00     0.027 A 
ATOM      9  C   UNL d   1      25.917 -11.162  -3.338  0.00  0.00     0.048 A 
ATOM     10  C   UNL d   1      25.821 -10.391  -4.487  0.00  0.00     0.035 A 
ATOM     11 CL   UNL d   1      25.156  -8.809  -4.398  0.00  0.00    -0.084 Cl
ATOM     12  C   UNL d   1      26.237 -10.920  -5.693  0.00  0.00     0.025 A 
ATOM     13  C   UNL d   1      26.655 -12.263  -5.750  0.00  0.00     0.022 A 
ATOM     14  C   UNL d   1      26.702 -13.116  -4.600  0.00  0.00     0.021 A 
BRANCH  14  15
ATOM     15  S   UNL d   1      27.221 -14.825  -5.110  0.00  0.00    -0.133 SA
ATOM     16  C   UNL d   1      28.566 -14.824  -6.368  0.00  0.00     0.095 C 
ENDBRANCH  14  15
ENDBRANCH   6   8
ENDBRANCH   5   6
ENDBRANCH   2   5
BRANCH   1  17
ATOM     17  C   UNL d   1      24.261 -17.193  -0.870  0.00  0.00     0.034 A 
ATOM     18  C   UNL d   1      24.319 -18.573  -0.601  0.00  0.00     0.030 A 
ATOM     19  C   UNL d   1      23.124 -19.345  -0.517  0.00  0.00     0.019 A 
ATOM     20  C   UNL d   1      21.864 -18.741  -0.655  0.00  0.00     0.032 A 
ATOM     21  C   UNL d   1      21.807 -17.380  -0.895  0.00  0.00     0.019 A 
ATOM     22  C   UNL d   1      22.984 -16.634  -0.987  0.00  0.00     0.030 A 
BRANCH  20  23
ATOM     23  C   UNL d   1      20.601 -19.494  -0.384  0.00  0.00     0.251 C 
ATOM     24  N   UNL d   1      20.418 -19.951   0.917  0.00  0.00    -0.361 N 
ATOM     25  C   UNL d   1      19.238 -20.709   1.268  0.00  0.00     0.149 C 
ATOM     26  H   UNL d   1      21.068 -19.700   1.648  0.00  0.00     0.162 HD
ATOM     27  O   UNL d   1      19.818 -19.700  -1.286  0.00  0.00    -0.268 OA
ENDBRANCH  20  23
ENDBRANCH   1  17
TORSDOF 6
ENDMDL
MODEL 4
REMARK VINA RESULT:    -8.579      1.920      2.654
REMARK INTER + INTRA:         -11.588
REMARK INTER:                 -10.369
REMARK INTRA:                  -1.220
REMARK CONF_INDEPENDENT:        1.790
REMARK UNBOUND:                -1.220
REMARK  6 active torsions:
REMARK  status: ('A' for Active; 'I' for Inactive)
REMARK       I    between atoms: N_2  and  C_3 
REMARK    1  A    between atoms: C_3  and  C_5 
REMARK    2  A    between atoms: C_8  and  N_9 
REMARK       I    between atoms: N_9  and  C_10 
REMARK    3  A    between atoms: C_10  and  C_12 
REMARK    4  A    between atoms: C_12  and  N_13 
REMARK    5  A    between atoms: N_13  and  C_14 
REMARK    6  A    between atoms: C_20  and  S_21 
ROOT
ATOM      1  N   UNL d   1      25.534 -16.089  -0.651  0.00  0.00    -0.326 N 
ATOM      2  C   UNL d   1      26.699 -16.339   0.100  0.00  0.00     0.235 C 
ATOM      3  O   UNL d   1      26.779 -17.203   0.980  0.00  0.00    -0.272 OA
ATOM      4  H   UNL d   1      25.429 -15.201  -1.132  0.00  0.00     0.169 HD
ENDROOT
BRANCH   2   5
ATOM      5  C   UNL d   1      27.955 -15.459  -0.129  0.00  0.00     0.195 C 
BRANCH   5   6
ATOM      6  N   UNL d   1      28.616 -15.163   1.135  0.00  0.00    -0.283 NA
ATOM      7  H   UNL d   1      28.784 -15.997   1.712  0.00  0.00     0.128 HD
BRANCH   6   8
ATOM      8  C   UNL d   1      28.155 -14.064   1.881  0.00  0.00     0.027 A 
ATOM      9  C   UNL d   1      27.957 -12.939   1.037  0.00  0.00     0.048 A 
ATOM     10  C   UNL d   1      27.510 -11.715   1.513  0.00  0.00     0.035 A 
ATOM     11 CL   UNL d   1      27.406 -10.373   0.443  0.00  0.00    -0.084 Cl
ATOM     12  C   UNL d   1      27.183 -11.586   2.848  0.00  0.00     0.025 A 
ATOM     13  C   UNL d   1      27.405 -12.669   3.720  0.00  0.00     0.022 A 
ATOM     14  C   UNL d   1      27.931 -13.928   3.284  0.00  0.00     0.021 A 
BRANCH  14  15
ATOM     15  S   UNL d   1      28.153 -15.052   4.745  0.00  0.00    -0.133 SA
ATOM     16  C   UNL d   1      29.430 -14.451   5.929  0.00  0.00     0.095 C 
ENDBRANCH  14  15
ENDBRANCH   6   8
ENDBRANCH   5   6
ENDBRANCH   2   5
BRANCH   1  17
ATOM     17  C   UNL d   1      24.395 -16.973  -0.680  0.00  0.00     0.034 A 
ATOM     18  C   UNL d   1      24.507 -18.363  -0.495  0.00  0.00     0.030 A 
ATOM     19  C   UNL d   1      23.352 -19.196  -0.547  0.00  0.00     0.019 A 
ATOM     20  C   UNL d   1      22.074 -18.646  -0.737  0.00  0.00     0.032 A 
ATOM     21  C   UNL d   1      21.961 -17.276  -0.894  0.00  0.00     0.019 A 
ATOM     22  C   UNL d   1      23.101 -16.470  -0.853  0.00  0.00     0.030 A 
BRANCH  20  23
ATOM     23  C   UNL d   1      20.837 -19.476  -0.606  0.00  0.00     0.251 C 
ATOM     24  N   UNL d   1      20.559 -19.979   0.660  0.00  0.00    -0.361 N 
ATOM     25  C   UNL d   1      19.397 -20.811   0.880  0.00  0.00     0.149 C 
ATOM     26  H   UNL d   1      21.121 -19.712   1.456  0.00  0.00     0.162 HD
ATOM     27  O   UNL d   1      20.156 -19.700  -1.583  0.00  0.00    -0.268 OA
ENDBRANCH  20  23
ENDBRANCH   1  17
TORSDOF 6
ENDMDL
MODEL 5
REMARK VINA RESULT:    -8.423      3.193      4.202
REMARK INTER + INTRA:         -11.710
REMARK INTER:                 -10.212
REMARK INTRA:                  -1.498
REMARK CONF_INDEPENDENT:        1.790
REMARK UNBOUND:                -1.498
REMARK  6 active torsions:
REMARK  status: ('A' for Active; 'I' for Inactive)
REMARK       I    between atoms: N_2  and  C_3 
REMARK    1  A    between atoms: C_3  and  C_5 
REMARK    2  A    between atoms: C_8  and  N_9 
REMARK       I    between atoms: N_9  and  C_10 
REMARK    3  A    between atoms: C_10  and  C_12 
REMARK    4  A    between atoms: C_12  and  N_13 
REMARK    5  A    between atoms: N_13  and  C_14 
REMARK    6  A    between atoms: C_20  and  S_21 
ROOT
ATOM      1  N   UNL d   1      25.713 -16.614  -0.461  0.00  0.00    -0.326 N 
ATOM      2  C   UNL d   1      26.907 -17.128   0.081  0.00  0.00     0.235 C 
ATOM      3  O   UNL d   1      26.968 -18.165   0.751  0.00  0.00    -0.272 OA
ATOM      4  H   UNL d   1      25.667 -15.637  -0.735  0.00  0.00     0.169 HD
ENDROOT
BRANCH   2   5
ATOM      5  C   UNL d   1      28.230 -16.341  -0.110  0.00  0.00     0.195 C 
BRANCH   5   6
ATOM      6  N   UNL d   1      27.986 -15.084  -0.805  0.00  0.00    -0.283 NA
ATOM      7  H   UNL d   1      27.360 -14.451  -0.293  0.00  0.00     0.128 HD
BRANCH   6   8
ATOM      8  C   UNL d   1      27.710 -15.134  -2.183  0.00  0.00     0.027 A 
ATOM      9  C   UNL d   1      26.477 -14.490  -2.467  0.00  0.00     0.048 A 
ATOM     10  C   UNL d   1      25.957 -14.397  -3.749  0.00  0.00     0.035 A 
ATOM     11 CL   UNL d   1      24.405 -13.699  -3.990  0.00  0.00    -0.084 Cl
ATOM     12  C   UNL d   1      26.686 -14.893  -4.812  0.00  0.00     0.025 A 
ATOM     13  C   UNL d   1      27.892 -15.573  -4.563  0.00  0.00     0.022 A 
ATOM     14  C   UNL d   1      28.431 -15.755  -3.248  0.00  0.00     0.021 A 
BRANCH  14  15
ATOM     15  S   UNL d   1      29.981 -16.773  -3.341  0.00  0.00    -0.133 SA
ATOM     16  C   UNL d   1      30.450 -17.215  -5.066  0.00  0.00     0.095 C 
ENDBRANCH  14  15
ENDBRANCH   6   8
ENDBRANCH   5   6
ENDBRANCH   2   5
BRANCH   1  17
ATOM     17  C   UNL d   1      24.481 -17.359  -0.536  0.00  0.00     0.034 A 
ATOM     18  C   UNL d   1      24.433 -18.761  -0.425  0.00  0.00     0.030 A 
ATOM     19  C   UNL d   1      23.191 -19.453  -0.519  0.00  0.00     0.019 A 
ATOM     20  C   UNL d   1      21.985 -18.752  -0.679  0.00  0.00     0.032 A 
ATOM     21  C   UNL d   1      22.029 -17.372  -0.764  0.00  0.00     0.019 A 
ATOM     22  C   UNL d   1      23.253 -16.703  -0.681  0.00  0.00     0.030 A 
BRANCH  20  23
ATOM     23  C   UNL d   1      20.661 -19.441  -0.591  0.00  0.00     0.251 C 
ATOM     24  N   UNL d   1      20.392 -20.119   0.593  0.00  0.00    -0.361 N 
ATOM     25  C   UNL d   1      19.147 -20.834   0.762  0.00  0.00     0.149 C 
ATOM     26  H   UNL d   1      21.027 -20.061   1.377  0.00  0.00     0.162 HD
ATOM     27  O   UNL d   1      19.903 -19.412  -1.536  0.00  0.00    -0.268 OA
ENDBRANCH  20  23
ENDBRANCH   1  17
TORSDOF 6
ENDMDL
MODEL 6
REMARK VINA RESULT:    -8.266      3.677      4.611
REMARK INTER + INTRA:         -11.687
REMARK INTER:                 -10.055
REMARK INTRA:                  -1.632
REMARK CONF_INDEPENDENT:        1.790
REMARK UNBOUND:                -1.632
REMARK  6 active torsions:
REMARK  status: ('A' for Active; 'I' for Inactive)
REMARK       I    between atoms: N_2  and  C_3 
REMARK    1  A    between atoms: C_3  and  C_5 
REMARK    2  A    between atoms: C_8  and  N_9 
REMARK       I    between atoms: N_9  and  C_10 
REMARK    3  A    between atoms: C_10  and  C_12 
REMARK    4  A    between atoms: C_12  and  N_13 
REMARK    5  A    between atoms: N_13  and  C_14 
REMARK    6  A    between atoms: C_20  and  S_21 
ROOT
ATOM      1  N   UNL d   1      26.115 -16.729  -0.823  0.00  0.00    -0.326 N 
ATOM      2  C   UNL d   1      27.274 -17.464  -0.503  0.00  0.00     0.235 C 
ATOM      3  O   UNL d   1      27.267 -18.504   0.164  0.00  0.00    -0.272 OA
ATOM      4  H   UNL d   1      26.200 -15.757  -1.103  0.00  0.00     0.169 HD
ENDROOT
BRANCH   2   5
ATOM      5  C   UNL d   1      28.659 -16.932  -0.953  0.00  0.00     0.195 C 
BRANCH   5   6
ATOM      6  N   UNL d   1      28.551 -15.568  -1.452  0.00  0.00    -0.283 NA
ATOM      7  H   UNL d   1      27.990 -14.956  -0.846  0.00  0.00     0.128 HD
BRANCH   6   8
ATOM      8  C   UNL d   1      28.280 -15.384  -2.819  0.00  0.00     0.027 A 
ATOM      9  C   UNL d   1      29.449 -15.611  -3.592  0.00  0.00     0.048 A 
ATOM     10  C   UNL d   1      29.469 -15.493  -4.974  0.00  0.00     0.035 A 
ATOM     11 CL   UNL d   1      30.953 -15.676  -5.823  0.00  0.00    -0.084 Cl
ATOM     12  C   UNL d   1      28.298 -15.200  -5.645  0.00  0.00     0.025 A 
ATOM     13  C   UNL d   1      27.131 -14.929  -4.907  0.00  0.00     0.022 A 
ATOM     14  C   UNL d   1      27.082 -14.970  -3.477  0.00  0.00     0.021 A 
BRANCH  14  15
ATOM     15  S   UNL d   1      25.392 -14.468  -2.893  0.00  0.00    -0.133 SA
ATOM     16  C   UNL d   1      24.373 -13.696  -4.217  0.00  0.00     0.095 C 
ENDBRANCH  14  15
ENDBRANCH   6   8
ENDBRANCH   5   6
ENDBRANCH   2   5
BRANCH   1  17
ATOM     17  C   UNL d   1      24.774 -17.232  -0.652  0.00  0.00     0.034 A 
ATOM     18  C   UNL d   1      23.633 -16.431  -0.838  0.00  0.00     0.030 A 
ATOM     19  C   UNL d   1      22.329 -16.971  -0.644  0.00  0.00     0.019 A 
ATOM     20  C   UNL d   1      22.151 -18.322  -0.307  0.00  0.00     0.032 A 
ATOM     21  C   UNL d   1      23.272 -19.117  -0.148  0.00  0.00     0.019 A 
ATOM     22  C   UNL d   1      24.547 -18.575  -0.330  0.00  0.00     0.030 A 
BRANCH  20  23
ATOM     23  C   UNL d   1      20.795 -18.951  -0.284  0.00  0.00     0.251 C 
ATOM     24  N   UNL d   1      20.673 -20.138   0.429  0.00  0.00    -0.361 N 
ATOM     25  C   UNL d   1      19.406 -20.832   0.488  0.00  0.00     0.149 C 
ATOM     26  H   UNL d   1      21.446 -20.495   0.974  0.00  0.00     0.162 HD
ATOM     27  O   UNL d   1      19.883 -18.436  -0.895  0.00  0.00    -0.268 OA
ENDBRANCH  20  23
ENDBRANCH   1  17
TORSDOF 6
ENDMDL
MODEL 7
REMARK VINA RESULT:    -8.168      3.910      5.340
REMARK INTER + INTRA:         -11.322
REMARK INTER:                  -9.958
REMARK INTRA:                  -1.364
REMARK CONF_INDEPENDENT:        1.790
REMARK UNBOUND:                -1.364
REMARK  6 active torsions:
REMARK  status: ('A' for Active; 'I' for Inactive)
REMARK       I    between atoms: N_2  and  C_3 
REMARK    1  A    between atoms: C_3  and  C_5 
REMARK    2  A    between atoms: C_8  and  N_9 
REMARK       I    between atoms: N_9  and  C_10 
REMARK    3  A    between atoms: C_10  and  C_12 
REMARK    4  A    between atoms: C_12  and  N_13 
REMARK    5  A    between atoms: N_13  and  C_14 
REMARK    6  A    between atoms: C_20  and  S_21 
ROOT
ATOM      1  N   UNL d   1      25.579 -16.262  -1.275  0.00  0.00    -0.326 N 
ATOM      2  C   UNL d   1      25.694 -15.302  -2.300  0.00  0.00     0.235 C 
ATOM      3  O   UNL d   1      24.871 -15.168  -3.212  0.00  0.00    -0.272 OA
ATOM      4  H   UNL d   1      26.401 -16.526  -0.741  0.00  0.00     0.169 HD
ENDROOT
BRANCH   2   5
ATOM      5  C   UNL d   1      26.942 -14.383  -2.343  0.00  0.00     0.195 C 
BRANCH   5   6
ATOM      6  N   UNL d   1      26.941 -13.570  -3.553  0.00  0.00    -0.283 NA
ATOM      7  H   UNL d   1      26.003 -13.258  -3.833  0.00  0.00     0.128 HD
BRANCH   6   8
ATOM      8  C   UNL d   1      27.724 -14.000  -4.639  0.00  0.00     0.027 A 
ATOM      9  C   UNL d   1      28.401 -15.206  -4.316  0.00  0.00     0.048 A 
ATOM     10  C   UNL d   1      29.250 -15.850  -5.204  0.00  0.00     0.035 A 
ATOM     11 CL   UNL d   1      30.118 -17.244  -4.694  0.00  0.00    -0.084 Cl
ATOM     12  C   UNL d   1      29.406 -15.343  -6.479  0.00  0.00     0.025 A 
ATOM     13  C   UNL d   1      28.781 -14.128  -6.819  0.00  0.00     0.022 A 
ATOM     14  C   UNL d   1      27.954 -13.393  -5.910  0.00  0.00     0.021 A 
BRANCH  14  15
ATOM     15  S   UNL d   1      27.395 -11.813  -6.710  0.00  0.00    -0.133 SA
ATOM     16  C   UNL d   1      25.953 -11.047  -5.860  0.00  0.00     0.095 C 
ENDBRANCH  14  15
ENDBRANCH   6   8
ENDBRANCH   5   6
ENDBRANCH   2   5
BRANCH   1  17
ATOM     17  C   UNL d   1      24.375 -17.010  -1.009  0.00  0.00     0.034 A 
ATOM     18  C   UNL d   1      23.105 -16.408  -0.941  0.00  0.00     0.030 A 
ATOM     19  C   UNL d   1      21.947 -17.189  -0.662  0.00  0.00     0.019 A 
ATOM     20  C   UNL d   1      22.038 -18.579  -0.493  0.00  0.00     0.032 A 
ATOM     21  C   UNL d   1      23.283 -19.176  -0.585  0.00  0.00     0.019 A 
ATOM     22  C   UNL d   1      24.414 -18.400  -0.848  0.00  0.00     0.030 A 
BRANCH  20  23
ATOM     23  C   UNL d   1      20.818 -19.437  -0.389  0.00  0.00     0.251 C 
ATOM     24  N   UNL d   1      20.505 -19.919   0.877  0.00  0.00    -0.361 N 
ATOM     25  C   UNL d   1      19.356 -20.776   1.072  0.00  0.00     0.149 C 
ATOM     26  H   UNL d   1      21.030 -19.622   1.687  0.00  0.00     0.162 HD
ATOM     27  O   UNL d   1      20.179 -19.699  -1.385  0.00  0.00    -0.268 OA
ENDBRANCH  20  23
ENDBRANCH   1  17
TORSDOF 6
ENDMDL
MODEL 8
REMARK VINA RESULT:    -8.033      4.643      6.087
REMARK INTER + INTRA:         -11.338
REMARK INTER:                  -9.823
REMARK INTRA:                  -1.516
REMARK CONF_INDEPENDENT:        1.790
REMARK UNBOUND:                -1.516
REMARK  6 active torsions:
REMARK  status: ('A' for Active; 'I' for Inactive)
REMARK       I    between atoms: N_2  and  C_3 
REMARK    1  A    between atoms: C_3  and  C_5 
REMARK    2  A    between atoms: C_8  and  N_9 
REMARK       I    between atoms: N_9  and  C_10 
REMARK    3  A    between atoms: C_10  and  C_12 
REMARK    4  A    between atoms: C_12  and  N_13 
REMARK    5  A    between atoms: N_13  and  C_14 
REMARK    6  A    between atoms: C_20  and  S_21 
ROOT
ATOM      1  N   UNL d   1      25.239 -15.528  -1.989  0.00  0.00    -0.326 N 
ATOM      2  C   UNL d   1      25.063 -14.492  -2.927  0.00  0.00     0.235 C 
ATOM      3  O   UNL d   1      24.091 -14.407  -3.685  0.00  0.00    -0.272 OA
ATOM      4  H   UNL d   1      26.165 -15.714  -1.616  0.00  0.00     0.169 HD
ENDROOT
BRANCH   2   5
ATOM      5  C   UNL d   1      26.163 -13.409  -3.078  0.00  0.00     0.195 C 
BRANCH   5   6
ATOM      6  N   UNL d   1      25.817 -12.466  -4.133  0.00  0.00    -0.283 NA
ATOM      7  H   UNL d   1      24.813 -12.454  -4.355  0.00  0.00     0.128 HD
BRANCH   6   8
ATOM      8  C   UNL d   1      26.632 -12.426  -5.278  0.00  0.00     0.027 A 
ATOM      9  C   UNL d   1      26.509 -11.171  -5.931  0.00  0.00     0.048 A 
ATOM     10  C   UNL d   1      27.200 -10.860  -7.093  0.00  0.00     0.035 A 
ATOM     11 CL   UNL d   1      26.908  -9.361  -7.882  0.00  0.00    -0.084 Cl
ATOM     12  C   UNL d   1      28.092 -11.775  -7.615  0.00  0.00     0.025 A 
ATOM     13  C   UNL d   1      28.209 -13.043  -7.016  0.00  0.00     0.022 A 
ATOM     14  C   UNL d   1      27.463 -13.432  -5.857  0.00  0.00     0.021 A 
BRANCH  14  15
ATOM     15  S   UNL d   1      27.837 -15.201  -5.435  0.00  0.00    -0.133 SA
ATOM     16  C   UNL d   1      28.721 -15.388  -3.830  0.00  0.00     0.095 C 
ENDBRANCH  14  15
ENDBRANCH   6   8
ENDBRANCH   5   6
ENDBRANCH   2   5
BRANCH   1  17
ATOM     17  C   UNL d   1      24.197 -16.451  -1.610  0.00  0.00     0.034 A 
ATOM     18  C   UNL d   1      23.057 -16.055  -0.888  0.00  0.00     0.030 A 
ATOM     19  C   UNL d   1      22.062 -17.008  -0.525  0.00  0.00     0.019 A 
ATOM     20  C   UNL d   1      22.173 -18.351  -0.917  0.00  0.00     0.032 A 
ATOM     21  C   UNL d   1      23.282 -18.737  -1.649  0.00  0.00     0.019 A 
ATOM     22  C   UNL d   1      24.258 -17.797  -1.990  0.00  0.00     0.030 A 
BRANCH  20  23
ATOM     23  C   UNL d   1      21.055 -19.322  -0.711  0.00  0.00     0.251 C 
ATOM     24  N   UNL d   1      20.845 -19.760   0.591  0.00  0.00    -0.361 N 
ATOM     25  C   UNL d   1      19.801 -20.717   0.884  0.00  0.00     0.149 C 
ATOM     26  H   UNL d   1      21.368 -19.364   1.360  0.00  0.00     0.162 HD
ATOM     27  O   UNL d   1      20.408 -19.705  -1.662  0.00  0.00    -0.268 OA
ENDBRANCH  20  23
ENDBRANCH   1  17
TORSDOF 6
ENDMDL
MODEL 9
REMARK VINA RESULT:    -7.925      3.888      5.158
REMARK INTER + INTRA:         -11.195
REMARK INTER:                  -9.715
REMARK INTRA:                  -1.480
REMARK CONF_INDEPENDENT:        1.790
REMARK UNBOUND:                -1.480
REMARK  6 active torsions:
REMARK  status: ('A' for Active; 'I' for Inactive)
REMARK       I    between atoms: N_2  and  C_3 
REMARK    1  A    between atoms: C_3  and  C_5 
REMARK    2  A    between atoms: C_8  and  N_9 
REMARK       I    between atoms: N_9  and  C_10 
REMARK    3  A    between atoms: C_10  and  C_12 
REMARK    4  A    between atoms: C_12  and  N_13 
REMARK    5  A    between atoms: N_13  and  C_14 
REMARK    6  A    between atoms: C_20  and  S_21 
ROOT
ATOM      1  N   UNL d   1      25.374 -15.991  -1.068  0.00  0.00    -0.326 N 
ATOM      2  C   UNL d   1      25.693 -15.304  -2.256  0.00  0.00     0.235 C 
ATOM      3  O   UNL d   1      25.152 -15.525  -3.345  0.00  0.00    -0.272 OA
ATOM      4  H   UNL d   1      26.032 -15.986  -0.295  0.00  0.00     0.169 HD
ENDROOT
BRANCH   2   5
ATOM      5  C   UNL d   1      26.821 -14.241  -2.240  0.00  0.00     0.195 C 
BRANCH   5   6
ATOM      6  N   UNL d   1      27.666 -14.368  -3.421  0.00  0.00    -0.283 NA
ATOM      7  H   UNL d   1      27.146 -14.287  -4.303  0.00  0.00     0.128 HD
BRANCH   6   8
ATOM      8  C   UNL d   1      28.625 -15.395  -3.440  0.00  0.00     0.027 A 
ATOM      9  C   UNL d   1      29.082 -15.623  -4.765  0.00  0.00     0.048 A 
ATOM     10  C   UNL d   1      30.028 -16.588  -5.076  0.00  0.00     0.035 A 
ATOM     11 CL   UNL d   1      30.443 -16.876  -6.720  0.00  0.00    -0.084 Cl
ATOM     12  C   UNL d   1      30.603 -17.324  -4.059  0.00  0.00     0.025 A 
ATOM     13  C   UNL d   1      30.145 -17.152  -2.740  0.00  0.00     0.022 A 
ATOM     14  C   UNL d   1      29.120 -16.218  -2.384  0.00  0.00     0.021 A 
BRANCH  14  15
ATOM     15  S   UNL d   1      28.746 -16.359  -0.570  0.00  0.00    -0.133 SA
ATOM     16  C   UNL d   1      27.738 -17.843  -0.155  0.00  0.00     0.095 C 
ENDBRANCH  14  15
ENDBRANCH   6   8
ENDBRANCH   5   6
ENDBRANCH   2   5
BRANCH   1  17
ATOM     17  C   UNL d   1      24.210 -16.829  -0.914  0.00  0.00     0.034 A 
ATOM     18  C   UNL d   1      22.899 -16.321  -0.948  0.00  0.00     0.030 A 
ATOM     19  C   UNL d   1      21.781 -17.189  -0.777  0.00  0.00     0.019 A 
ATOM     20  C   UNL d   1      21.960 -18.572  -0.617  0.00  0.00     0.032 A 
ATOM     21  C   UNL d   1      23.249 -19.075  -0.609  0.00  0.00     0.019 A 
ATOM     22  C   UNL d   1      24.338 -18.214  -0.765  0.00  0.00     0.030 A 
BRANCH  20  23
ATOM     23  C   UNL d   1      20.802 -19.517  -0.626  0.00  0.00     0.251 C 
ATOM     24  N   UNL d   1      20.525 -20.171   0.569  0.00  0.00    -0.361 N 
ATOM     25  C   UNL d   1      19.439 -21.122   0.650  0.00  0.00     0.149 C 
ATOM     26  H   UNL d   1      21.030 -19.940   1.413  0.00  0.00     0.162 HD
ATOM     27  O   UNL d   1      20.182 -19.699  -1.652  0.00  0.00    -0.268 OA
ENDBRANCH  20  23
ENDBRANCH   1  17
TORSDOF 6
ENDMDL
