MODEL 1
REMARK VINA RESULT:   -27.289      0.000      0.000
REMARK INTER + INTRA:         -30.536
REMARK INTER:                 -29.079
REMARK INTRA:                  -1.457
REMARK CONF_INDEPENDENT:        1.790
REMARK UNBOUND:                -1.457
REMARK  6 active torsions:
REMARK  status: ('A' for Active; 'I' for Inactive)
REMARK    1  A    between atoms: C_2  and  N_3 
REMARK       I    between atoms: N_3  and  C_4 
REMARK       I    between atoms: C_4  and  N_6 
REMARK    2  A    between atoms: N_6  and  N_7 
REMARK       I    between atoms: N_7  and  C_8 
REMARK    3  A    between atoms: C_8  and  C_10 
REMARK    4  A    between atoms: C_10  and  C_11 
REMARK    5  A    between atoms: C_11  and  C_12 
REMARK    6  A    between atoms: C_14  and  C_15 
ROOT
ATOM      1  C   UNL d   1      24.416 -18.231  -0.622  0.00  0.00     0.112 C 
ENDROOT
BRANCH   1   2
ATOM      2  C   UNL d   1      25.560 -17.435  -1.276  0.00  0.00     0.236 C 
ATOM      3  N   UNL d   1      25.187 -16.455  -2.190  0.00  0.00    -0.266 N 
ATOM      4  H   UNL d   1      24.222 -16.242  -2.444  0.00  0.00     0.190 HD
ATOM      5  O   UNL d   1      26.744 -17.649  -1.006  0.00  0.00    -0.272 OA
BRANCH   3   6
ATOM      6  N   UNL d   1      26.193 -15.663  -2.846  0.00  0.00    -0.249 N 
ATOM      7  C   UNL d   1      25.812 -14.620  -3.680  0.00  0.00     0.334 C 
ATOM      8  N   UNL d   1      26.856 -13.923  -4.261  0.00  0.00    -0.342 N 
ATOM      9  O   UNL d   1      24.627 -14.344  -3.880  0.00  0.00    -0.246 OA
ATOM     10  H   UNL d   1      27.809 -14.190  -4.065  0.00  0.00     0.164 HD
ATOM     11  H   UNL d   1      27.158 -15.918  -2.662  0.00  0.00     0.192 HD
BRANCH   8  12
ATOM     12  C   UNL d   1      26.614 -12.796  -5.164  0.00  0.00     0.120 C 
ATOM     13  C   UNL d   1      27.652 -12.646  -6.273  0.00  0.00     0.026 C 
ENDBRANCH   8  12
ENDBRANCH   3   6
ENDBRANCH   1   2
BRANCH   1  14
ATOM     14  C   UNL d   1      23.188 -17.343  -0.348  0.00  0.00     0.098 C 
BRANCH  14  15
ATOM     15  C   UNL d   1      21.881 -18.061  -0.411  0.00  0.00     0.173 A 
ATOM     16  N   UNL d   1      21.388 -18.951   0.423  0.00  0.00    -0.204 NA
ATOM     17  C   UNL d   1      20.172 -19.262  -0.147  0.00  0.00     0.189 A 
ATOM     18  N   UNL d   1      19.905 -18.575  -1.270  0.00  0.00    -0.106 NA
ATOM     19  O   UNL d   1      21.028 -17.756  -1.433  0.00  0.00    -0.196 OA
BRANCH  17  20
ATOM     20  C   UNL d   1      19.251 -20.216   0.451  0.00  0.00     0.014 A 
ATOM     21  C   UNL d   1      18.215 -20.787  -0.302  0.00  0.00     0.015 A 
ATOM     22  C   UNL d   1      17.267 -21.610   0.313  0.00  0.00     0.001 A 
ATOM     23  C   UNL d   1      17.386 -21.924   1.666  0.00  0.00     0.000 A 
ATOM     24  C   UNL d   1      18.435 -21.392   2.414  0.00  0.00     0.001 A 
ATOM     25  C   UNL d   1      19.363 -20.539   1.810  0.00  0.00     0.015 A 
ENDBRANCH  17  20
ENDBRANCH  14  15
ENDBRANCH   1  14
TORSDOF 6
ENDMDL
MODEL 2
REMARK VINA RESULT:   -27.077      2.943      3.234
REMARK INTER + INTRA:         -30.315
REMARK INTER:                 -28.867
REMARK INTRA:                  -1.448
REMARK CONF_INDEPENDENT:        1.790
REMARK UNBOUND:                -1.448
REMARK  6 active torsions:
REMARK  status: ('A' for Active; 'I' for Inactive)
REMARK    1  A    between atoms: C_2  and  N_3 
REMARK       I    between atoms: N_3  and  C_4 
REMARK       I    between atoms: C_4  and  N_6 
REMARK    2  A    between atoms: N_6  and  N_7 
REMARK       I    between atoms: N_7  and  C_8 
REMARK    3  A    between atoms: C_8  and  C_10 
REMARK    4  A    between atoms: C_10  and  C_11 
REMARK    5  A    between atoms: C_11  and  C_12 
REMARK    6  A    between atoms: C_14  and  C_15 
ROOT
ATOM      1  C   UNL d   1      24.449 -18.379  -0.801  0.00  0.00     0.112 C 
ENDROOT
BRANCH   1   2
ATOM      2  C   UNL d   1      25.691 -18.026   0.037  0.00  0.00     0.236 C 
ATOM      3  N   UNL d   1      26.776 -17.503  -0.658  0.00  0.00    -0.266 N 
ATOM      4  H   UNL d   1      26.794 -17.345  -1.666  0.00  0.00     0.190 HD
ATOM      5  O   UNL d   1      25.726 -18.194   1.258  0.00  0.00    -0.272 OA
BRANCH   3   6
ATOM      6  N   UNL d   1      27.978 -17.143   0.048  0.00  0.00    -0.249 N 
ATOM      7  C   UNL d   1      29.054 -16.612  -0.650  0.00  0.00     0.334 C 
ATOM      8  N   UNL d   1      30.158 -16.302   0.123  0.00  0.00    -0.342 N 
ATOM      9  O   UNL d   1      29.016 -16.434  -1.870  0.00  0.00    -0.246 OA
ATOM     10  H   UNL d   1      30.138 -16.468   1.118  0.00  0.00     0.164 HD
ATOM     11  H   UNL d   1      27.976 -17.306   1.050  0.00  0.00     0.192 HD
BRANCH   8  12
ATOM     12  C   UNL d   1      31.370 -15.733  -0.469  0.00  0.00     0.120 C 
ATOM     13  C   UNL d   1      31.796 -14.397   0.133  0.00  0.00     0.026 C 
ENDBRANCH   8  12
ENDBRANCH   3   6
ENDBRANCH   1   2
BRANCH   1  14
ATOM     14  C   UNL d   1      23.261 -17.455  -0.476  0.00  0.00     0.098 C 
BRANCH  14  15
ATOM     15  C   UNL d   1      21.931 -18.132  -0.490  0.00  0.00     0.173 A 
ATOM     16  N   UNL d   1      21.446 -19.015   0.355  0.00  0.00    -0.204 NA
ATOM     17  C   UNL d   1      20.198 -19.282  -0.165  0.00  0.00     0.189 A 
ATOM     18  N   UNL d   1      19.905 -18.575  -1.269  0.00  0.00    -0.106 NA
ATOM     19  O   UNL d   1      21.046 -17.790  -1.472  0.00  0.00    -0.196 OA
BRANCH  17  20
ATOM     20  C   UNL d   1      19.273 -20.214   0.462  0.00  0.00     0.014 A 
ATOM     21  C   UNL d   1      18.247 -20.817  -0.277  0.00  0.00     0.015 A 
ATOM     22  C   UNL d   1      17.294 -21.618   0.362  0.00  0.00     0.001 A 
ATOM     23  C   UNL d   1      17.401 -21.876   1.728  0.00  0.00     0.000 A 
ATOM     24  C   UNL d   1      18.441 -21.310   2.464  0.00  0.00     0.001 A 
ATOM     25  C   UNL d   1      19.373 -20.480   1.834  0.00  0.00     0.015 A 
ENDBRANCH  17  20
ENDBRANCH  14  15
ENDBRANCH   1  14
TORSDOF 6
ENDMDL
MODEL 3
REMARK VINA RESULT:   -26.951      3.049      3.610
REMARK INTER + INTRA:         -30.121
REMARK INTER:                 -28.741
REMARK INTRA:                  -1.381
REMARK CONF_INDEPENDENT:        1.790
REMARK UNBOUND:                -1.381
REMARK  6 active torsions:
REMARK  status: ('A' for Active; 'I' for Inactive)
REMARK    1  A    between atoms: C_2  and  N_3 
REMARK       I    between atoms: N_3  and  C_4 
REMARK       I    between atoms: C_4  and  N_6 
REMARK    2  A    between atoms: N_6  and  N_7 
REMARK       I    between atoms: N_7  and  C_8 
REMARK    3  A    between atoms: C_8  and  C_10 
REMARK    4  A    between atoms: C_10  and  C_11 
REMARK    5  A    between atoms: C_11  and  C_12 
REMARK    6  A    between atoms: C_14  and  C_15 
ROOT
ATOM      1  C   UNL d   1      24.340 -17.995  -1.070  0.00  0.00     0.112 C 
ENDROOT
BRANCH   1   2
ATOM      2  C   UNL d   1      25.677 -17.727  -0.353  0.00  0.00     0.236 C 
ATOM      3  N   UNL d   1      25.810 -16.485   0.259  0.00  0.00    -0.266 N 
ATOM      4  H   UNL d   1      25.090 -15.762   0.259  0.00  0.00     0.190 HD
ATOM      5  O   UNL d   1      26.581 -18.564  -0.321  0.00  0.00    -0.272 OA
BRANCH   3   6
ATOM      6  N   UNL d   1      27.026 -16.152   0.953  0.00  0.00    -0.249 N 
ATOM      7  C   UNL d   1      27.279 -14.833   1.304  0.00  0.00     0.334 C 
ATOM      8  N   UNL d   1      28.475 -14.622   1.965  0.00  0.00    -0.342 N 
ATOM      9  O   UNL d   1      26.488 -13.924   1.040  0.00  0.00    -0.246 OA
ATOM     10  H   UNL d   1      29.088 -15.400   2.157  0.00  0.00     0.164 HD
ATOM     11  H   UNL d   1      27.656 -16.923   1.152  0.00  0.00     0.192 HD
BRANCH   8  12
ATOM     12  C   UNL d   1      28.882 -13.284   2.401  0.00  0.00     0.120 C 
ATOM     13  C   UNL d   1      29.792 -13.273   3.626  0.00  0.00     0.026 C 
ENDBRANCH   8  12
ENDBRANCH   3   6
ENDBRANCH   1   2
BRANCH   1  14
ATOM     14  C   UNL d   1      23.168 -17.275  -0.377  0.00  0.00     0.098 C 
BRANCH  14  15
ATOM     15  C   UNL d   1      21.874 -18.017  -0.426  0.00  0.00     0.173 A 
ATOM     16  N   UNL d   1      21.399 -18.904   0.422  0.00  0.00    -0.204 NA
ATOM     17  C   UNL d   1      20.187 -19.243  -0.139  0.00  0.00     0.189 A 
ATOM     18  N   UNL d   1      19.904 -18.576  -1.270  0.00  0.00    -0.106 NA
ATOM     19  O   UNL d   1      21.012 -17.740  -1.448  0.00  0.00    -0.196 OA
BRANCH  17  20
ATOM     20  C   UNL d   1      19.285 -20.205   0.475  0.00  0.00     0.014 A 
ATOM     21  C   UNL d   1      18.206 -20.741  -0.243  0.00  0.00     0.015 A 
ATOM     22  C   UNL d   1      17.279 -21.573   0.394  0.00  0.00     0.001 A 
ATOM     23  C   UNL d   1      17.461 -21.930   1.729  0.00  0.00     0.000 A 
ATOM     24  C   UNL d   1      18.552 -21.431   2.440  0.00  0.00     0.001 A 
ATOM     25  C   UNL d   1      19.460 -20.571   1.816  0.00  0.00     0.015 A 
ENDBRANCH  17  20
ENDBRANCH  14  15
ENDBRANCH   1  14
TORSDOF 6
ENDMDL
