MODEL 1
REMARK VINA RESULT:   -27.769      0.000      0.000
REMARK INTER + INTRA:         -29.405
REMARK INTER:                 -28.962
REMARK INTRA:                  -0.443
REMARK CONF_INDEPENDENT:        1.193
REMARK UNBOUND:                -0.443
REMARK  4 active torsions:
REMARK  status: ('A' for Active; 'I' for Inactive)
REMARK    1  A    between atoms: N_1  and  C_2 
REMARK    2  A    between atoms: C_6  and  N_7 
REMARK       I    between atoms: N_7  and  C_8 
REMARK    3  A    between atoms: C_8  and  C_10 
REMARK    4  A    between atoms: C_11  and  C_12 
ROOT
ATOM      1  N   UNL d   1      26.841 -16.772  -0.636  0.00  0.00    -0.324 N 
ATOM      2  C   UNL d   1      26.042 -17.718   0.002  0.00  0.00     0.245 C 
ATOM      3  O   UNL d   1      26.374 -18.402   0.971  0.00  0.00    -0.268 OA
ATOM      4  H   UNL d   1      26.459 -16.265  -1.427  0.00  0.00     0.169 HD
ENDROOT
BRANCH   1   5
ATOM      5  C   UNL d   1      28.183 -16.454  -0.247  0.00  0.00     0.038 A 
ATOM      6  C   UNL d   1      28.471 -15.347   0.557  0.00  0.00     0.056 A 
ATOM      7  C   UNL d   1      29.769 -15.023   0.948  0.00  0.00     0.064 A 
ATOM      8  C   UNL d   1      30.864 -15.777   0.527  0.00  0.00     0.070 A 
ATOM      9 CL   UNL d   1      29.976 -13.638   1.971  0.00  0.00    -0.082 Cl
ATOM     10  C   UNL d   1      30.586 -16.905  -0.268  0.00  0.00     0.064 A 
ATOM     11  C   UNL d   1      29.267 -17.244  -0.656  0.00  0.00     0.056 A 
ATOM     12 CL   UNL d   1      31.893 -17.911  -0.809  0.00  0.00    -0.082 Cl
BRANCH   8  13
ATOM     13  N   UNL d   1      32.148 -15.472   0.978  0.00  0.00    -0.396 N 
ATOM     14  H   UNL d   1      32.692 -16.207   1.422  0.00  0.00     0.156 HD
ATOM     15  H   UNL d   1      32.425 -14.508   1.110  0.00  0.00     0.156 HD
ENDBRANCH   8  13
ENDBRANCH   1   5
BRANCH   2  16
ATOM     16  C   UNL d   1      24.668 -17.914  -0.540  0.00  0.00     0.075 C 
ATOM     17  C   UNL d   1      23.758 -18.524   0.251  0.00  0.00     0.017 C 
BRANCH  17  18
ATOM     18  C   UNL d   1      22.370 -18.801  -0.140  0.00  0.00    -0.033 A 
ATOM     19  C   UNL d   1      22.029 -18.971  -1.480  0.00  0.00     0.030 A 
ATOM     20  C   UNL d   1      20.708 -19.224  -1.804  0.00  0.00     0.117 A 
ATOM     21  N   UNL d   1      19.717 -19.325  -0.895  0.00  0.00    -0.273 NA
ATOM     22  C   UNL d   1      20.070 -19.188   0.400  0.00  0.00     0.117 A 
ATOM     23  C   UNL d   1      21.369 -18.945   0.825  0.00  0.00     0.030 A 
ENDBRANCH  17  18
ENDBRANCH   2  16
TORSDOF 4
ENDMDL
MODEL 2
REMARK VINA RESULT:   -27.747      0.380      2.053
REMARK INTER + INTRA:         -29.387
REMARK INTER:                 -28.940
REMARK INTRA:                  -0.447
REMARK CONF_INDEPENDENT:        1.193
REMARK UNBOUND:                -0.447
REMARK  4 active torsions:
REMARK  status: ('A' for Active; 'I' for Inactive)
REMARK    1  A    between atoms: N_1  and  C_2 
REMARK    2  A    between atoms: C_6  and  N_7 
REMARK       I    between atoms: N_7  and  C_8 
REMARK    3  A    between atoms: C_8  and  C_10 
REMARK    4  A    between atoms: C_11  and  C_12 
ROOT
ATOM      1  N   UNL d   1      26.655 -16.480  -0.412  0.00  0.00    -0.324 N 
ATOM      2  C   UNL d   1      26.000 -17.649  -0.031  0.00  0.00     0.245 C 
ATOM      3  O   UNL d   1      26.462 -18.523   0.705  0.00  0.00    -0.268 OA
ATOM      4  H   UNL d   1      26.174 -15.829  -1.023  0.00  0.00     0.169 HD
ENDROOT
BRANCH   1   5
ATOM      5  C   UNL d   1      27.977 -16.121   0.008  0.00  0.00     0.038 A 
ATOM      6  C   UNL d   1      29.108 -16.778  -0.488  0.00  0.00     0.056 A 
ATOM      7  C   UNL d   1      30.402 -16.442  -0.093  0.00  0.00     0.064 A 
ATOM      8  C   UNL d   1      30.637 -15.442   0.851  0.00  0.00     0.070 A 
ATOM      9 CL   UNL d   1      31.713 -17.321  -0.812  0.00  0.00    -0.082 Cl
ATOM     10  C   UNL d   1      29.508 -14.761   1.344  0.00  0.00     0.064 A 
ATOM     11  C   UNL d   1      28.193 -15.092   0.935  0.00  0.00     0.056 A 
ATOM     12 CL   UNL d   1      29.720 -13.485   2.501  0.00  0.00    -0.082 Cl
BRANCH   8  13
ATOM     13  N   UNL d   1      31.941 -15.081   1.188  0.00  0.00    -0.396 N 
ATOM     14  H   UNL d   1      32.461 -15.682   1.822  0.00  0.00     0.156 HD
ATOM     15  H   UNL d   1      32.262 -14.134   1.036  0.00  0.00     0.156 HD
ENDBRANCH   8  13
ENDBRANCH   1   5
BRANCH   2  16
ATOM     16  C   UNL d   1      24.624 -17.854  -0.563  0.00  0.00     0.075 C 
ATOM     17  C   UNL d   1      23.730 -18.489   0.226  0.00  0.00     0.017 C 
BRANCH  17  18
ATOM     18  C   UNL d   1      22.342 -18.777  -0.157  0.00  0.00    -0.033 A 
ATOM     19  C   UNL d   1      21.996 -18.957  -1.494  0.00  0.00     0.030 A 
ATOM     20  C   UNL d   1      20.674 -19.220  -1.811  0.00  0.00     0.117 A 
ATOM     21  N   UNL d   1      19.688 -19.323  -0.896  0.00  0.00    -0.273 NA
ATOM     22  C   UNL d   1      20.047 -19.177   0.397  0.00  0.00     0.117 A 
ATOM     23  C   UNL d   1      21.346 -18.924   0.814  0.00  0.00     0.030 A 
ENDBRANCH  17  18
ENDBRANCH   2  16
TORSDOF 4
ENDMDL
MODEL 3
REMARK VINA RESULT:   -27.531      0.374      2.306
REMARK INTER + INTRA:         -29.163
REMARK INTER:                 -28.724
REMARK INTRA:                  -0.439
REMARK CONF_INDEPENDENT:        1.193
REMARK UNBOUND:                -0.439
REMARK  4 active torsions:
REMARK  status: ('A' for Active; 'I' for Inactive)
REMARK    1  A    between atoms: N_1  and  C_2 
REMARK    2  A    between atoms: C_6  and  N_7 
REMARK       I    between atoms: N_7  and  C_8 
REMARK    3  A    between atoms: C_8  and  C_10 
REMARK    4  A    between atoms: C_11  and  C_12 
ROOT
ATOM      1  N   UNL d   1      26.845 -16.844  -0.803  0.00  0.00    -0.324 N 
ATOM      2  C   UNL d   1      25.978 -17.605  -0.022  0.00  0.00     0.245 C 
ATOM      3  O   UNL d   1      26.271 -18.173   1.031  0.00  0.00    -0.268 OA
ATOM      4  H   UNL d   1      26.491 -16.421  -1.654  0.00  0.00     0.169 HD
ENDROOT
BRANCH   1   5
ATOM      5  C   UNL d   1      28.222 -16.607  -0.483  0.00  0.00     0.038 A 
ATOM      6  C   UNL d   1      29.236 -17.461  -0.928  0.00  0.00     0.056 A 
ATOM      7  C   UNL d   1      30.581 -17.245  -0.629  0.00  0.00     0.064 A 
ATOM      8  C   UNL d   1      30.986 -16.172   0.164  0.00  0.00     0.070 A 
ATOM      9 CL   UNL d   1      31.735 -18.369  -1.272  0.00  0.00    -0.082 Cl
ATOM     10  C   UNL d   1      29.976 -15.295   0.603  0.00  0.00     0.064 A 
ATOM     11  C   UNL d   1      28.611 -15.504   0.291  0.00  0.00     0.056 A 
ATOM     12 CL   UNL d   1      30.403 -13.920   1.572  0.00  0.00    -0.082 Cl
BRANCH   8  13
ATOM     13  N   UNL d   1      32.341 -15.940   0.402  0.00  0.00    -0.396 N 
ATOM     14  H   UNL d   1      33.020 -16.562  -0.029  0.00  0.00     0.156 HD
ATOM     15  H   UNL d   1      32.628 -15.362   1.181  0.00  0.00     0.156 HD
ENDBRANCH   8  13
ENDBRANCH   1   5
BRANCH   2  16
ATOM     16  C   UNL d   1      24.577 -17.741  -0.511  0.00  0.00     0.075 C 
ATOM     17  C   UNL d   1      23.756 -18.583   0.153  0.00  0.00     0.017 C 
BRANCH  17  18
ATOM     18  C   UNL d   1      22.356 -18.836  -0.209  0.00  0.00    -0.033 A 
ATOM     19  C   UNL d   1      21.356 -18.823   0.761  0.00  0.00     0.030 A 
ATOM     20  C   UNL d   1      20.050 -19.073   0.376  0.00  0.00     0.117 A 
ATOM     21  N   UNL d   1      19.677 -19.324  -0.895  0.00  0.00    -0.273 NA
ATOM     22  C   UNL d   1      20.653 -19.303  -1.827  0.00  0.00     0.117 A 
ATOM     23  C   UNL d   1      21.987 -19.050  -1.541  0.00  0.00     0.030 A 
ENDBRANCH  17  18
ENDBRANCH   2  16
TORSDOF 4
ENDMDL
MODEL 4
REMARK VINA RESULT:   -26.630      1.704      2.519
REMARK INTER + INTRA:         -28.198
REMARK INTER:                 -27.823
REMARK INTRA:                  -0.375
REMARK CONF_INDEPENDENT:        1.193
REMARK UNBOUND:                -0.375
REMARK  4 active torsions:
REMARK  status: ('A' for Active; 'I' for Inactive)
REMARK    1  A    between atoms: N_1  and  C_2 
REMARK    2  A    between atoms: C_6  and  N_7 
REMARK       I    between atoms: N_7  and  C_8 
REMARK    3  A    between atoms: C_8  and  C_10 
REMARK    4  A    between atoms: C_11  and  C_12 
ROOT
ATOM      1  N   UNL d   1      26.914 -16.652  -1.775  0.00  0.00    -0.324 N 
ATOM      2  C   UNL d   1      26.092 -16.868  -0.671  0.00  0.00     0.245 C 
ATOM      3  O   UNL d   1      26.462 -16.911   0.503  0.00  0.00    -0.268 OA
ATOM      4  H   UNL d   1      26.496 -16.635  -2.699  0.00  0.00     0.169 HD
ENDROOT
BRANCH   1   5
ATOM      5  C   UNL d   1      28.330 -16.443  -1.698  0.00  0.00     0.038 A 
ATOM      6  C   UNL d   1      29.152 -16.570  -2.821  0.00  0.00     0.056 A 
ATOM      7  C   UNL d   1      30.531 -16.368  -2.766  0.00  0.00     0.064 A 
ATOM      8  C   UNL d   1      31.172 -16.055  -1.568  0.00  0.00     0.070 A 
ATOM      9 CL   UNL d   1      31.424 -16.529  -4.244  0.00  0.00    -0.082 Cl
ATOM     10  C   UNL d   1      30.353 -15.907  -0.433  0.00  0.00     0.064 A 
ATOM     11  C   UNL d   1      28.950 -16.099  -0.488  0.00  0.00     0.056 A 
ATOM     12 CL   UNL d   1      31.072 -15.491   1.090  0.00  0.00    -0.082 Cl
BRANCH   8  13
ATOM     13  N   UNL d   1      32.543 -15.799  -1.546  0.00  0.00    -0.396 N 
ATOM     14  H   UNL d   1      32.907 -15.183  -0.824  0.00  0.00     0.156 HD
ATOM     15  H   UNL d   1      33.109 -15.987  -2.362  0.00  0.00     0.156 HD
ENDBRANCH   8  13
ENDBRANCH   1   5
BRANCH   2  16
ATOM     16  C   UNL d   1      24.639 -17.063  -0.942  0.00  0.00     0.075 C 
ATOM     17  C   UNL d   1      24.030 -18.128  -0.378  0.00  0.00     0.017 C 
BRANCH  17  18
ATOM     18  C   UNL d   1      22.612 -18.465  -0.558  0.00  0.00    -0.033 A 
ATOM     19  C   UNL d   1      22.116 -19.700  -0.145  0.00  0.00     0.030 A 
ATOM     20  C   UNL d   1      20.774 -19.978  -0.339  0.00  0.00     0.117 A 
ATOM     21  N   UNL d   1      19.903 -19.117  -0.904  0.00  0.00    -0.273 NA
ATOM     22  C   UNL d   1      20.393 -17.915  -1.270  0.00  0.00     0.117 A 
ATOM     23  C   UNL d   1      21.719 -17.539  -1.105  0.00  0.00     0.030 A 
ENDBRANCH  17  18
ENDBRANCH   2  16
TORSDOF 4
ENDMDL
MODEL 5
REMARK VINA RESULT:   -26.444      1.899      2.470
REMARK INTER + INTRA:         -28.083
REMARK INTER:                 -27.637
REMARK INTRA:                  -0.446
REMARK CONF_INDEPENDENT:        1.193
REMARK UNBOUND:                -0.446
REMARK  4 active torsions:
REMARK  status: ('A' for Active; 'I' for Inactive)
REMARK    1  A    between atoms: N_1  and  C_2 
REMARK    2  A    between atoms: C_6  and  N_7 
REMARK       I    between atoms: N_7  and  C_8 
REMARK    3  A    between atoms: C_8  and  C_10 
REMARK    4  A    between atoms: C_11  and  C_12 
ROOT
ATOM      1  N   UNL d   1      26.945 -16.664  -1.868  0.00  0.00    -0.324 N 
ATOM      2  C   UNL d   1      26.144 -16.961  -0.767  0.00  0.00     0.245 C 
ATOM      3  O   UNL d   1      26.538 -17.095   0.392  0.00  0.00    -0.268 OA
ATOM      4  H   UNL d   1      26.509 -16.575  -2.779  0.00  0.00     0.169 HD
ENDROOT
BRANCH   1   5
ATOM      5  C   UNL d   1      28.363 -16.464  -1.803  0.00  0.00     0.038 A 
ATOM      6  C   UNL d   1      29.207 -17.390  -1.183  0.00  0.00     0.056 A 
ATOM      7  C   UNL d   1      30.588 -17.215  -1.112  0.00  0.00     0.064 A 
ATOM      8  C   UNL d   1      31.204 -16.078  -1.636  0.00  0.00     0.070 A 
ATOM      9 CL   UNL d   1      31.516 -18.459  -0.339  0.00  0.00    -0.082 Cl
ATOM     10  C   UNL d   1      30.367 -15.147  -2.279  0.00  0.00     0.064 A 
ATOM     11  C   UNL d   1      28.965 -15.328  -2.364  0.00  0.00     0.056 A 
ATOM     12 CL   UNL d   1      31.061 -13.719  -2.981  0.00  0.00    -0.082 Cl
BRANCH   8  13
ATOM     13  N   UNL d   1      32.592 -15.949  -1.608  0.00  0.00    -0.396 N 
ATOM     14  H   UNL d   1      33.116 -16.511  -0.941  0.00  0.00     0.156 HD
ATOM     15  H   UNL d   1      33.037 -15.145  -2.029  0.00  0.00     0.156 HD
ENDBRANCH   8  13
ENDBRANCH   1   5
BRANCH   2  16
ATOM     16  C   UNL d   1      24.686 -17.132  -1.024  0.00  0.00     0.075 C 
ATOM     17  C   UNL d   1      24.057 -18.166  -0.424  0.00  0.00     0.017 C 
BRANCH  17  18
ATOM     18  C   UNL d   1      22.630 -18.476  -0.585  0.00  0.00    -0.033 A 
ATOM     19  C   UNL d   1      22.117 -19.700  -0.162  0.00  0.00     0.030 A 
ATOM     20  C   UNL d   1      20.767 -19.953  -0.339  0.00  0.00     0.117 A 
ATOM     21  N   UNL d   1      19.905 -19.077  -0.895  0.00  0.00    -0.273 NA
ATOM     22  C   UNL d   1      20.413 -17.884  -1.270  0.00  0.00     0.117 A 
ATOM     23  C   UNL d   1      21.748 -17.533  -1.122  0.00  0.00     0.030 A 
ENDBRANCH  17  18
ENDBRANCH   2  16
TORSDOF 4
ENDMDL
