MODEL 1
REMARK VINA RESULT:   -26.966      0.000      0.000
REMARK INTER + INTRA:         -28.659
REMARK INTER:                 -27.861
REMARK INTRA:                  -0.798
REMARK CONF_INDEPENDENT:        0.895
REMARK UNBOUND:                -0.798
REMARK  3 active torsions:
REMARK  status: ('A' for Active; 'I' for Inactive)
REMARK       I    between atoms: C_2  and  N_3 
REMARK    1  A    between atoms: C_2  and  C_14 
REMARK    2  A    between atoms: N_3  and  C_4 
REMARK    3  A    between atoms: C_4  and  C_5 
ROOT
ATOM      1  O   UNL d   1      24.480 -18.081   0.811  0.00  0.00    -0.268 OA
ATOM      2  C   UNL d   1      23.753 -17.581  -0.042  0.00  0.00     0.251 C 
ATOM      3  N   UNL d   1      22.400 -17.759  -0.082  0.00  0.00    -0.351 N 
ATOM      4  H   UNL d   1      21.924 -17.337  -0.844  0.00  0.00     0.163 HD
ENDROOT
BRANCH   3   5
ATOM      5  C   UNL d   1      21.615 -18.580   0.835  0.00  0.00     0.185 C 
BRANCH   5   6
ATOM      6  C   UNL d   1      20.336 -19.104   0.206  0.00  0.00     0.085 A 
ATOM      7  N   UNL d   1      19.906 -18.575  -0.958  0.00  0.00    -0.176 NA
ATOM      8  N   UNL d   1      18.771 -19.246  -1.236  0.00  0.00    -0.277 N 
ATOM      9  C   UNL d   1      18.438 -20.193  -0.307  0.00  0.00     0.062 A 
ATOM     10  H   UNL d   1      18.262 -19.013  -2.083  0.00  0.00     0.189 HD
ATOM     11  C   UNL d   1      17.358 -21.085  -0.227  0.00  0.00     0.032 A 
ATOM     12  C   UNL d   1      19.438 -20.127   0.658  0.00  0.00     0.020 A 
ATOM     13  C   UNL d   1      17.310 -21.945   0.876  0.00  0.00     0.002 A 
ATOM     14  C   UNL d   1      18.289 -21.909   1.854  0.00  0.00     0.001 A 
ATOM     15  C   UNL d   1      19.340 -21.004   1.758  0.00  0.00     0.016 A 
ENDBRANCH   5   6
ENDBRANCH   3   5
BRANCH   2  16
ATOM     16  C   UNL d   1      24.341 -16.747  -1.148  0.00  0.00     0.032 A 
ATOM     17  C   UNL d   1      25.637 -17.050  -1.591  0.00  0.00     0.018 A 
ATOM     18  C   UNL d   1      26.264 -16.264  -2.567  0.00  0.00     0.025 A 
ATOM     19  C   UNL d   1      25.600 -15.163  -3.103  0.00  0.00     0.034 A 
ATOM     20 CL   UNL d   1      26.389 -14.170  -4.268  0.00  0.00    -0.084 Cl
ATOM     21  C   UNL d   1      24.304 -14.857  -2.688  0.00  0.00     0.025 A 
ATOM     22  C   UNL d   1      23.670 -15.649  -1.714  0.00  0.00     0.018 A 
ENDBRANCH   2  16
TORSDOF 3
ENDMDL
