MODEL 1
REMARK VINA RESULT:    -8.810      0.000      0.000
REMARK INTER + INTRA:         -13.004
REMARK INTER:                 -10.898
REMARK INTRA:                  -2.106
REMARK CONF_INDEPENDENT:        2.088
REMARK UNBOUND:                -2.106
REMARK  7 active torsions:
REMARK  status: ('A' for Active; 'I' for Inactive)
REMARK    1  A    between atoms: O_2  and  C_3 
REMARK    2  A    between atoms: C_3  and  C_5 
REMARK    3  A    between atoms: C_14  and  N_15 
REMARK       I    between atoms: N_15  and  C_16 
REMARK    4  A    between atoms: C_16  and  C_18 
REMARK    5  A    between atoms: C_18  and  N_20 
REMARK    6  A    between atoms: N_23  and  C_24 
REMARK    7  A    between atoms: C_28  and  C_29 
ROOT
ATOM      1  N   UNL d   1      28.029 -15.177   0.207  0.00  0.00    -0.322 N 
ATOM      2  C   UNL d   1      28.553 -13.966   0.655  0.00  0.00     0.253 C 
ATOM      3  O   UNL d   1      28.202 -12.823   0.362  0.00  0.00    -0.271 OA
ATOM      4  H   UNL d   1      28.440 -16.057   0.507  0.00  0.00     0.169 HD
ENDROOT
BRANCH   2   5
ATOM      5  C   UNL d   1      29.736 -13.960   1.639  0.00  0.00     0.275 C 
ATOM      6  C   UNL d   1      30.242 -12.543   1.796  0.00  0.00     0.050 C 
BRANCH   5   7
ATOM      7  N   UNL d   1      29.240 -14.526   3.081  0.00  0.00    -0.056 N 
ATOM      8  C   UNL d   1      30.365 -14.539   4.126  0.00  0.00     0.255 C 
ATOM      9  C   UNL d   1      29.887 -15.009   5.523  0.00  0.00     0.150 C 
ATOM     10  N   UNL d   1      28.693 -14.291   5.964  0.00  0.00    -0.378 N 
ATOM     11  C   UNL d   1      27.553 -14.417   5.048  0.00  0.00     0.150 C 
ATOM     12  C   UNL d   1      27.939 -13.905   3.640  0.00  0.00     0.255 C 
ATOM     13  H   UNL d   1      29.016 -15.522   2.860  0.00  0.00     0.281 HD
BRANCH  10  14
ATOM     14  C   UNL d   1      28.716 -13.274   6.907  0.00  0.00     0.030 A 
ATOM     15  C   UNL d   1      28.876 -11.943   6.490  0.00  0.00     0.029 A 
ATOM     16  C   UNL d   1      28.969 -10.879   7.399  0.00  0.00     0.003 A 
ATOM     17  C   UNL d   1      28.853 -11.117   8.762  0.00  0.00     0.016 A 
ATOM     18  C   UNL d   1      28.682 -12.428   9.221  0.00  0.00     0.050 A 
ATOM     19  C   UNL d   1      28.600 -13.490   8.287  0.00  0.00     0.045 A 
BRANCH  18  20
ATOM     20  C   UNL d   1      28.649 -12.687  10.710  0.00  0.00     0.417 C 
ATOM     21  F   UNL d   1      27.402 -12.525  11.231  0.00  0.00    -0.166 F 
ATOM     22  F   UNL d   1      29.043 -13.944  11.043  0.00  0.00    -0.166 F 
ATOM     23  F   UNL d   1      29.454 -11.838  11.411  0.00  0.00    -0.166 F 
ENDBRANCH  18  20
ENDBRANCH  10  14
ENDBRANCH   5   7
ENDBRANCH   2   5
BRANCH   1  24
ATOM     24  C   UNL d   1      26.958 -15.339  -0.707  0.00  0.00     0.080 A 
ATOM     25  C   UNL d   1      26.500 -14.443  -1.749  0.00  0.00     0.021 A 
ATOM     26  C   UNL d   1      26.848 -13.152  -2.203  0.00  0.00     0.040 A 
ATOM     27  C   UNL d   1      25.450 -15.062  -2.429  0.00  0.00     0.045 A 
ATOM     28  C   UNL d   1      26.201 -12.524  -3.258  0.00  0.00     0.035 A 
ATOM     29  C   UNL d   1      25.175 -13.165  -3.913  0.00  0.00     0.026 A 
ATOM     30 CL   UNL d   1      26.701 -10.935  -3.693  0.00  0.00    -0.084 Cl
ATOM     31  C   UNL d   1      24.779 -14.450  -3.511  0.00  0.00     0.032 A 
ATOM     32  N   UNL d   1      25.261 -16.285  -1.833  0.00  0.00    -0.349 N 
ATOM     33  C   UNL d   1      26.133 -16.474  -0.766  0.00  0.00     0.136 A 
ATOM     34  H   UNL d   1      24.550 -16.951  -2.116  0.00  0.00     0.166 HD
BRANCH  33  35
ATOM     35  C   UNL d   1      26.074 -17.710  -0.004  0.00  0.00     0.312 C 
ATOM     36  O   UNL d   1      26.849 -18.002   0.904  0.00  0.00    -0.258 OA
BRANCH  35  37
ATOM     37  O   UNL d   1      25.072 -18.522  -0.451  0.00  0.00    -0.321 OA
ATOM     38  C   UNL d   1      23.766 -18.195   0.063  0.00  0.00     0.213 C 
ENDBRANCH  35  37
ENDBRANCH  33  35
ENDBRANCH   1  24
TORSDOF 7
ENDMDL
MODEL 2
REMARK VINA RESULT:    -8.447      5.896     10.133
REMARK INTER + INTRA:         -12.556
REMARK INTER:                 -10.536
REMARK INTRA:                  -2.020
REMARK CONF_INDEPENDENT:        2.088
REMARK UNBOUND:                -2.020
REMARK  7 active torsions:
REMARK  status: ('A' for Active; 'I' for Inactive)
REMARK    1  A    between atoms: O_2  and  C_3 
REMARK    2  A    between atoms: C_3  and  C_5 
REMARK    3  A    between atoms: C_14  and  N_15 
REMARK       I    between atoms: N_15  and  C_16 
REMARK    4  A    between atoms: C_16  and  C_18 
REMARK    5  A    between atoms: C_18  and  N_20 
REMARK    6  A    between atoms: N_23  and  C_24 
REMARK    7  A    between atoms: C_28  and  C_29 
ROOT
ATOM      1  N   UNL d   1      29.683 -14.332   3.606  0.00  0.00    -0.322 N 
ATOM      2  C   UNL d   1      30.315 -13.883   2.448  0.00  0.00     0.253 C 
ATOM      3  O   UNL d   1      30.441 -12.729   2.040  0.00  0.00    -0.271 OA
ATOM      4  H   UNL d   1      29.623 -15.326   3.807  0.00  0.00     0.169 HD
ENDROOT
BRANCH   2   5
ATOM      5  C   UNL d   1      30.959 -14.897   1.485  0.00  0.00     0.275 C 
ATOM      6  C   UNL d   1      31.904 -15.787   2.262  0.00  0.00     0.050 C 
BRANCH   5   7
ATOM      7  N   UNL d   1      29.794 -15.803   0.801  0.00  0.00    -0.056 N 
ATOM      8  C   UNL d   1      28.390 -15.221   1.022  0.00  0.00     0.255 C 
ATOM      9  C   UNL d   1      27.279 -16.037   0.315  0.00  0.00     0.150 C 
ATOM     10  N   UNL d   1      27.590 -16.282  -1.092  0.00  0.00    -0.378 N 
ATOM     11  C   UNL d   1      28.856 -16.996  -1.304  0.00  0.00     0.150 C 
ATOM     12  C   UNL d   1      30.027 -16.204  -0.674  0.00  0.00     0.255 C 
ATOM     13  H   UNL d   1      29.850 -16.687   1.355  0.00  0.00     0.281 HD
BRANCH  10  14
ATOM     14  C   UNL d   1      27.002 -15.589  -2.139  0.00  0.00     0.030 A 
ATOM     15  C   UNL d   1      25.635 -15.276  -2.084  0.00  0.00     0.029 A 
ATOM     16  C   UNL d   1      24.971 -14.631  -3.137  0.00  0.00     0.003 A 
ATOM     17  C   UNL d   1      25.677 -14.234  -4.265  0.00  0.00     0.016 A 
ATOM     18  C   UNL d   1      27.044 -14.516  -4.357  0.00  0.00     0.050 A 
ATOM     19  C   UNL d   1      27.695 -15.177  -3.286  0.00  0.00     0.045 A 
BRANCH  18  20
ATOM     20  C   UNL d   1      27.784 -14.162  -5.627  0.00  0.00     0.417 C 
ATOM     21  F   UNL d   1      27.816 -15.200  -6.508  0.00  0.00    -0.166 F 
ATOM     22  F   UNL d   1      27.232 -13.113  -6.293  0.00  0.00    -0.166 F 
ATOM     23  F   UNL d   1      29.086 -13.828  -5.403  0.00  0.00    -0.166 F 
ENDBRANCH  18  20
ENDBRANCH  10  14
ENDBRANCH   5   7
ENDBRANCH   2   5
BRANCH   1  24
ATOM     24  C   UNL d   1      29.035 -13.523   4.572  0.00  0.00     0.080 A 
ATOM     25  C   UNL d   1      29.237 -13.470   6.006  0.00  0.00     0.021 A 
ATOM     26  C   UNL d   1      30.031 -14.163   6.945  0.00  0.00     0.040 A 
ATOM     27  C   UNL d   1      28.410 -12.474   6.529  0.00  0.00     0.045 A 
ATOM     28  C   UNL d   1      30.005 -13.886   8.304  0.00  0.00     0.035 A 
ATOM     29  C   UNL d   1      29.183 -12.893   8.787  0.00  0.00     0.026 A 
ATOM     30 CL   UNL d   1      30.999 -14.827   9.349  0.00  0.00    -0.084 Cl
ATOM     31  C   UNL d   1      28.369 -12.165   7.906  0.00  0.00     0.032 A 
ATOM     32  N   UNL d   1      27.720 -11.937   5.468  0.00  0.00    -0.349 N 
ATOM     33  C   UNL d   1      28.048 -12.569   4.273  0.00  0.00     0.136 A 
ATOM     34  H   UNL d   1      27.033 -11.196   5.554  0.00  0.00     0.166 HD
BRANCH  33  35
ATOM     35  C   UNL d   1      27.408 -12.142   3.039  0.00  0.00     0.312 C 
ATOM     36  O   UNL d   1      27.546 -12.707   1.956  0.00  0.00    -0.258 OA
BRANCH  35  37
ATOM     37  O   UNL d   1      26.667 -11.013   3.230  0.00  0.00    -0.321 OA
ATOM     38  C   UNL d   1      27.364  -9.786   2.943  0.00  0.00     0.213 C 
ENDBRANCH  35  37
ENDBRANCH  33  35
ENDBRANCH   1  24
TORSDOF 7
ENDMDL
MODEL 3
REMARK VINA RESULT:    -8.440      1.925      2.384
REMARK INTER + INTRA:         -12.652
REMARK INTER:                 -10.528
REMARK INTRA:                  -2.124
REMARK CONF_INDEPENDENT:        2.088
REMARK UNBOUND:                -2.124
REMARK  7 active torsions:
REMARK  status: ('A' for Active; 'I' for Inactive)
REMARK    1  A    between atoms: O_2  and  C_3 
REMARK    2  A    between atoms: C_3  and  C_5 
REMARK    3  A    between atoms: C_14  and  N_15 
REMARK       I    between atoms: N_15  and  C_16 
REMARK    4  A    between atoms: C_16  and  C_18 
REMARK    5  A    between atoms: C_18  and  N_20 
REMARK    6  A    between atoms: N_23  and  C_24 
REMARK    7  A    between atoms: C_28  and  C_29 
ROOT
ATOM      1  N   UNL d   1      27.894 -15.431   0.404  0.00  0.00    -0.322 N 
ATOM      2  C   UNL d   1      28.594 -14.278   0.756  0.00  0.00     0.253 C 
ATOM      3  O   UNL d   1      28.441 -13.130   0.339  0.00  0.00    -0.271 OA
ATOM      4  H   UNL d   1      28.148 -16.330   0.806  0.00  0.00     0.169 HD
ENDROOT
BRANCH   2   5
ATOM      5  C   UNL d   1      29.734 -14.359   1.787  0.00  0.00     0.275 C 
ATOM      6  C   UNL d   1      30.504 -13.056   1.776  0.00  0.00     0.050 C 
BRANCH   5   7
ATOM      7  N   UNL d   1      29.105 -14.610   3.266  0.00  0.00    -0.056 N 
ATOM      8  C   UNL d   1      30.181 -14.658   4.361  0.00  0.00     0.255 C 
ATOM      9  C   UNL d   1      29.588 -14.825   5.783  0.00  0.00     0.150 C 
ATOM     10  N   UNL d   1      28.528 -13.856   6.053  0.00  0.00    -0.378 N 
ATOM     11  C   UNL d   1      27.409 -13.922   5.104  0.00  0.00     0.150 C 
ATOM     12  C   UNL d   1      27.919 -13.700   3.660  0.00  0.00     0.255 C 
ATOM     13  H   UNL d   1      28.716 -15.575   3.177  0.00  0.00     0.281 HD
BRANCH  10  14
ATOM     14  C   UNL d   1      28.703 -12.729   6.840  0.00  0.00     0.030 A 
ATOM     15  C   UNL d   1      28.602 -12.834   8.237  0.00  0.00     0.029 A 
ATOM     16  C   UNL d   1      28.709 -11.720   9.082  0.00  0.00     0.003 A 
ATOM     17  C   UNL d   1      28.970 -10.465   8.548  0.00  0.00     0.016 A 
ATOM     18  C   UNL d   1      29.089 -10.316   7.162  0.00  0.00     0.050 A 
ATOM     19  C   UNL d   1      28.969 -11.453   6.325  0.00  0.00     0.045 A 
BRANCH  18  20
ATOM     20  C   UNL d   1      29.282  -8.933   6.586  0.00  0.00     0.417 C 
ATOM     21  F   UNL d   1      30.583  -8.534   6.633  0.00  0.00    -0.166 F 
ATOM     22  F   UNL d   1      28.901  -8.837   5.284  0.00  0.00    -0.166 F 
ATOM     23  F   UNL d   1      28.579  -7.978   7.259  0.00  0.00    -0.166 F 
ENDBRANCH  18  20
ENDBRANCH  10  14
ENDBRANCH   5   7
ENDBRANCH   2   5
BRANCH   1  24
ATOM     24  C   UNL d   1      26.838 -15.514  -0.537  0.00  0.00     0.080 A 
ATOM     25  C   UNL d   1      26.456 -14.574  -1.571  0.00  0.00     0.021 A 
ATOM     26  C   UNL d   1      26.888 -13.297  -1.991  0.00  0.00     0.040 A 
ATOM     27  C   UNL d   1      25.390 -15.119  -2.287  0.00  0.00     0.045 A 
ATOM     28  C   UNL d   1      26.303 -12.614  -3.048  0.00  0.00     0.035 A 
ATOM     29  C   UNL d   1      25.257 -13.183  -3.738  0.00  0.00     0.026 A 
ATOM     30 CL   UNL d   1      26.902 -11.048  -3.439  0.00  0.00    -0.084 Cl
ATOM     31  C   UNL d   1      24.780 -14.450  -3.371  0.00  0.00     0.032 A 
ATOM     32  N   UNL d   1      25.117 -16.341  -1.720  0.00  0.00    -0.349 N 
ATOM     33  C   UNL d   1      25.951 -16.600  -0.638  0.00  0.00     0.136 A 
ATOM     34  H   UNL d   1      24.376 -16.960  -2.033  0.00  0.00     0.166 HD
BRANCH  33  35
ATOM     35  C   UNL d   1      25.804 -17.844   0.098  0.00  0.00     0.312 C 
ATOM     36  O   UNL d   1      26.541 -18.199   1.015  0.00  0.00    -0.258 OA
BRANCH  35  37
ATOM     37  O   UNL d   1      24.766 -18.587  -0.385  0.00  0.00    -0.321 OA
ATOM     38  C   UNL d   1      23.485 -18.265   0.189  0.00  0.00     0.213 C 
ENDBRANCH  35  37
ENDBRANCH  33  35
ENDBRANCH   1  24
TORSDOF 7
ENDMDL
MODEL 4
REMARK VINA RESULT:    -7.801      1.640      2.346
REMARK INTER + INTRA:         -12.569
REMARK INTER:                  -9.889
REMARK INTRA:                  -2.680
REMARK CONF_INDEPENDENT:        2.088
REMARK UNBOUND:                -2.680
REMARK  7 active torsions:
REMARK  status: ('A' for Active; 'I' for Inactive)
REMARK    1  A    between atoms: O_2  and  C_3 
REMARK    2  A    between atoms: C_3  and  C_5 
REMARK    3  A    between atoms: C_14  and  N_15 
REMARK       I    between atoms: N_15  and  C_16 
REMARK    4  A    between atoms: C_16  and  C_18 
REMARK    5  A    between atoms: C_18  and  N_20 
REMARK    6  A    between atoms: N_23  and  C_24 
REMARK    7  A    between atoms: C_28  and  C_29 
ROOT
ATOM      1  N   UNL d   1      27.909 -15.507   1.099  0.00  0.00    -0.322 N 
ATOM      2  C   UNL d   1      28.200 -14.378   1.862  0.00  0.00     0.253 C 
ATOM      3  O   UNL d   1      27.705 -13.253   1.789  0.00  0.00    -0.271 OA
ATOM      4  H   UNL d   1      28.422 -16.373   1.246  0.00  0.00     0.169 HD
ENDROOT
BRANCH   2   5
ATOM      5  C   UNL d   1      29.279 -14.450   2.958  0.00  0.00     0.275 C 
ATOM      6  C   UNL d   1      30.634 -14.195   2.335  0.00  0.00     0.050 C 
BRANCH   5   7
ATOM      7  N   UNL d   1      28.975 -13.320   4.088  0.00  0.00    -0.056 N 
ATOM      8  C   UNL d   1      27.733 -13.649   4.929  0.00  0.00     0.255 C 
ATOM      9  C   UNL d   1      27.474 -12.617   6.055  0.00  0.00     0.150 C 
ATOM     10  N   UNL d   1      28.670 -12.371   6.858  0.00  0.00    -0.378 N 
ATOM     11  C   UNL d   1      29.818 -11.888   6.080  0.00  0.00     0.150 C 
ATOM     12  C   UNL d   1      30.175 -12.905   4.969  0.00  0.00     0.255 C 
ATOM     13  H   UNL d   1      28.738 -12.486   3.505  0.00  0.00     0.281 HD
BRANCH  10  14
ATOM     14  C   UNL d   1      28.864 -12.901   8.124  0.00  0.00     0.030 A 
ATOM     15  C   UNL d   1      28.155 -12.374   9.215  0.00  0.00     0.029 A 
ATOM     16  C   UNL d   1      28.354 -12.827  10.527  0.00  0.00     0.003 A 
ATOM     17  C   UNL d   1      29.242 -13.865  10.778  0.00  0.00     0.016 A 
ATOM     18  C   UNL d   1      29.962 -14.427   9.718  0.00  0.00     0.050 A 
ATOM     19  C   UNL d   1      29.754 -13.949   8.401  0.00  0.00     0.045 A 
BRANCH  18  20
ATOM     20  C   UNL d   1      30.993 -15.492  10.014  0.00  0.00     0.417 C 
ATOM     21  F   UNL d   1      31.938 -15.575   9.037  0.00  0.00    -0.166 F 
ATOM     22  F   UNL d   1      31.663 -15.280  11.177  0.00  0.00    -0.166 F 
ATOM     23  F   UNL d   1      30.450 -16.739  10.108  0.00  0.00    -0.166 F 
ENDBRANCH  18  20
ENDBRANCH  10  14
ENDBRANCH   5   7
ENDBRANCH   2   5
BRANCH   1  24
ATOM     24  C   UNL d   1      26.959 -15.587   0.051  0.00  0.00     0.080 A 
ATOM     25  C   UNL d   1      26.627 -14.605  -0.961  0.00  0.00     0.021 A 
ATOM     26  C   UNL d   1      27.021 -13.283  -1.260  0.00  0.00     0.040 A 
ATOM     27  C   UNL d   1      25.672 -15.161  -1.814  0.00  0.00     0.045 A 
ATOM     28  C   UNL d   1      26.505 -12.567  -2.330  0.00  0.00     0.035 A 
ATOM     29  C   UNL d   1      25.570 -13.146  -3.157  0.00  0.00     0.026 A 
ATOM     30 CL   UNL d   1      27.046 -10.949  -2.567  0.00  0.00    -0.084 Cl
ATOM     31  C   UNL d   1      25.135 -14.458  -2.915  0.00  0.00     0.032 A 
ATOM     32  N   UNL d   1      25.418 -16.429  -1.349  0.00  0.00    -0.349 N 
ATOM     33  C   UNL d   1      26.153 -16.710  -0.203  0.00  0.00     0.136 A 
ATOM     34  H   UNL d   1      24.750 -17.066  -1.772  0.00  0.00     0.166 HD
BRANCH  33  35
ATOM     35  C   UNL d   1      26.009 -18.005   0.441  0.00  0.00     0.312 C 
ATOM     36  O   UNL d   1      26.708 -18.399   1.372  0.00  0.00    -0.258 OA
BRANCH  35  37
ATOM     37  O   UNL d   1      25.022 -18.743  -0.145  0.00  0.00    -0.321 OA
ATOM     38  C   UNL d   1      23.686 -18.352   0.223  0.00  0.00     0.213 C 
ENDBRANCH  35  37
ENDBRANCH  33  35
ENDBRANCH   1  24
TORSDOF 7
ENDMDL
MODEL 5
REMARK VINA RESULT:    -7.608      7.262      9.849
REMARK INTER + INTRA:         -11.959
REMARK INTER:                  -9.696
REMARK INTRA:                  -2.262
REMARK CONF_INDEPENDENT:        2.088
REMARK UNBOUND:                -2.262
REMARK  7 active torsions:
REMARK  status: ('A' for Active; 'I' for Inactive)
REMARK    1  A    between atoms: O_2  and  C_3 
REMARK    2  A    between atoms: C_3  and  C_5 
REMARK    3  A    between atoms: C_14  and  N_15 
REMARK       I    between atoms: N_15  and  C_16 
REMARK    4  A    between atoms: C_16  and  C_18 
REMARK    5  A    between atoms: C_18  and  N_20 
REMARK    6  A    between atoms: N_23  and  C_24 
REMARK    7  A    between atoms: C_28  and  C_29 
ROOT
ATOM      1  N   UNL d   1      31.078 -19.559  -0.368  0.00  0.00    -0.322 N 
ATOM      2  C   UNL d   1      31.435 -18.264  -0.739  0.00  0.00     0.253 C 
ATOM      3  O   UNL d   1      31.874 -17.868  -1.818  0.00  0.00    -0.271 OA
ATOM      4  H   UNL d   1      30.758 -19.754   0.577  0.00  0.00     0.169 HD
ENDROOT
BRANCH   2   5
ATOM      5  C   UNL d   1      31.310 -17.115   0.278  0.00  0.00     0.275 C 
ATOM      6  C   UNL d   1      32.199 -15.970  -0.158  0.00  0.00     0.050 C 
BRANCH   5   7
ATOM      7  N   UNL d   1      29.764 -16.615   0.336  0.00  0.00    -0.056 N 
ATOM      8  C   UNL d   1      29.624 -15.107   0.078  0.00  0.00     0.255 C 
ATOM      9  C   UNL d   1      28.149 -14.632   0.061  0.00  0.00     0.150 C 
ATOM     10  N   UNL d   1      27.319 -15.451  -0.821  0.00  0.00    -0.378 N 
ATOM     11  C   UNL d   1      27.313 -16.877  -0.473  0.00  0.00     0.150 C 
ATOM     12  C   UNL d   1      28.754 -17.439  -0.496  0.00  0.00     0.255 C 
ATOM     13  H   UNL d   1      29.518 -16.778   1.337  0.00  0.00     0.281 HD
BRANCH  10  14
ATOM     14  C   UNL d   1      26.905 -15.042  -2.080  0.00  0.00     0.030 A 
ATOM     15  C   UNL d   1      25.541 -14.809  -2.321  0.00  0.00     0.029 A 
ATOM     16  C   UNL d   1      25.055 -14.454  -3.588  0.00  0.00     0.003 A 
ATOM     17  C   UNL d   1      25.936 -14.273  -4.646  0.00  0.00     0.016 A 
ATOM     18  C   UNL d   1      27.305 -14.485  -4.447  0.00  0.00     0.050 A 
ATOM     19  C   UNL d   1      27.776 -14.852  -3.162  0.00  0.00     0.045 A 
BRANCH  18  20
ATOM     20  C   UNL d   1      28.244 -14.375  -5.626  0.00  0.00     0.417 C 
ATOM     21  F   UNL d   1      29.442 -13.828  -5.278  0.00  0.00    -0.166 F 
ATOM     22  F   UNL d   1      28.524 -15.575  -6.200  0.00  0.00    -0.166 F 
ATOM     23  F   UNL d   1      27.752 -13.582  -6.620  0.00  0.00    -0.166 F 
ENDBRANCH  18  20
ENDBRANCH  10  14
ENDBRANCH   5   7
ENDBRANCH   2   5
BRANCH   1  24
ATOM     24  C   UNL d   1      31.155 -20.715  -1.185  0.00  0.00     0.080 A 
ATOM     25  C   UNL d   1      31.266 -20.812  -2.627  0.00  0.00     0.021 A 
ATOM     26  C   UNL d   1      31.284 -19.902  -3.706  0.00  0.00     0.040 A 
ATOM     27  C   UNL d   1      31.371 -22.160  -2.969  0.00  0.00     0.045 A 
ATOM     28  C   UNL d   1      31.398 -20.305  -5.029  0.00  0.00     0.035 A 
ATOM     29  C   UNL d   1      31.507 -21.643  -5.332  0.00  0.00     0.026 A 
ATOM     30 CL   UNL d   1      31.374 -19.097  -6.256  0.00  0.00    -0.084 Cl
ATOM     31  C   UNL d   1      31.497 -22.599  -4.305  0.00  0.00     0.032 A 
ATOM     32  N   UNL d   1      31.321 -22.871  -1.793  0.00  0.00    -0.349 N 
ATOM     33  C   UNL d   1      31.157 -22.032  -0.696  0.00  0.00     0.136 A 
ATOM     34  H   UNL d   1      31.364 -23.883  -1.738  0.00  0.00     0.166 HD
BRANCH  33  35
ATOM     35  C   UNL d   1      31.072 -22.605   0.637  0.00  0.00     0.312 C 
ATOM     36  O   UNL d   1      30.911 -21.950   1.664  0.00  0.00    -0.258 OA
BRANCH  35  37
ATOM     37  O   UNL d   1      31.232 -23.960   0.606  0.00  0.00    -0.321 OA
ATOM     38  C   UNL d   1      30.030 -24.695   0.303  0.00  0.00     0.213 C 
ENDBRANCH  35  37
ENDBRANCH  33  35
ENDBRANCH   1  24
TORSDOF 7
ENDMDL
MODEL 6
REMARK VINA RESULT:    -7.559      2.885      4.194
REMARK INTER + INTRA:         -12.230
REMARK INTER:                  -9.647
REMARK INTRA:                  -2.583
REMARK CONF_INDEPENDENT:        2.088
REMARK UNBOUND:                -2.583
REMARK  7 active torsions:
REMARK  status: ('A' for Active; 'I' for Inactive)
REMARK    1  A    between atoms: O_2  and  C_3 
REMARK    2  A    between atoms: C_3  and  C_5 
REMARK    3  A    between atoms: C_14  and  N_15 
REMARK       I    between atoms: N_15  and  C_16 
REMARK    4  A    between atoms: C_16  and  C_18 
REMARK    5  A    between atoms: C_18  and  N_20 
REMARK    6  A    between atoms: N_23  and  C_24 
REMARK    7  A    between atoms: C_28  and  C_29 
ROOT
ATOM      1  N   UNL d   1      28.514 -14.962   1.331  0.00  0.00    -0.322 N 
ATOM      2  C   UNL d   1      28.632 -14.075   2.400  0.00  0.00     0.253 C 
ATOM      3  O   UNL d   1      28.126 -12.961   2.533  0.00  0.00    -0.271 OA
ATOM      4  H   UNL d   1      29.017 -15.845   1.338  0.00  0.00     0.169 HD
ENDROOT
BRANCH   2   5
ATOM      5  C   UNL d   1      29.502 -14.450   3.614  0.00  0.00     0.275 C 
ATOM      6  C   UNL d   1      30.956 -14.457   3.197  0.00  0.00     0.050 C 
BRANCH   5   7
ATOM      7  N   UNL d   1      29.277 -13.355   4.795  0.00  0.00    -0.056 N 
ATOM      8  C   UNL d   1      27.953 -13.563   5.545  0.00  0.00     0.255 C 
ATOM      9  C   UNL d   1      27.761 -12.570   6.719  0.00  0.00     0.150 C 
ATOM     10  N   UNL d   1      28.927 -12.530   7.600  0.00  0.00    -0.378 N 
ATOM     11  C   UNL d   1      30.173 -12.162   6.917  0.00  0.00     0.150 C 
ATOM     12  C   UNL d   1      30.464 -13.152   5.764  0.00  0.00     0.255 C 
ATOM     13  H   UNL d   1      29.186 -12.466   4.255  0.00  0.00     0.281 HD
BRANCH  10  14
ATOM     14  C   UNL d   1      28.972 -13.152   8.838  0.00  0.00     0.030 A 
ATOM     15  C   UNL d   1      28.154 -12.687   9.880  0.00  0.00     0.029 A 
ATOM     16  C   UNL d   1      28.200 -13.235  11.170  0.00  0.00     0.003 A 
ATOM     17  C   UNL d   1      29.040 -14.307  11.441  0.00  0.00     0.016 A 
ATOM     18  C   UNL d   1      29.866 -14.809  10.429  0.00  0.00     0.050 A 
ATOM     19  C   UNL d   1      29.811 -14.236   9.134  0.00  0.00     0.045 A 
BRANCH  18  20
ATOM     20  C   UNL d   1      30.842 -15.915  10.758  0.00  0.00     0.417 C 
ATOM     21  F   UNL d   1      32.046 -15.734  10.147  0.00  0.00    -0.166 F 
ATOM     22  F   UNL d   1      31.101 -16.022  12.088  0.00  0.00    -0.166 F 
ATOM     23  F   UNL d   1      30.405 -17.142  10.355  0.00  0.00    -0.166 F 
ENDBRANCH  18  20
ENDBRANCH  10  14
ENDBRANCH   5   7
ENDBRANCH   2   5
BRANCH   1  24
ATOM     24  C   UNL d   1      27.767 -14.749   0.146  0.00  0.00     0.080 A 
ATOM     25  C   UNL d   1      26.636 -15.492  -0.370  0.00  0.00     0.021 A 
ATOM     26  C   UNL d   1      25.918 -16.645   0.015  0.00  0.00     0.040 A 
ATOM     27  C   UNL d   1      26.198 -14.869  -1.539  0.00  0.00     0.045 A 
ATOM     28  C   UNL d   1      24.844 -17.141  -0.709  0.00  0.00     0.035 A 
ATOM     29  C   UNL d   1      24.433 -16.499  -1.854  0.00  0.00     0.026 A 
ATOM     30 CL   UNL d   1      24.074 -18.576  -0.148  0.00  0.00    -0.084 Cl
ATOM     31  C   UNL d   1      25.103 -15.347  -2.292  0.00  0.00     0.032 A 
ATOM     32  N   UNL d   1      27.025 -13.790  -1.745  0.00  0.00    -0.349 N 
ATOM     33  C   UNL d   1      28.006 -13.705  -0.764  0.00  0.00     0.136 A 
ATOM     34  H   UNL d   1      26.947 -13.157  -2.534  0.00  0.00     0.166 HD
BRANCH  33  35
ATOM     35  C   UNL d   1      28.983 -12.630  -0.820  0.00  0.00     0.312 C 
ATOM     36  O   UNL d   1      30.020 -12.600  -0.161  0.00  0.00    -0.258 OA
BRANCH  35  37
ATOM     37  O   UNL d   1      28.583 -11.640  -1.670  0.00  0.00    -0.321 OA
ATOM     38  C   UNL d   1      27.969 -10.510  -1.021  0.00  0.00     0.213 C 
ENDBRANCH  35  37
ENDBRANCH  33  35
ENDBRANCH   1  24
TORSDOF 7
ENDMDL
MODEL 7
REMARK VINA RESULT:    -7.359      6.930      9.309
REMARK INTER + INTRA:         -12.206
REMARK INTER:                  -9.447
REMARK INTRA:                  -2.759
REMARK CONF_INDEPENDENT:        2.088
REMARK UNBOUND:                -2.759
REMARK  7 active torsions:
REMARK  status: ('A' for Active; 'I' for Inactive)
REMARK    1  A    between atoms: O_2  and  C_3 
REMARK    2  A    between atoms: C_3  and  C_5 
REMARK    3  A    between atoms: C_14  and  N_15 
REMARK       I    between atoms: N_15  and  C_16 
REMARK    4  A    between atoms: C_16  and  C_18 
REMARK    5  A    between atoms: C_18  and  N_20 
REMARK    6  A    between atoms: N_23  and  C_24 
REMARK    7  A    between atoms: C_28  and  C_29 
ROOT
ATOM      1  N   UNL d   1      30.032 -16.126  -4.494  0.00  0.00    -0.322 N 
ATOM      2  C   UNL d   1      29.509 -15.501  -5.624  0.00  0.00     0.253 C 
ATOM      3  O   UNL d   1      29.280 -15.986  -6.732  0.00  0.00    -0.271 OA
ATOM      4  H   UNL d   1      30.202 -15.594  -3.644  0.00  0.00     0.169 HD
ENDROOT
BRANCH   2   5
ATOM      5  C   UNL d   1      29.153 -14.004  -5.577  0.00  0.00     0.275 C 
ATOM      6  C   UNL d   1      28.860 -13.521  -6.980  0.00  0.00     0.050 C 
BRANCH   5   7
ATOM      7  N   UNL d   1      27.840 -13.793  -4.641  0.00  0.00    -0.056 N 
ATOM      8  C   UNL d   1      26.703 -14.762  -4.997  0.00  0.00     0.255 C 
ATOM      9  C   UNL d   1      25.473 -14.618  -4.065  0.00  0.00     0.150 C 
ATOM     10  N   UNL d   1      25.848 -14.657  -2.653  0.00  0.00    -0.378 N 
ATOM     11  C   UNL d   1      26.811 -13.619  -2.266  0.00  0.00     0.150 C 
ATOM     12  C   UNL d   1      28.098 -13.739  -3.117  0.00  0.00     0.255 C 
ATOM     13  H   UNL d   1      27.526 -12.837  -4.917  0.00  0.00     0.281 HD
BRANCH  10  14
ATOM     14  C   UNL d   1      25.660 -15.765  -1.841  0.00  0.00     0.030 A 
ATOM     15  C   UNL d   1      26.768 -16.380  -1.236  0.00  0.00     0.029 A 
ATOM     16  C   UNL d   1      26.648 -17.539  -0.456  0.00  0.00     0.003 A 
ATOM     17  C   UNL d   1      25.396 -18.091  -0.218  0.00  0.00     0.016 A 
ATOM     18  C   UNL d   1      24.263 -17.505  -0.793  0.00  0.00     0.050 A 
ATOM     19  C   UNL d   1      24.407 -16.339  -1.586  0.00  0.00     0.045 A 
BRANCH  18  20
ATOM     20  C   UNL d   1      22.918 -18.166  -0.603  0.00  0.00     0.417 C 
ATOM     21  F   UNL d   1      21.888 -17.324  -0.895  0.00  0.00    -0.166 F 
ATOM     22  F   UNL d   1      22.746 -19.264  -1.385  0.00  0.00    -0.166 F 
ATOM     23  F   UNL d   1      22.707 -18.575   0.680  0.00  0.00    -0.166 F 
ENDBRANCH  18  20
ENDBRANCH  10  14
ENDBRANCH   5   7
ENDBRANCH   2   5
BRANCH   1  24
ATOM     24  C   UNL d   1      30.420 -17.485  -4.393  0.00  0.00     0.080 A 
ATOM     25  C   UNL d   1      30.766 -18.420  -5.444  0.00  0.00     0.021 A 
ATOM     26  C   UNL d   1      30.802 -18.391  -6.855  0.00  0.00     0.040 A 
ATOM     27  C   UNL d   1      31.140 -19.627  -4.853  0.00  0.00     0.045 A 
ATOM     28  C   UNL d   1      31.184 -19.483  -7.621  0.00  0.00     0.035 A 
ATOM     29  C   UNL d   1      31.553 -20.658  -7.006  0.00  0.00     0.026 A 
ATOM     30 CL   UNL d   1      31.153 -19.329  -9.336  0.00  0.00    -0.084 Cl
ATOM     31  C   UNL d   1      31.540 -20.752  -5.607  0.00  0.00     0.032 A 
ATOM     32  N   UNL d   1      31.024 -19.453  -3.494  0.00  0.00    -0.349 N 
ATOM     33  C   UNL d   1      30.560 -18.181  -3.179  0.00  0.00     0.136 A 
ATOM     34  H   UNL d   1      31.222 -20.176  -2.810  0.00  0.00     0.166 HD
BRANCH  33  35
ATOM     35  C   UNL d   1      30.364 -17.814  -1.787  0.00  0.00     0.312 C 
ATOM     36  O   UNL d   1      30.448 -18.598  -0.845  0.00  0.00    -0.258 OA
BRANCH  35  37
ATOM     37  O   UNL d   1      30.037 -16.495  -1.663  0.00  0.00    -0.321 OA
ATOM     38  C   UNL d   1      30.024 -16.009  -0.307  0.00  0.00     0.213 C 
ENDBRANCH  35  37
ENDBRANCH  33  35
ENDBRANCH   1  24
TORSDOF 7
ENDMDL
MODEL 8
REMARK VINA RESULT:    -7.207      6.876      9.275
REMARK INTER + INTRA:         -12.405
REMARK INTER:                  -9.295
REMARK INTRA:                  -3.109
REMARK CONF_INDEPENDENT:        2.088
REMARK UNBOUND:                -3.109
REMARK  7 active torsions:
REMARK  status: ('A' for Active; 'I' for Inactive)
REMARK    1  A    between atoms: O_2  and  C_3 
REMARK    2  A    between atoms: C_3  and  C_5 
REMARK    3  A    between atoms: C_14  and  N_15 
REMARK       I    between atoms: N_15  and  C_16 
REMARK    4  A    between atoms: C_16  and  C_18 
REMARK    5  A    between atoms: C_18  and  N_20 
REMARK    6  A    between atoms: N_23  and  C_24 
REMARK    7  A    between atoms: C_28  and  C_29 
ROOT
ATOM      1  N   UNL d   1      30.403 -17.239  -2.504  0.00  0.00    -0.322 N 
ATOM      2  C   UNL d   1      31.084 -18.002  -1.557  0.00  0.00     0.253 C 
ATOM      3  O   UNL d   1      31.735 -19.032  -1.725  0.00  0.00    -0.271 OA
ATOM      4  H   UNL d   1      29.872 -16.420  -2.219  0.00  0.00     0.169 HD
ENDROOT
BRANCH   2   5
ATOM      5  C   UNL d   1      31.061 -17.583  -0.076  0.00  0.00     0.275 C 
ATOM      6  C   UNL d   1      32.257 -16.700   0.207  0.00  0.00     0.050 C 
BRANCH   5   7
ATOM      7  N   UNL d   1      29.691 -16.761   0.230  0.00  0.00    -0.056 N 
ATOM      8  C   UNL d   1      29.778 -15.291  -0.204  0.00  0.00     0.255 C 
ATOM      9  C   UNL d   1      28.455 -14.515   0.017  0.00  0.00     0.150 C 
ATOM     10  N   UNL d   1      27.306 -15.220  -0.549  0.00  0.00    -0.378 N 
ATOM     11  C   UNL d   1      27.115 -16.572  -0.009  0.00  0.00     0.150 C 
ATOM     12  C   UNL d   1      28.381 -17.428  -0.249  0.00  0.00     0.255 C 
ATOM     13  H   UNL d   1      29.658 -16.770   1.273  0.00  0.00     0.281 HD
BRANCH  10  14
ATOM     14  C   UNL d   1      26.695 -14.857  -1.739  0.00  0.00     0.030 A 
ATOM     15  C   UNL d   1      26.108 -15.843  -2.549  0.00  0.00     0.029 A 
ATOM     16  C   UNL d   1      25.530 -15.545  -3.792  0.00  0.00     0.003 A 
ATOM     17  C   UNL d   1      25.480 -14.231  -4.238  0.00  0.00     0.016 A 
ATOM     18  C   UNL d   1      26.044 -13.215  -3.459  0.00  0.00     0.050 A 
ATOM     19  C   UNL d   1      26.631 -13.538  -2.210  0.00  0.00     0.045 A 
BRANCH  18  20
ATOM     20  C   UNL d   1      26.066 -11.803  -3.996  0.00  0.00     0.417 C 
ATOM     21  F   UNL d   1      25.530 -11.721  -5.245  0.00  0.00    -0.166 F 
ATOM     22  F   UNL d   1      25.371 -10.926  -3.224  0.00  0.00    -0.166 F 
ATOM     23  F   UNL d   1      27.328 -11.299  -4.102  0.00  0.00    -0.166 F 
ENDBRANCH  18  20
ENDBRANCH  10  14
ENDBRANCH   5   7
ENDBRANCH   2   5
BRANCH   1  24
ATOM     24  C   UNL d   1      30.320 -17.508  -3.893  0.00  0.00     0.080 A 
ATOM     25  C   UNL d   1      30.827 -18.643  -4.638  0.00  0.00     0.021 A 
ATOM     26  C   UNL d   1      31.582 -19.798  -4.338  0.00  0.00     0.040 A 
ATOM     27  C   UNL d   1      30.449 -18.495  -5.973  0.00  0.00     0.045 A 
ATOM     28  C   UNL d   1      31.934 -20.737  -5.297  0.00  0.00     0.035 A 
ATOM     29  C   UNL d   1      31.539 -20.565  -6.604  0.00  0.00     0.026 A 
ATOM     30 CL   UNL d   1      32.885 -22.086  -4.807  0.00  0.00    -0.084 Cl
ATOM     31  C   UNL d   1      30.786 -19.439  -6.968  0.00  0.00     0.032 A 
ATOM     32  N   UNL d   1      29.745 -17.317  -6.055  0.00  0.00    -0.349 N 
ATOM     33  C   UNL d   1      29.674 -16.677  -4.823  0.00  0.00     0.136 A 
ATOM     34  H   UNL d   1      29.355 -16.948  -6.916  0.00  0.00     0.166 HD
BRANCH  33  35
ATOM     35  C   UNL d   1      28.975 -15.407  -4.715  0.00  0.00     0.312 C 
ATOM     36  O   UNL d   1      29.083 -14.635  -3.765  0.00  0.00    -0.258 OA
BRANCH  35  37
ATOM     37  O   UNL d   1      28.155 -15.200  -5.786  0.00  0.00    -0.321 OA
ATOM     38  C   UNL d   1      28.631 -14.211  -6.720  0.00  0.00     0.213 C 
ENDBRANCH  35  37
ENDBRANCH  33  35
ENDBRANCH   1  24
TORSDOF 7
ENDMDL
MODEL 9
REMARK VINA RESULT:    -7.097      7.810     10.462
REMARK INTER + INTRA:         -12.026
REMARK INTER:                  -9.185
REMARK INTRA:                  -2.841
REMARK CONF_INDEPENDENT:        2.088
REMARK UNBOUND:                -2.841
REMARK  7 active torsions:
REMARK  status: ('A' for Active; 'I' for Inactive)
REMARK    1  A    between atoms: O_2  and  C_3 
REMARK    2  A    between atoms: C_3  and  C_5 
REMARK    3  A    between atoms: C_14  and  N_15 
REMARK       I    between atoms: N_15  and  C_16 
REMARK    4  A    between atoms: C_16  and  C_18 
REMARK    5  A    between atoms: C_18  and  N_20 
REMARK    6  A    between atoms: N_23  and  C_24 
REMARK    7  A    between atoms: C_28  and  C_29 
ROOT
ATOM      1  N   UNL d   1      27.241 -14.820  -2.549  0.00  0.00    -0.322 N 
ATOM      2  C   UNL d   1      26.200 -14.456  -3.400  0.00  0.00     0.253 C 
ATOM      3  O   UNL d   1      25.093 -14.978  -3.526  0.00  0.00    -0.271 OA
ATOM      4  H   UNL d   1      28.124 -14.316  -2.570  0.00  0.00     0.169 HD
ENDROOT
BRANCH   2   5
ATOM      5  C   UNL d   1      26.373 -13.260  -4.354  0.00  0.00     0.275 C 
ATOM      6  C   UNL d   1      26.487 -11.990  -3.539  0.00  0.00     0.050 C 
BRANCH   5   7
ATOM      7  N   UNL d   1      27.723 -13.466  -5.236  0.00  0.00    -0.056 N 
ATOM      8  C   UNL d   1      29.001 -13.330  -4.395  0.00  0.00     0.255 C 
ATOM      9  C   UNL d   1      30.292 -13.595  -5.209  0.00  0.00     0.150 C 
ATOM     10  N   UNL d   1      30.221 -14.849  -5.957  0.00  0.00    -0.378 N 
ATOM     11  C   UNL d   1      29.093 -14.917  -6.894  0.00  0.00     0.150 C 
ATOM     12  C   UNL d   1      27.757 -14.722  -6.138  0.00  0.00     0.255 C 
ATOM     13  H   UNL d   1      27.692 -12.645  -5.880  0.00  0.00     0.281 HD
BRANCH  10  14
ATOM     14  C   UNL d   1      30.869 -16.011  -5.567  0.00  0.00     0.030 A 
ATOM     15  C   UNL d   1      32.066 -15.928  -4.837  0.00  0.00     0.029 A 
ATOM     16  C   UNL d   1      32.799 -17.065  -4.468  0.00  0.00     0.003 A 
ATOM     17  C   UNL d   1      32.322 -18.331  -4.781  0.00  0.00     0.016 A 
ATOM     18  C   UNL d   1      31.128 -18.461  -5.498  0.00  0.00     0.050 A 
ATOM     19  C   UNL d   1      30.407 -17.299  -5.870  0.00  0.00     0.045 A 
BRANCH  18  20
ATOM     20  C   UNL d   1      30.665 -19.839  -5.913  0.00  0.00     0.417 C 
ATOM     21  F   UNL d   1      29.786 -20.374  -5.022  0.00  0.00    -0.166 F 
ATOM     22  F   UNL d   1      30.042 -19.853  -7.120  0.00  0.00    -0.166 F 
ATOM     23  F   UNL d   1      31.689 -20.734  -6.003  0.00  0.00    -0.166 F 
ENDBRANCH  18  20
ENDBRANCH  10  14
ENDBRANCH   5   7
ENDBRANCH   2   5
BRANCH   1  24
ATOM     24  C   UNL d   1      27.234 -15.902  -1.634  0.00  0.00     0.080 A 
ATOM     25  C   UNL d   1      26.110 -16.648  -1.106  0.00  0.00     0.021 A 
ATOM     26  C   UNL d   1      24.704 -16.583  -1.222  0.00  0.00     0.040 A 
ATOM     27  C   UNL d   1      26.604 -17.662  -0.283  0.00  0.00     0.045 A 
ATOM     28  C   UNL d   1      23.853 -17.462  -0.568  0.00  0.00     0.035 A 
ATOM     29  C   UNL d   1      24.372 -18.455   0.230  0.00  0.00     0.026 A 
ATOM     30 CL   UNL d   1      22.155 -17.254  -0.767  0.00  0.00    -0.084 Cl
ATOM     31  C   UNL d   1      25.761 -18.575   0.388  0.00  0.00     0.032 A 
ATOM     32  N   UNL d   1      27.973 -17.546  -0.294  0.00  0.00    -0.349 N 
ATOM     33  C   UNL d   1      28.390 -16.473  -1.073  0.00  0.00     0.136 A 
ATOM     34  H   UNL d   1      28.598 -18.150   0.230  0.00  0.00     0.166 HD
BRANCH  33  35
ATOM     35  C   UNL d   1      29.809 -16.185  -1.197  0.00  0.00     0.312 C 
ATOM     36  O   UNL d   1      30.274 -15.260  -1.859  0.00  0.00    -0.258 OA
BRANCH  35  37
ATOM     37  O   UNL d   1      30.561 -17.097  -0.515  0.00  0.00    -0.321 OA
ATOM     38  C   UNL d   1      31.154 -18.118  -1.340  0.00  0.00     0.213 C 
ENDBRANCH  35  37
ENDBRANCH  33  35
ENDBRANCH   1  24
TORSDOF 7
ENDMDL
