MODEL 1
REMARK VINA RESULT:    -7.806      0.000      0.000
REMARK INTER + INTRA:          -9.177
REMARK INTER:                  -8.402
REMARK INTRA:                  -0.775
REMARK CONF_INDEPENDENT:        0.597
REMARK UNBOUND:                -0.775
REMARK  2 active torsions:
REMARK  status: ('A' for Active; 'I' for Inactive)
REMARK    1  A    between atoms: C_5  and  C_6 
REMARK    2  A    between atoms: C_14  and  C_15 
REMARK       I    between atoms: C_15  and  N_17 
REMARK       I    between atoms: N_17  and  C_18 
REMARK       I    between atoms: C_18  and  N_20 
ROOT
ATOM      1  C   UNL d   1      30.830 -15.462  -0.105  0.00  0.00     0.080 C 
ATOM      2  C   UNL d   1      29.485 -16.001  -0.350  0.00  0.00     0.093 A 
ATOM      3  O   UNL d   1      29.437 -17.032  -1.234  0.00  0.00    -0.217 OA
ATOM      4  N   UNL d   1      28.141 -17.450  -1.393  0.00  0.00    -0.127 NA
ATOM      5  C   UNL d   1      27.395 -16.682  -0.590  0.00  0.00     0.117 A 
ATOM      6  C   UNL d   1      28.215 -15.714   0.109  0.00  0.00     0.096 A 
ENDROOT
BRANCH   6   7
ATOM      7  C   UNL d   1      27.765 -14.718   1.065  0.00  0.00     0.274 C 
ATOM      8  O   UNL d   1      26.822 -13.970   0.817  0.00  0.00    -0.267 OA
ATOM      9  N   UNL d   1      28.392 -14.583   2.352  0.00  0.00    -0.156 N 
ATOM     10  C   UNL d   1      27.971 -13.711   3.325  0.00  0.00     0.676 C 
ATOM     11  H   UNL d   1      29.124 -15.224   2.603  0.00  0.00     0.187 HD
ATOM     12  N   UNL d   1      26.919 -12.908   3.079  0.00  0.00    -0.234 N 
ATOM     13  N   UNL d   1      28.579 -13.600   4.549  0.00  0.00    -0.218 N 
ATOM     14  H   UNL d   1      26.497 -12.913   2.147  0.00  0.00     0.174 HD
ATOM     15  H   UNL d   1      26.656 -12.164   3.709  0.00  0.00     0.174 HD
ATOM     16  C   UNL d   1      30.014 -13.764   4.861  0.00  0.00     0.141 C 
ATOM     17  C   UNL d   1      27.831 -13.476   5.850  0.00  0.00     0.141 C 
ATOM     18  C   UNL d   1      30.030 -14.450   6.216  0.00  0.00     0.022 C 
ATOM     19  C   UNL d   1      28.849 -13.822   6.952  0.00  0.00     0.022 C 
ENDBRANCH   6   7
BRANCH   5  20
ATOM     20  C   UNL d   1      25.949 -16.870  -0.519  0.00  0.00     0.056 A 
ATOM     21  C   UNL d   1      25.441 -17.878   0.311  0.00  0.00     0.130 A 
ATOM     22  F   UNL d   1      26.277 -18.602   1.073  0.00  0.00    -0.205 F 
ATOM     23  C   UNL d   1      24.087 -18.200   0.329  0.00  0.00     0.043 A 
ATOM     24  C   UNL d   1      23.199 -17.485  -0.470  0.00  0.00     0.005 A 
ATOM     25  C   UNL d   1      23.674 -16.445  -1.270  0.00  0.00     0.025 A 
ATOM     26  C   UNL d   1      25.041 -16.135  -1.297  0.00  0.00     0.049 A 
ATOM     27 CL   UNL d   1      25.540 -14.874  -2.371  0.00  0.00    -0.083 Cl
ENDBRANCH   5  20
TORSDOF 2
ENDMDL
MODEL 2
REMARK VINA RESULT:    -7.541      2.824      3.802
REMARK INTER + INTRA:          -9.237
REMARK INTER:                  -8.138
REMARK INTRA:                  -1.099
REMARK CONF_INDEPENDENT:        0.597
REMARK UNBOUND:                -1.099
REMARK  2 active torsions:
REMARK  status: ('A' for Active; 'I' for Inactive)
REMARK    1  A    between atoms: C_5  and  C_6 
REMARK    2  A    between atoms: C_14  and  C_15 
REMARK       I    between atoms: C_15  and  N_17 
REMARK       I    between atoms: N_17  and  C_18 
REMARK       I    between atoms: C_18  and  N_20 
ROOT
ATOM      1  C   UNL d   1      25.535 -12.549  -4.859  0.00  0.00     0.080 C 
ATOM      2  C   UNL d   1      25.691 -13.739  -4.011  0.00  0.00     0.093 A 
ATOM      3  O   UNL d   1      25.313 -14.907  -4.593  0.00  0.00    -0.217 OA
ATOM      4  N   UNL d   1      25.491 -15.946  -3.715  0.00  0.00    -0.127 NA
ATOM      5  C   UNL d   1      25.996 -15.412  -2.597  0.00  0.00     0.117 A 
ATOM      6  C   UNL d   1      26.140 -13.977  -2.727  0.00  0.00     0.096 A 
ENDROOT
BRANCH   6   7
ATOM      7  C   UNL d   1      26.656 -13.057  -1.729  0.00  0.00     0.274 C 
ATOM      8  O   UNL d   1      26.775 -11.856  -1.963  0.00  0.00    -0.267 OA
ATOM      9  N   UNL d   1      27.028 -13.512  -0.417  0.00  0.00    -0.156 N 
ATOM     10  C   UNL d   1      27.455 -12.684   0.592  0.00  0.00     0.676 C 
ATOM     11  H   UNL d   1      26.881 -14.477  -0.180  0.00  0.00     0.187 HD
ATOM     12  N   UNL d   1      27.559 -11.362   0.360  0.00  0.00    -0.234 N 
ATOM     13  N   UNL d   1      27.800 -13.136   1.840  0.00  0.00    -0.218 N 
ATOM     14  H   UNL d   1      27.385 -11.008  -0.584  0.00  0.00     0.174 HD
ATOM     15  H   UNL d   1      27.991 -10.735   1.024  0.00  0.00     0.174 HD
ATOM     16  C   UNL d   1      28.434 -14.424   2.188  0.00  0.00     0.141 C 
ATOM     17  C   UNL d   1      27.403 -12.451   3.120  0.00  0.00     0.141 C 
ATOM     18  C   UNL d   1      27.782 -14.824   3.500  0.00  0.00     0.022 C 
ATOM     19  C   UNL d   1      27.603 -13.497   4.233  0.00  0.00     0.022 C 
ENDBRANCH   6   7
BRANCH   5  20
ATOM     20  C   UNL d   1      26.307 -16.257  -1.447  0.00  0.00     0.056 A 
ATOM     21  C   UNL d   1      27.651 -16.518  -1.149  0.00  0.00     0.130 A 
ATOM     22  F   UNL d   1      28.622 -15.938  -1.873  0.00  0.00    -0.205 F 
ATOM     23  C   UNL d   1      28.018 -17.417  -0.152  0.00  0.00     0.043 A 
ATOM     24  C   UNL d   1      27.034 -18.054   0.598  0.00  0.00     0.005 A 
ATOM     25  C   UNL d   1      25.689 -17.774   0.351  0.00  0.00     0.025 A 
ATOM     26  C   UNL d   1      25.323 -16.880  -0.665  0.00  0.00     0.049 A 
ATOM     27 CL   UNL d   1      23.630 -16.651  -0.939  0.00  0.00    -0.083 Cl
ENDBRANCH   5  20
TORSDOF 2
ENDMDL
MODEL 3
REMARK VINA RESULT:    -7.275      1.602      1.881
REMARK INTER + INTRA:          -8.691
REMARK INTER:                  -7.872
REMARK INTRA:                  -0.819
REMARK CONF_INDEPENDENT:        0.597
REMARK UNBOUND:                -0.819
REMARK  2 active torsions:
REMARK  status: ('A' for Active; 'I' for Inactive)
REMARK    1  A    between atoms: C_5  and  C_6 
REMARK    2  A    between atoms: C_14  and  C_15 
REMARK       I    between atoms: C_15  and  N_17 
REMARK       I    between atoms: N_17  and  C_18 
REMARK       I    between atoms: C_18  and  N_20 
ROOT
ATOM      1  C   UNL d   1      31.103 -15.061  -0.647  0.00  0.00     0.080 C 
ATOM      2  C   UNL d   1      29.777 -15.638  -0.909  0.00  0.00     0.093 A 
ATOM      3  O   UNL d   1      29.757 -16.613  -1.855  0.00  0.00    -0.217 OA
ATOM      4  N   UNL d   1      28.476 -17.074  -2.024  0.00  0.00    -0.127 NA
ATOM      5  C   UNL d   1      27.713 -16.388  -1.165  0.00  0.00     0.117 A 
ATOM      6  C   UNL d   1      28.504 -15.433  -0.417  0.00  0.00     0.096 A 
ENDROOT
BRANCH   6   7
ATOM      7  C   UNL d   1      28.029 -14.517   0.605  0.00  0.00     0.274 C 
ATOM      8  O   UNL d   1      27.124 -13.716   0.380  0.00  0.00    -0.267 OA
ATOM      9  N   UNL d   1      28.585 -14.527   1.931  0.00  0.00    -0.156 N 
ATOM     10  C   UNL d   1      28.134 -13.736   2.960  0.00  0.00     0.676 C 
ATOM     11  H   UNL d   1      29.282 -15.213   2.159  0.00  0.00     0.187 HD
ATOM     12  N   UNL d   1      27.122 -12.878   2.736  0.00  0.00    -0.234 N 
ATOM     13  N   UNL d   1      28.673 -13.764   4.221  0.00  0.00    -0.218 N 
ATOM     14  H   UNL d   1      26.754 -12.780   1.787  0.00  0.00     0.174 HD
ATOM     15  H   UNL d   1      26.845 -12.188   3.420  0.00  0.00     0.174 HD
ATOM     16  C   UNL d   1      30.083 -14.006   4.592  0.00  0.00     0.141 C 
ATOM     17  C   UNL d   1      27.856 -13.738   5.484  0.00  0.00     0.141 C 
ATOM     18  C   UNL d   1      30.001 -14.818   5.873  0.00  0.00     0.022 C 
ATOM     19  C   UNL d   1      28.799 -14.223   6.602  0.00  0.00     0.022 C 
ENDBRANCH   6   7
BRANCH   5  20
ATOM     20  C   UNL d   1      26.276 -16.639  -1.088  0.00  0.00     0.056 A 
ATOM     21  C   UNL d   1      25.415 -15.867  -1.879  0.00  0.00     0.130 A 
ATOM     22  F   UNL d   1      25.922 -14.967  -2.737  0.00  0.00    -0.205 F 
ATOM     23  C   UNL d   1      24.032 -15.960  -1.761  0.00  0.00     0.043 A 
ATOM     24  C   UNL d   1      23.477 -16.865  -0.861  0.00  0.00     0.005 A 
ATOM     25  C   UNL d   1      24.314 -17.679  -0.096  0.00  0.00     0.025 A 
ATOM     26  C   UNL d   1      25.707 -17.571  -0.206  0.00  0.00     0.049 A 
ATOM     27 CL   UNL d   1      26.658 -18.574   0.833  0.00  0.00    -0.083 Cl
ENDBRANCH   5  20
TORSDOF 2
ENDMDL
MODEL 4
REMARK VINA RESULT:    -6.940      2.916      3.891
REMARK INTER + INTRA:          -8.711
REMARK INTER:                  -7.537
REMARK INTRA:                  -1.174
REMARK CONF_INDEPENDENT:        0.597
REMARK UNBOUND:                -1.174
REMARK  2 active torsions:
REMARK  status: ('A' for Active; 'I' for Inactive)
REMARK    1  A    between atoms: C_5  and  C_6 
REMARK    2  A    between atoms: C_14  and  C_15 
REMARK       I    between atoms: C_15  and  N_17 
REMARK       I    between atoms: N_17  and  C_18 
REMARK       I    between atoms: C_18  and  N_20 
ROOT
ATOM      1  C   UNL d   1      25.565 -12.167  -4.855  0.00  0.00     0.080 C 
ATOM      2  C   UNL d   1      25.661 -13.404  -4.068  0.00  0.00     0.093 A 
ATOM      3  O   UNL d   1      25.083 -14.491  -4.642  0.00  0.00    -0.217 OA
ATOM      4  N   UNL d   1      25.223 -15.582  -3.823  0.00  0.00    -0.127 NA
ATOM      5  C   UNL d   1      25.905 -15.163  -2.750  0.00  0.00     0.117 A 
ATOM      6  C   UNL d   1      26.211 -13.752  -2.850  0.00  0.00     0.096 A 
ENDROOT
BRANCH   6   7
ATOM      7  C   UNL d   1      26.939 -12.946  -1.885  0.00  0.00     0.274 C 
ATOM      8  O   UNL d   1      27.310 -11.805  -2.153  0.00  0.00    -0.267 OA
ATOM      9  N   UNL d   1      27.235 -13.444  -0.570  0.00  0.00    -0.156 N 
ATOM     10  C   UNL d   1      27.857 -12.709   0.410  0.00  0.00     0.676 C 
ATOM     11  H   UNL d   1      26.888 -14.349  -0.305  0.00  0.00     0.187 HD
ATOM     12  N   UNL d   1      28.240 -11.446   0.141  0.00  0.00    -0.234 N 
ATOM     13  N   UNL d   1      28.126 -13.199   1.661  0.00  0.00    -0.218 N 
ATOM     14  H   UNL d   1      28.124 -11.083  -0.808  0.00  0.00     0.174 HD
ATOM     15  H   UNL d   1      28.814 -10.915   0.781  0.00  0.00     0.174 HD
ATOM     16  C   UNL d   1      28.472 -14.587   2.030  0.00  0.00     0.141 C 
ATOM     17  C   UNL d   1      27.919 -12.417   2.931  0.00  0.00     0.141 C 
ATOM     18  C   UNL d   1      27.781 -14.808   3.364  0.00  0.00     0.022 C 
ATOM     19  C   UNL d   1      27.913 -13.459   4.067  0.00  0.00     0.022 C 
ENDBRANCH   6   7
BRANCH   5  20
ATOM     20  C   UNL d   1      26.229 -16.091  -1.670  0.00  0.00     0.056 A 
ATOM     21  C   UNL d   1      25.184 -16.611  -0.895  0.00  0.00     0.130 A 
ATOM     22  F   UNL d   1      23.911 -16.308  -1.197  0.00  0.00    -0.205 F 
ATOM     23  C   UNL d   1      25.427 -17.395   0.230  0.00  0.00     0.043 A 
ATOM     24  C   UNL d   1      26.737 -17.704   0.583  0.00  0.00     0.005 A 
ATOM     25  C   UNL d   1      27.793 -17.237  -0.200  0.00  0.00     0.025 A 
ATOM     26  C   UNL d   1      27.544 -16.435  -1.323  0.00  0.00     0.049 A 
ATOM     27 CL   UNL d   1      28.921 -15.849  -2.191  0.00  0.00    -0.083 Cl
ENDBRANCH   5  20
TORSDOF 2
ENDMDL
MODEL 5
REMARK VINA RESULT:    -6.886      2.853      3.951
REMARK INTER + INTRA:          -8.267
REMARK INTER:                  -7.483
REMARK INTRA:                  -0.785
REMARK CONF_INDEPENDENT:        0.597
REMARK UNBOUND:                -0.785
REMARK  2 active torsions:
REMARK  status: ('A' for Active; 'I' for Inactive)
REMARK    1  A    between atoms: C_5  and  C_6 
REMARK    2  A    between atoms: C_14  and  C_15 
REMARK       I    between atoms: C_15  and  N_17 
REMARK       I    between atoms: N_17  and  C_18 
REMARK       I    between atoms: C_18  and  N_20 
ROOT
ATOM      1  C   UNL d   1      26.117 -18.438   0.424  0.00  0.00     0.080 C 
ATOM      2  C   UNL d   1      25.981 -17.324  -0.525  0.00  0.00     0.093 A 
ATOM      3  O   UNL d   1      24.922 -17.421  -1.370  0.00  0.00    -0.217 OA
ATOM      4  N   UNL d   1      24.896 -16.340  -2.212  0.00  0.00    -0.127 NA
ATOM      5  C   UNL d   1      25.935 -15.570  -1.870  0.00  0.00     0.117 A 
ATOM      6  C   UNL d   1      26.684 -16.164  -0.782  0.00  0.00     0.096 A 
ENDROOT
BRANCH   6   7
ATOM      7  C   UNL d   1      27.868 -15.623  -0.139  0.00  0.00     0.274 C 
ATOM      8  O   UNL d   1      28.927 -15.491  -0.750  0.00  0.00    -0.267 OA
ATOM      9  N   UNL d   1      27.842 -15.196   1.233  0.00  0.00    -0.156 N 
ATOM     10  C   UNL d   1      28.905 -14.613   1.879  0.00  0.00     0.676 C 
ATOM     11  H   UNL d   1      26.973 -15.235   1.736  0.00  0.00     0.187 HD
ATOM     12  N   UNL d   1      30.061 -14.432   1.212  0.00  0.00    -0.234 N 
ATOM     13  N   UNL d   1      28.860 -14.207   3.187  0.00  0.00    -0.218 N 
ATOM     14  H   UNL d   1      30.148 -14.798   0.260  0.00  0.00     0.174 HD
ATOM     15  H   UNL d   1      30.905 -14.131   1.678  0.00  0.00     0.174 HD
ATOM     16  C   UNL d   1      28.110 -14.830   4.298  0.00  0.00     0.141 C 
ATOM     17  C   UNL d   1      29.434 -12.907   3.684  0.00  0.00     0.141 C 
ATOM     18  C   UNL d   1      27.630 -13.657   5.134  0.00  0.00     0.022 C 
ATOM     19  C   UNL d   1      28.787 -12.663   5.061  0.00  0.00     0.022 C 
ENDBRANCH   6   7
BRANCH   5  20
ATOM     20  C   UNL d   1      26.198 -14.321  -2.580  0.00  0.00     0.056 A 
ATOM     21  C   UNL d   1      26.415 -13.155  -1.834  0.00  0.00     0.130 A 
ATOM     22  F   UNL d   1      26.447 -13.216  -0.493  0.00  0.00    -0.205 F 
ATOM     23  C   UNL d   1      26.541 -11.910  -2.442  0.00  0.00     0.043 A 
ATOM     24  C   UNL d   1      26.486 -11.812  -3.829  0.00  0.00     0.005 A 
ATOM     25  C   UNL d   1      26.318 -12.965  -4.597  0.00  0.00     0.025 A 
ATOM     26  C   UNL d   1      26.176 -14.216  -3.980  0.00  0.00     0.049 A 
ATOM     27 CL   UNL d   1      25.905 -15.576  -5.013  0.00  0.00    -0.083 Cl
ENDBRANCH   5  20
TORSDOF 2
ENDMDL
MODEL 6
REMARK VINA RESULT:    -6.856      3.775      7.058
REMARK INTER + INTRA:          -8.494
REMARK INTER:                  -7.453
REMARK INTRA:                  -1.041
REMARK CONF_INDEPENDENT:        0.597
REMARK UNBOUND:                -1.041
REMARK  2 active torsions:
REMARK  status: ('A' for Active; 'I' for Inactive)
REMARK    1  A    between atoms: C_5  and  C_6 
REMARK    2  A    between atoms: C_14  and  C_15 
REMARK       I    between atoms: C_15  and  N_17 
REMARK       I    between atoms: N_17  and  C_18 
REMARK       I    between atoms: C_18  and  N_20 
ROOT
ATOM      1  C   UNL d   1      23.369 -18.606  -0.876  0.00  0.00     0.080 C 
ATOM      2  C   UNL d   1      24.600 -17.882  -0.530  0.00  0.00     0.093 A 
ATOM      3  O   UNL d   1      25.345 -18.459   0.449  0.00  0.00    -0.217 OA
ATOM      4  N   UNL d   1      26.460 -17.700   0.696  0.00  0.00    -0.127 NA
ATOM      5  C   UNL d   1      26.405 -16.663  -0.148  0.00  0.00     0.117 A 
ATOM      6  C   UNL d   1      25.212 -16.723  -0.966  0.00  0.00     0.096 A 
ENDROOT
BRANCH   6   7
ATOM      7  C   UNL d   1      24.810 -15.780  -1.995  0.00  0.00     0.274 C 
ATOM      8  O   UNL d   1      23.678 -15.302  -2.020  0.00  0.00    -0.267 OA
ATOM      9  N   UNL d   1      25.730 -15.351  -3.013  0.00  0.00    -0.156 N 
ATOM     10  C   UNL d   1      25.434 -14.412  -3.970  0.00  0.00     0.676 C 
ATOM     11  H   UNL d   1      26.679 -15.679  -2.977  0.00  0.00     0.187 HD
ATOM     12  N   UNL d   1      24.209 -13.855  -3.990  0.00  0.00    -0.234 N 
ATOM     13  N   UNL d   1      26.327 -14.010  -4.931  0.00  0.00    -0.218 N 
ATOM     14  H   UNL d   1      23.498 -14.194  -3.336  0.00  0.00     0.174 HD
ATOM     15  H   UNL d   1      23.904 -13.262  -4.749  0.00  0.00     0.174 HD
ATOM     16  C   UNL d   1      27.370 -14.825  -5.588  0.00  0.00     0.141 C 
ATOM     17  C   UNL d   1      26.522 -12.577  -5.349  0.00  0.00     0.141 C 
ATOM     18  C   UNL d   1      28.540 -13.873  -5.760  0.00  0.00     0.022 C 
ATOM     19  C   UNL d   1      27.874 -12.538  -6.085  0.00  0.00     0.022 C 
ENDBRANCH   6   7
BRANCH   5  20
ATOM     20  C   UNL d   1      27.457 -15.650  -0.146  0.00  0.00     0.056 A 
ATOM     21  C   UNL d   1      27.139 -14.351   0.273  0.00  0.00     0.130 A 
ATOM     22  F   UNL d   1      25.905 -14.078   0.727  0.00  0.00    -0.205 F 
ATOM     23  C   UNL d   1      28.054 -13.306   0.177  0.00  0.00     0.043 A 
ATOM     24  C   UNL d   1      29.332 -13.554  -0.314  0.00  0.00     0.005 A 
ATOM     25  C   UNL d   1      29.688 -14.849  -0.693  0.00  0.00     0.025 A 
ATOM     26  C   UNL d   1      28.759 -15.895  -0.610  0.00  0.00     0.049 A 
ATOM     27 CL   UNL d   1      29.273 -17.450  -1.167  0.00  0.00    -0.083 Cl
ENDBRANCH   5  20
TORSDOF 2
ENDMDL
MODEL 7
REMARK VINA RESULT:    -6.793      4.599      6.637
REMARK INTER + INTRA:          -8.566
REMARK INTER:                  -7.390
REMARK INTRA:                  -1.177
REMARK CONF_INDEPENDENT:        0.597
REMARK UNBOUND:                -1.177
REMARK  2 active torsions:
REMARK  status: ('A' for Active; 'I' for Inactive)
REMARK    1  A    between atoms: C_5  and  C_6 
REMARK    2  A    between atoms: C_14  and  C_15 
REMARK       I    between atoms: C_15  and  N_17 
REMARK       I    between atoms: N_17  and  C_18 
REMARK       I    between atoms: C_18  and  N_20 
ROOT
ATOM      1  C   UNL d   1      23.961 -18.346   0.197  0.00  0.00     0.080 C 
ATOM      2  C   UNL d   1      24.385 -17.254  -0.691  0.00  0.00     0.093 A 
ATOM      3  O   UNL d   1      23.370 -16.511  -1.204  0.00  0.00    -0.217 OA
ATOM      4  N   UNL d   1      23.875 -15.531  -2.020  0.00  0.00    -0.127 NA
ATOM      5  C   UNL d   1      25.206 -15.666  -1.992  0.00  0.00     0.117 A 
ATOM      6  C   UNL d   1      25.596 -16.777  -1.149  0.00  0.00     0.096 A 
ENDROOT
BRANCH   6   7
ATOM      7  C   UNL d   1      26.949 -17.228  -0.870  0.00  0.00     0.274 C 
ATOM      8  O   UNL d   1      27.220 -17.844   0.159  0.00  0.00    -0.267 OA
ATOM      9  N   UNL d   1      28.020 -16.991  -1.798  0.00  0.00    -0.156 N 
ATOM     10  C   UNL d   1      29.303 -17.450  -1.626  0.00  0.00     0.676 C 
ATOM     11  H   UNL d   1      27.813 -16.544  -2.674  0.00  0.00     0.187 HD
ATOM     12  N   UNL d   1      29.607 -18.155  -0.520  0.00  0.00    -0.234 N 
ATOM     13  N   UNL d   1      30.312 -17.218  -2.525  0.00  0.00    -0.218 N 
ATOM     14  H   UNL d   1      28.895 -18.273   0.205  0.00  0.00     0.174 HD
ATOM     15  H   UNL d   1      30.559 -18.399  -0.287  0.00  0.00     0.174 HD
ATOM     16  C   UNL d   1      30.508 -16.023  -3.371  0.00  0.00     0.141 C 
ATOM     17  C   UNL d   1      31.313 -18.259  -2.951  0.00  0.00     0.141 C 
ATOM     18  C   UNL d   1      31.043 -16.571  -4.682  0.00  0.00     0.022 C 
ATOM     19  C   UNL d   1      31.945 -17.724  -4.249  0.00  0.00     0.022 C 
ENDBRANCH   6   7
BRANCH   5  20
ATOM     20  C   UNL d   1      26.058 -14.765  -2.763  0.00  0.00     0.056 A 
ATOM     21  C   UNL d   1      26.212 -14.998  -4.137  0.00  0.00     0.130 A 
ATOM     22  F   UNL d   1      25.528 -15.990  -4.728  0.00  0.00    -0.205 F 
ATOM     23  C   UNL d   1      27.108 -14.262  -4.907  0.00  0.00     0.043 A 
ATOM     24  C   UNL d   1      27.851 -13.245  -4.317  0.00  0.00     0.005 A 
ATOM     25  C   UNL d   1      27.680 -12.963  -2.960  0.00  0.00     0.025 A 
ATOM     26  C   UNL d   1      26.788 -13.716  -2.184  0.00  0.00     0.049 A 
ATOM     27 CL   UNL d   1      26.696 -13.335  -0.499  0.00  0.00    -0.083 Cl
ENDBRANCH   5  20
TORSDOF 2
ENDMDL
MODEL 8
REMARK VINA RESULT:    -6.669      3.899      5.439
REMARK INTER + INTRA:          -8.411
REMARK INTER:                  -7.266
REMARK INTRA:                  -1.145
REMARK CONF_INDEPENDENT:        0.597
REMARK UNBOUND:                -1.145
REMARK  2 active torsions:
REMARK  status: ('A' for Active; 'I' for Inactive)
REMARK    1  A    between atoms: C_5  and  C_6 
REMARK    2  A    between atoms: C_14  and  C_15 
REMARK       I    between atoms: C_15  and  N_17 
REMARK       I    between atoms: N_17  and  C_18 
REMARK       I    between atoms: C_18  and  N_20 
ROOT
ATOM      1  C   UNL d   1      31.093 -17.621  -5.816  0.00  0.00     0.080 C 
ATOM      2  C   UNL d   1      29.986 -16.674  -5.622  0.00  0.00     0.093 A 
ATOM      3  O   UNL d   1      29.554 -16.063  -6.756  0.00  0.00    -0.217 OA
ATOM      4  N   UNL d   1      28.530 -15.200  -6.460  0.00  0.00    -0.127 NA
ATOM      5  C   UNL d   1      28.324 -15.298  -5.142  0.00  0.00     0.117 A 
ATOM      6  C   UNL d   1      29.248 -16.237  -4.541  0.00  0.00     0.096 A 
ENDROOT
BRANCH   6   7
ATOM      7  C   UNL d   1      29.326 -16.609  -3.139  0.00  0.00     0.274 C 
ATOM      8  O   UNL d   1      30.046 -17.530  -2.759  0.00  0.00    -0.267 OA
ATOM      9  N   UNL d   1      28.582 -15.898  -2.136  0.00  0.00    -0.156 N 
ATOM     10  C   UNL d   1      28.665 -16.154  -0.789  0.00  0.00     0.676 C 
ATOM     11  H   UNL d   1      28.035 -15.101  -2.413  0.00  0.00     0.187 HD
ATOM     12  N   UNL d   1      29.474 -17.139  -0.356  0.00  0.00    -0.234 N 
ATOM     13  N   UNL d   1      27.951 -15.461   0.154  0.00  0.00    -0.218 N 
ATOM     14  H   UNL d   1      29.957 -17.724  -1.043  0.00  0.00     0.174 HD
ATOM     15  H   UNL d   1      29.469 -17.450   0.605  0.00  0.00     0.174 HD
ATOM     16  C   UNL d   1      26.595 -14.890   0.017  0.00  0.00     0.141 C 
ATOM     17  C   UNL d   1      28.526 -14.989   1.463  0.00  0.00     0.141 C 
ATOM     18  C   UNL d   1      26.655 -13.585   0.792  0.00  0.00     0.022 C 
ATOM     19  C   UNL d   1      27.553 -13.913   1.982  0.00  0.00     0.022 C 
ENDBRANCH   6   7
BRANCH   5  20
ATOM     20  C   UNL d   1      27.286 -14.500  -4.494  0.00  0.00     0.056 A 
ATOM     21  C   UNL d   1      25.946 -14.862  -4.678  0.00  0.00     0.130 A 
ATOM     22  F   UNL d   1      25.641 -15.965  -5.382  0.00  0.00    -0.205 F 
ATOM     23  C   UNL d   1      24.902 -14.075  -4.200  0.00  0.00     0.043 A 
ATOM     24  C   UNL d   1      25.186 -12.913  -3.490  0.00  0.00     0.005 A 
ATOM     25  C   UNL d   1      26.514 -12.555  -3.252  0.00  0.00     0.025 A 
ATOM     26  C   UNL d   1      27.562 -13.343  -3.748  0.00  0.00     0.049 A 
ATOM     27 CL   UNL d   1      29.173 -12.781  -3.460  0.00  0.00    -0.083 Cl
ENDBRANCH   5  20
TORSDOF 2
ENDMDL
MODEL 9
REMARK VINA RESULT:    -6.593      3.078      5.096
REMARK INTER + INTRA:          -8.269
REMARK INTER:                  -7.190
REMARK INTRA:                  -1.079
REMARK CONF_INDEPENDENT:        0.597
REMARK UNBOUND:                -1.079
REMARK  2 active torsions:
REMARK  status: ('A' for Active; 'I' for Inactive)
REMARK    1  A    between atoms: C_5  and  C_6 
REMARK    2  A    between atoms: C_14  and  C_15 
REMARK       I    between atoms: C_15  and  N_17 
REMARK       I    between atoms: N_17  and  C_18 
REMARK       I    between atoms: C_18  and  N_20 
ROOT
ATOM      1  C   UNL d   1      24.195 -18.589  -0.147  0.00  0.00     0.080 C 
ATOM      2  C   UNL d   1      24.566 -17.339  -0.825  0.00  0.00     0.093 A 
ATOM      3  O   UNL d   1      23.533 -16.686  -1.420  0.00  0.00    -0.217 OA
ATOM      4  N   UNL d   1      23.990 -15.544  -2.026  0.00  0.00    -0.127 NA
ATOM      5  C   UNL d   1      25.306 -15.491  -1.786  0.00  0.00     0.117 A 
ATOM      6  C   UNL d   1      25.739 -16.638  -1.016  0.00  0.00     0.096 A 
ENDROOT
BRANCH   6   7
ATOM      7  C   UNL d   1      27.088 -16.925  -0.561  0.00  0.00     0.274 C 
ATOM      8  O   UNL d   1      27.519 -18.075  -0.516  0.00  0.00    -0.267 OA
ATOM      9  N   UNL d   1      27.983 -15.870  -0.168  0.00  0.00    -0.156 N 
ATOM     10  C   UNL d   1      29.290 -16.069   0.204  0.00  0.00     0.676 C 
ATOM     11  H   UNL d   1      27.676 -14.918  -0.256  0.00  0.00     0.187 HD
ATOM     12  N   UNL d   1      29.785 -17.321   0.227  0.00  0.00    -0.234 N 
ATOM     13  N   UNL d   1      30.130 -15.050   0.571  0.00  0.00    -0.218 N 
ATOM     14  H   UNL d   1      29.158 -18.106   0.036  0.00  0.00     0.174 HD
ATOM     15  H   UNL d   1      30.693 -17.529   0.617  0.00  0.00     0.174 HD
ATOM     16  C   UNL d   1      29.778 -13.803   1.282  0.00  0.00     0.141 C 
ATOM     17  C   UNL d   1      31.565 -14.943   0.128  0.00  0.00     0.141 C 
ATOM     18  C   UNL d   1      30.664 -12.744   0.649  0.00  0.00     0.022 C 
ATOM     19  C   UNL d   1      31.975 -13.481   0.386  0.00  0.00     0.022 C 
ENDBRANCH   6   7
BRANCH   5  20
ATOM     20  C   UNL d   1      26.107 -14.383  -2.299  0.00  0.00     0.056 A 
ATOM     21  C   UNL d   1      26.547 -13.400  -1.403  0.00  0.00     0.130 A 
ATOM     22  F   UNL d   1      26.288 -13.526  -0.092  0.00  0.00    -0.205 F 
ATOM     23  C   UNL d   1      27.202 -12.252  -1.840  0.00  0.00     0.043 A 
ATOM     24  C   UNL d   1      27.461 -12.081  -3.196  0.00  0.00     0.005 A 
ATOM     25  C   UNL d   1      27.075 -13.069  -4.103  0.00  0.00     0.025 A 
ATOM     26  C   UNL d   1      26.403 -14.217  -3.661  0.00  0.00     0.049 A 
ATOM     27 CL   UNL d   1      25.905 -15.350  -4.869  0.00  0.00    -0.083 Cl
ENDBRANCH   5  20
TORSDOF 2
ENDMDL
