MODEL 1
REMARK VINA RESULT:   -28.458      0.000      0.000
REMARK INTER + INTRA:         -30.686
REMARK INTER:                 -29.949
REMARK INTRA:                  -0.736
REMARK CONF_INDEPENDENT:        1.492
REMARK UNBOUND:                -0.736
REMARK  5 active torsions:
REMARK  status: ('A' for Active; 'I' for Inactive)
REMARK    1  A    between atoms: O_2  and  C_3 
REMARK    2  A    between atoms: C_6  and  N_7 
REMARK    3  A    between atoms: N_7  and  C_8 
REMARK    4  A    between atoms: C_11  and  N_12 
REMARK       I    between atoms: N_12  and  C_13 
REMARK    5  A    between atoms: C_13  and  C_15 
ROOT
ATOM      1  C   UNL d   1      26.587 -12.088  -3.681  0.00  0.00     0.032 A 
ATOM      2  C   UNL d   1      26.700 -12.589  -2.381  0.00  0.00     0.031 A 
ATOM      3  C   UNL d   1      25.908 -13.681  -1.952  0.00  0.00     0.032 A 
ATOM      4  C   UNL d   1      24.929 -14.232  -2.792  0.00  0.00     0.035 A 
ATOM      5  C   UNL d   1      24.844 -13.723  -4.091  0.00  0.00     0.032 A 
ATOM      6  C   UNL d   1      25.657 -12.678  -4.527  0.00  0.00     0.031 A 
ENDROOT
BRANCH   4   7
ATOM      7  N   UNL d   1      24.042 -15.246  -2.305  0.00  0.00    -0.323 N 
ATOM      8  C   UNL d   1      24.445 -16.315  -1.504  0.00  0.00     0.256 C 
ATOM      9  O   UNL d   1      25.583 -16.519  -1.102  0.00  0.00    -0.267 OA
ATOM     10  H   UNL d   1      23.070 -15.177  -2.573  0.00  0.00     0.169 HD
BRANCH   8  11
ATOM     11  C   UNL d   1      23.443 -17.302  -1.015  0.00  0.00     0.034 A 
ATOM     12  C   UNL d   1      24.017 -18.455  -0.445  0.00  0.00     0.019 A 
ATOM     13  C   UNL d   1      23.269 -19.586  -0.145  0.00  0.00     0.033 A 
ATOM     14  C   UNL d   1      21.901 -19.470  -0.322  0.00  0.00     0.062 A 
ATOM     15  N   UNL d   1      20.899 -20.345  -0.008  0.00  0.00    -0.349 N 
ATOM     16  C   UNL d   1      21.270 -18.352  -0.858  0.00  0.00     0.085 A 
ATOM     17  C   UNL d   1      19.716 -19.758  -0.342  0.00  0.00     0.208 A 
ATOM     18  H   UNL d   1      21.028 -21.230   0.463  0.00  0.00     0.167 HD
ATOM     19  N   UNL d   1      19.903 -18.575  -0.895  0.00  0.00    -0.242 NA
ATOM     20  C   UNL d   1      22.057 -17.239  -1.254  0.00  0.00     0.051 A 
ENDBRANCH   8  11
ENDBRANCH   4   7
BRANCH   1  21
ATOM     21  N   UNL d   1      27.333 -10.984  -4.127  0.00  0.00    -0.356 N 
ATOM     22  H   UNL d   1      28.284 -10.931  -3.787  0.00  0.00     0.166 HD
BRANCH  21  23
ATOM     23  C   UNL d   1      26.864  -9.901  -4.895  0.00  0.00     0.032 A 
ATOM     24  C   UNL d   1      25.828  -9.081  -4.436  0.00  0.00     0.032 A 
ATOM     25  C   UNL d   1      25.259  -8.114  -5.284  0.00  0.00     0.039 A 
ATOM     26  C   UNL d   1      25.774  -7.904  -6.565  0.00  0.00     0.068 A 
ATOM     27  C   UNL d   1      26.870  -8.643  -6.984  0.00  0.00     0.039 A 
ATOM     28  C   UNL d   1      27.391  -9.636  -6.165  0.00  0.00     0.032 A 
BRANCH  26  29
ATOM     29  O   UNL d   1      25.207  -6.916  -7.323  0.00  0.00    -0.356 OA
ATOM     30  C   UNL d   1      24.919  -5.717  -6.603  0.00  0.00     0.210 C 
ENDBRANCH  26  29
ENDBRANCH  21  23
ENDBRANCH   1  21
TORSDOF 5
ENDMDL
MODEL 2
REMARK VINA RESULT:   -28.439      4.093      5.205
REMARK INTER + INTRA:         -30.654
REMARK INTER:                 -29.931
REMARK INTRA:                  -0.724
REMARK CONF_INDEPENDENT:        1.492
REMARK UNBOUND:                -0.724
REMARK  5 active torsions:
REMARK  status: ('A' for Active; 'I' for Inactive)
REMARK    1  A    between atoms: O_2  and  C_3 
REMARK    2  A    between atoms: C_6  and  N_7 
REMARK    3  A    between atoms: N_7  and  C_8 
REMARK    4  A    between atoms: C_11  and  N_12 
REMARK       I    between atoms: N_12  and  C_13 
REMARK    5  A    between atoms: C_13  and  C_15 
ROOT
ATOM      1  C   UNL d   1      28.019 -14.196  -4.485  0.00  0.00     0.032 A 
ATOM      2  C   UNL d   1      27.035 -14.791  -5.279  0.00  0.00     0.031 A 
ATOM      3  C   UNL d   1      25.991 -15.550  -4.696  0.00  0.00     0.032 A 
ATOM      4  C   UNL d   1      25.968 -15.798  -3.315  0.00  0.00     0.035 A 
ATOM      5  C   UNL d   1      26.955 -15.182  -2.541  0.00  0.00     0.032 A 
ATOM      6  C   UNL d   1      27.955 -14.396  -3.111  0.00  0.00     0.031 A 
ENDROOT
BRANCH   4   7
ATOM      7  N   UNL d   1      24.987 -16.677  -2.752  0.00  0.00    -0.323 N 
ATOM      8  C   UNL d   1      24.400 -16.489  -1.501  0.00  0.00     0.256 C 
ATOM      9  O   UNL d   1      24.624 -15.559  -0.737  0.00  0.00    -0.267 OA
ATOM     10  H   UNL d   1      24.720 -17.483  -3.300  0.00  0.00     0.169 HD
BRANCH   8  11
ATOM     11  C   UNL d   1      23.361 -17.437  -1.013  0.00  0.00     0.034 A 
ATOM     12  C   UNL d   1      23.890 -18.613  -0.444  0.00  0.00     0.019 A 
ATOM     13  C   UNL d   1      23.099 -19.714  -0.145  0.00  0.00     0.033 A 
ATOM     14  C   UNL d   1      21.737 -19.546  -0.323  0.00  0.00     0.062 A 
ATOM     15  N   UNL d   1      20.702 -20.382  -0.010  0.00  0.00    -0.349 N 
ATOM     16  C   UNL d   1      21.149 -18.404  -0.858  0.00  0.00     0.085 A 
ATOM     17  C   UNL d   1      19.542 -19.750  -0.344  0.00  0.00     0.208 A 
ATOM     18  H   UNL d   1      20.796 -21.272   0.461  0.00  0.00     0.167 HD
ATOM     19  N   UNL d   1      19.774 -18.575  -0.896  0.00  0.00    -0.242 NA
ATOM     20  C   UNL d   1      21.978 -17.322  -1.252  0.00  0.00     0.051 A 
ENDBRANCH   8  11
ENDBRANCH   4   7
BRANCH   1  21
ATOM     21  N   UNL d   1      29.086 -13.466  -5.034  0.00  0.00    -0.356 N 
ATOM     22  H   UNL d   1      29.139 -12.494  -4.759  0.00  0.00     0.166 HD
BRANCH  21  23
ATOM     23  C   UNL d   1      30.007 -13.911  -6.001  0.00  0.00     0.032 A 
ATOM     24  C   UNL d   1      30.395 -15.253  -6.070  0.00  0.00     0.032 A 
ATOM     25  C   UNL d   1      31.438 -15.647  -6.927  0.00  0.00     0.039 A 
ATOM     26  C   UNL d   1      32.045 -14.721  -7.778  0.00  0.00     0.068 A 
ATOM     27  C   UNL d   1      31.590 -13.411  -7.788  0.00  0.00     0.039 A 
ATOM     28  C   UNL d   1      30.599 -13.014  -6.899  0.00  0.00     0.032 A 
BRANCH  26  29
ATOM     29  O   UNL d   1      33.022 -15.177  -8.621  0.00  0.00    -0.356 OA
ATOM     30  C   UNL d   1      33.022 -16.593  -8.806  0.00  0.00     0.210 C 
ENDBRANCH  26  29
ENDBRANCH  21  23
ENDBRANCH   1  21
TORSDOF 5
ENDMDL
MODEL 3
REMARK VINA RESULT:   -28.434      3.181      4.036
REMARK INTER + INTRA:         -30.648
REMARK INTER:                 -29.926
REMARK INTRA:                  -0.722
REMARK CONF_INDEPENDENT:        1.492
REMARK UNBOUND:                -0.722
REMARK  5 active torsions:
REMARK  status: ('A' for Active; 'I' for Inactive)
REMARK    1  A    between atoms: O_2  and  C_3 
REMARK    2  A    between atoms: C_6  and  N_7 
REMARK    3  A    between atoms: N_7  and  C_8 
REMARK    4  A    between atoms: C_11  and  N_12 
REMARK       I    between atoms: N_12  and  C_13 
REMARK    5  A    between atoms: C_13  and  C_15 
ROOT
ATOM      1  C   UNL d   1      27.595 -13.420  -4.143  0.00  0.00     0.032 A 
ATOM      2  C   UNL d   1      26.237 -13.104  -4.045  0.00  0.00     0.031 A 
ATOM      3  C   UNL d   1      25.322 -14.009  -3.454  0.00  0.00     0.032 A 
ATOM      4  C   UNL d   1      25.740 -15.280  -3.032  0.00  0.00     0.035 A 
ATOM      5  C   UNL d   1      27.104 -15.567  -3.129  0.00  0.00     0.032 A 
ATOM      6  C   UNL d   1      28.012 -14.657  -3.668  0.00  0.00     0.031 A 
ENDROOT
BRANCH   4   7
ATOM      7  N   UNL d   1      24.785 -16.238  -2.561  0.00  0.00    -0.323 N 
ATOM      8  C   UNL d   1      24.384 -16.347  -1.229  0.00  0.00     0.256 C 
ATOM      9  O   UNL d   1      24.771 -15.645  -0.304  0.00  0.00    -0.267 OA
ATOM     10  H   UNL d   1      24.393 -16.874  -3.242  0.00  0.00     0.169 HD
BRANCH   8  11
ATOM     11  C   UNL d   1      23.357 -17.352  -0.838  0.00  0.00     0.034 A 
ATOM     12  C   UNL d   1      23.901 -18.554  -0.343  0.00  0.00     0.019 A 
ATOM     13  C   UNL d   1      23.129 -19.692  -0.146  0.00  0.00     0.033 A 
ATOM     14  C   UNL d   1      21.768 -19.542  -0.345  0.00  0.00     0.062 A 
ATOM     15  N   UNL d   1      20.747 -20.422  -0.120  0.00  0.00    -0.349 N 
ATOM     16  C   UNL d   1      21.166 -18.377  -0.810  0.00  0.00     0.085 A 
ATOM     17  C   UNL d   1      19.580 -19.793  -0.437  0.00  0.00     0.208 A 
ATOM     18  H   UNL d   1      20.852 -21.341   0.287  0.00  0.00     0.167 HD
ATOM     19  N   UNL d   1      19.797 -18.575  -0.895  0.00  0.00    -0.242 NA
ATOM     20  C   UNL d   1      21.978 -17.250  -1.104  0.00  0.00     0.051 A 
ENDBRANCH   8  11
ENDBRANCH   4   7
BRANCH   1  21
ATOM     21  N   UNL d   1      28.523 -12.559  -4.754  0.00  0.00    -0.356 N 
ATOM     22  H   UNL d   1      28.644 -11.659  -4.310  0.00  0.00     0.166 HD
BRANCH  21  23
ATOM     23  C   UNL d   1      29.205 -12.775  -5.967  0.00  0.00     0.032 A 
ATOM     24  C   UNL d   1      30.066 -13.864  -6.132  0.00  0.00     0.032 A 
ATOM     25  C   UNL d   1      30.866 -13.969  -7.284  0.00  0.00     0.039 A 
ATOM     26  C   UNL d   1      30.752 -13.032  -8.314  0.00  0.00     0.068 A 
ATOM     27  C   UNL d   1      29.822 -12.009  -8.199  0.00  0.00     0.039 A 
ATOM     28  C   UNL d   1      29.076 -11.878  -7.035  0.00  0.00     0.032 A 
BRANCH  26  29
ATOM     29  O   UNL d   1      31.523 -13.216  -9.429  0.00  0.00    -0.356 OA
ATOM     30  C   UNL d   1      32.257 -12.058  -9.831  0.00  0.00     0.210 C 
ENDBRANCH  26  29
ENDBRANCH  21  23
ENDBRANCH   1  21
TORSDOF 5
ENDMDL
MODEL 4
REMARK VINA RESULT:   -28.378      2.477      3.108
REMARK INTER + INTRA:         -30.530
REMARK INTER:                 -29.870
REMARK INTRA:                  -0.660
REMARK CONF_INDEPENDENT:        1.492
REMARK UNBOUND:                -0.660
REMARK  5 active torsions:
REMARK  status: ('A' for Active; 'I' for Inactive)
REMARK    1  A    between atoms: O_2  and  C_3 
REMARK    2  A    between atoms: C_6  and  N_7 
REMARK    3  A    between atoms: N_7  and  C_8 
REMARK    4  A    between atoms: C_11  and  N_12 
REMARK       I    between atoms: N_12  and  C_13 
REMARK    5  A    between atoms: C_13  and  C_15 
ROOT
ATOM      1  C   UNL d   1      27.532 -13.327  -3.925  0.00  0.00     0.032 A 
ATOM      2  C   UNL d   1      27.338 -13.548  -2.559  0.00  0.00     0.031 A 
ATOM      3  C   UNL d   1      26.482 -14.581  -2.105  0.00  0.00     0.032 A 
ATOM      4  C   UNL d   1      25.741 -15.351  -3.014  0.00  0.00     0.035 A 
ATOM      5  C   UNL d   1      25.963 -15.120  -4.374  0.00  0.00     0.032 A 
ATOM      6  C   UNL d   1      26.841 -14.133  -4.820  0.00  0.00     0.031 A 
ENDROOT
BRANCH   4   7
ATOM      7  N   UNL d   1      24.778 -16.301  -2.544  0.00  0.00    -0.323 N 
ATOM      8  C   UNL d   1      24.329 -16.368  -1.224  0.00  0.00     0.256 C 
ATOM      9  O   UNL d   1      24.676 -15.629  -0.312  0.00  0.00    -0.267 OA
ATOM     10  H   UNL d   1      24.417 -16.965  -3.215  0.00  0.00     0.169 HD
BRANCH   8  11
ATOM     11  C   UNL d   1      23.297 -17.369  -0.835  0.00  0.00     0.034 A 
ATOM     12  C   UNL d   1      23.836 -18.574  -0.343  0.00  0.00     0.019 A 
ATOM     13  C   UNL d   1      23.059 -19.709  -0.147  0.00  0.00     0.033 A 
ATOM     14  C   UNL d   1      21.699 -19.552  -0.347  0.00  0.00     0.062 A 
ATOM     15  N   UNL d   1      20.673 -20.427  -0.124  0.00  0.00    -0.349 N 
ATOM     16  C   UNL d   1      21.101 -18.384  -0.810  0.00  0.00     0.085 A 
ATOM     17  C   UNL d   1      19.510 -19.792  -0.439  0.00  0.00     0.208 A 
ATOM     18  H   UNL d   1      20.773 -21.348   0.281  0.00  0.00     0.167 HD
ATOM     19  N   UNL d   1      19.732 -18.575  -0.895  0.00  0.00    -0.242 NA
ATOM     20  C   UNL d   1      21.919 -17.260  -1.101  0.00  0.00     0.051 A 
ENDBRANCH   8  11
ENDBRANCH   4   7
BRANCH   1  21
ATOM     21  N   UNL d   1      28.347 -12.289  -4.408  0.00  0.00    -0.356 N 
ATOM     22  H   UNL d   1      28.662 -11.621  -3.717  0.00  0.00     0.166 HD
BRANCH  21  23
ATOM     23  C   UNL d   1      28.669 -12.022  -5.753  0.00  0.00     0.032 A 
ATOM     24  C   UNL d   1      27.898 -11.147  -6.524  0.00  0.00     0.032 A 
ATOM     25  C   UNL d   1      28.131 -11.024  -7.905  0.00  0.00     0.039 A 
ATOM     26  C   UNL d   1      29.185 -11.711  -8.510  0.00  0.00     0.068 A 
ATOM     27  C   UNL d   1      30.017 -12.498  -7.728  0.00  0.00     0.039 A 
ATOM     28  C   UNL d   1      29.748 -12.662  -6.375  0.00  0.00     0.032 A 
BRANCH  26  29
ATOM     29  O   UNL d   1      29.389 -11.512  -9.849  0.00  0.00    -0.356 OA
ATOM     30  C   UNL d   1      30.763 -11.410 -10.224  0.00  0.00     0.210 C 
ENDBRANCH  26  29
ENDBRANCH  21  23
ENDBRANCH   1  21
TORSDOF 5
ENDMDL
MODEL 5
REMARK VINA RESULT:   -28.354      2.674      3.060
REMARK INTER + INTRA:         -30.593
REMARK INTER:                 -29.845
REMARK INTRA:                  -0.748
REMARK CONF_INDEPENDENT:        1.492
REMARK UNBOUND:                -0.748
REMARK  5 active torsions:
REMARK  status: ('A' for Active; 'I' for Inactive)
REMARK    1  A    between atoms: O_2  and  C_3 
REMARK    2  A    between atoms: C_6  and  N_7 
REMARK    3  A    between atoms: N_7  and  C_8 
REMARK    4  A    between atoms: C_11  and  N_12 
REMARK       I    between atoms: N_12  and  C_13 
REMARK    5  A    between atoms: C_13  and  C_15 
ROOT
ATOM      1  C   UNL d   1      27.945 -13.829  -4.316  0.00  0.00     0.032 A 
ATOM      2  C   UNL d   1      26.617 -13.802  -4.751  0.00  0.00     0.031 A 
ATOM      3  C   UNL d   1      25.637 -14.623  -4.144  0.00  0.00     0.032 A 
ATOM      4  C   UNL d   1      25.990 -15.550  -3.151  0.00  0.00     0.035 A 
ATOM      5  C   UNL d   1      27.320 -15.549  -2.725  0.00  0.00     0.032 A 
ATOM      6  C   UNL d   1      28.276 -14.707  -3.290  0.00  0.00     0.031 A 
ENDROOT
BRANCH   4   7
ATOM      7  N   UNL d   1      25.019 -16.469  -2.639  0.00  0.00    -0.323 N 
ATOM      8  C   UNL d   1      24.496 -16.411  -1.346  0.00  0.00     0.256 C 
ATOM      9  O   UNL d   1      24.777 -15.575  -0.498  0.00  0.00    -0.267 OA
ATOM     10  H   UNL d   1      24.709 -17.206  -3.257  0.00  0.00     0.169 HD
BRANCH   8  11
ATOM     11  C   UNL d   1      23.462 -17.391  -0.914  0.00  0.00     0.034 A 
ATOM     12  C   UNL d   1      23.998 -18.583  -0.386  0.00  0.00     0.019 A 
ATOM     13  C   UNL d   1      23.217 -19.705  -0.145  0.00  0.00     0.033 A 
ATOM     14  C   UNL d   1      21.856 -19.546  -0.335  0.00  0.00     0.062 A 
ATOM     15  N   UNL d   1      20.826 -20.407  -0.072  0.00  0.00    -0.349 N 
ATOM     16  C   UNL d   1      21.261 -18.390  -0.831  0.00  0.00     0.085 A 
ATOM     17  C   UNL d   1      19.664 -19.775  -0.397  0.00  0.00     0.208 A 
ATOM     18  H   UNL d   1      20.926 -21.314   0.363  0.00  0.00     0.167 HD
ATOM     19  N   UNL d   1      19.889 -18.575  -0.896  0.00  0.00    -0.242 NA
ATOM     20  C   UNL d   1      22.082 -17.282  -1.168  0.00  0.00     0.051 A 
ENDBRANCH   8  11
ENDBRANCH   4   7
BRANCH   1  21
ATOM     21  N   UNL d   1      28.949 -13.052  -4.919  0.00  0.00    -0.356 N 
ATOM     22  H   UNL d   1      29.712 -12.778  -4.315  0.00  0.00     0.166 HD
BRANCH  21  23
ATOM     23  C   UNL d   1      28.943 -12.529  -6.226  0.00  0.00     0.032 A 
ATOM     24  C   UNL d   1      29.149 -11.166  -6.463  0.00  0.00     0.032 A 
ATOM     25  C   UNL d   1      28.971 -10.635  -7.752  0.00  0.00     0.039 A 
ATOM     26  C   UNL d   1      28.666 -11.472  -8.828  0.00  0.00     0.068 A 
ATOM     27  C   UNL d   1      28.566 -12.838  -8.615  0.00  0.00     0.039 A 
ATOM     28  C   UNL d   1      28.686 -13.351  -7.330  0.00  0.00     0.032 A 
BRANCH  26  29
ATOM     29  O   UNL d   1      28.553 -10.900 -10.066  0.00  0.00    -0.356 OA
ATOM     30  C   UNL d   1      27.900  -9.629 -10.067  0.00  0.00     0.210 C 
ENDBRANCH  26  29
ENDBRANCH  21  23
ENDBRANCH   1  21
TORSDOF 5
ENDMDL
MODEL 6
REMARK VINA RESULT:   -28.287      1.050      1.351
REMARK INTER + INTRA:         -30.485
REMARK INTER:                 -29.779
REMARK INTRA:                  -0.706
REMARK CONF_INDEPENDENT:        1.492
REMARK UNBOUND:                -0.706
REMARK  5 active torsions:
REMARK  status: ('A' for Active; 'I' for Inactive)
REMARK    1  A    between atoms: O_2  and  C_3 
REMARK    2  A    between atoms: C_6  and  N_7 
REMARK    3  A    between atoms: N_7  and  C_8 
REMARK    4  A    between atoms: C_11  and  N_12 
REMARK       I    between atoms: N_12  and  C_13 
REMARK    5  A    between atoms: C_13  and  C_15 
ROOT
ATOM      1  C   UNL d   1      26.524 -12.038  -3.684  0.00  0.00     0.032 A 
ATOM      2  C   UNL d   1      26.696 -12.596  -2.414  0.00  0.00     0.031 A 
ATOM      3  C   UNL d   1      25.908 -13.692  -1.989  0.00  0.00     0.032 A 
ATOM      4  C   UNL d   1      24.875 -14.191  -2.797  0.00  0.00     0.035 A 
ATOM      5  C   UNL d   1      24.732 -13.625  -4.067  0.00  0.00     0.032 A 
ATOM      6  C   UNL d   1      25.539 -12.576  -4.503  0.00  0.00     0.031 A 
ENDROOT
BRANCH   4   7
ATOM      7  N   UNL d   1      23.997 -15.209  -2.306  0.00  0.00    -0.323 N 
ATOM      8  C   UNL d   1      24.412 -16.284  -1.520  0.00  0.00     0.256 C 
ATOM      9  O   UNL d   1      25.556 -16.491  -1.137  0.00  0.00    -0.267 OA
ATOM     10  H   UNL d   1      23.021 -15.140  -2.559  0.00  0.00     0.169 HD
BRANCH   8  11
ATOM     11  C   UNL d   1      23.419 -17.277  -1.025  0.00  0.00     0.034 A 
ATOM     12  C   UNL d   1      24.002 -18.423  -0.451  0.00  0.00     0.019 A 
ATOM     13  C   UNL d   1      23.263 -19.558  -0.145  0.00  0.00     0.033 A 
ATOM     14  C   UNL d   1      21.894 -19.454  -0.321  0.00  0.00     0.062 A 
ATOM     15  N   UNL d   1      20.899 -20.335  -0.001  0.00  0.00    -0.349 N 
ATOM     16  C   UNL d   1      21.253 -18.343  -0.861  0.00  0.00     0.085 A 
ATOM     17  C   UNL d   1      19.711 -19.758  -0.337  0.00  0.00     0.208 A 
ATOM     18  H   UNL d   1      21.035 -21.217   0.474  0.00  0.00     0.167 HD
ATOM     19  N   UNL d   1      19.888 -18.577  -0.895  0.00  0.00    -0.242 NA
ATOM     20  C   UNL d   1      22.032 -17.226  -1.263  0.00  0.00     0.051 A 
ENDBRANCH   8  11
ENDBRANCH   4   7
BRANCH   1  21
ATOM     21  N   UNL d   1      27.266 -10.928  -4.123  0.00  0.00    -0.356 N 
ATOM     22  H   UNL d   1      28.247 -11.099  -4.298  0.00  0.00     0.166 HD
BRANCH  21  23
ATOM     23  C   UNL d   1      26.816  -9.599  -4.231  0.00  0.00     0.032 A 
ATOM     24  C   UNL d   1      26.199  -9.134  -5.396  0.00  0.00     0.032 A 
ATOM     25  C   UNL d   1      25.910  -7.766  -5.550  0.00  0.00     0.039 A 
ATOM     26  C   UNL d   1      26.161  -6.867  -4.511  0.00  0.00     0.068 A 
ATOM     27  C   UNL d   1      26.675  -7.343  -3.314  0.00  0.00     0.039 A 
ATOM     28  C   UNL d   1      27.012  -8.685  -3.188  0.00  0.00     0.032 A 
BRANCH  26  29
ATOM     29  O   UNL d   1      25.814  -5.558  -4.705  0.00  0.00    -0.356 OA
ATOM     30  C   UNL d   1      24.665  -5.141  -3.967  0.00  0.00     0.210 C 
ENDBRANCH  26  29
ENDBRANCH  21  23
ENDBRANCH   1  21
TORSDOF 5
ENDMDL
MODEL 7
REMARK VINA RESULT:   -28.169      1.142      1.727
REMARK INTER + INTRA:         -30.369
REMARK INTER:                 -29.661
REMARK INTRA:                  -0.708
REMARK CONF_INDEPENDENT:        1.492
REMARK UNBOUND:                -0.708
REMARK  5 active torsions:
REMARK  status: ('A' for Active; 'I' for Inactive)
REMARK    1  A    between atoms: O_2  and  C_3 
REMARK    2  A    between atoms: C_6  and  N_7 
REMARK    3  A    between atoms: N_7  and  C_8 
REMARK    4  A    between atoms: C_11  and  N_12 
REMARK       I    between atoms: N_12  and  C_13 
REMARK    5  A    between atoms: C_13  and  C_15 
ROOT
ATOM      1  C   UNL d   1      26.480 -11.967  -3.667  0.00  0.00     0.032 A 
ATOM      2  C   UNL d   1      26.602 -12.473  -2.370  0.00  0.00     0.031 A 
ATOM      3  C   UNL d   1      25.829 -13.581  -1.947  0.00  0.00     0.032 A 
ATOM      4  C   UNL d   1      24.859 -14.144  -2.789  0.00  0.00     0.035 A 
ATOM      5  C   UNL d   1      24.765 -13.629  -4.085  0.00  0.00     0.032 A 
ATOM      6  C   UNL d   1      25.560 -12.568  -4.516  0.00  0.00     0.031 A 
ENDROOT
BRANCH   4   7
ATOM      7  N   UNL d   1      23.989 -15.175  -2.308  0.00  0.00    -0.323 N 
ATOM      8  C   UNL d   1      24.405 -16.225  -1.489  0.00  0.00     0.256 C 
ATOM      9  O   UNL d   1      25.541 -16.396  -1.065  0.00  0.00    -0.267 OA
ATOM     10  H   UNL d   1      23.021 -15.133  -2.593  0.00  0.00     0.169 HD
BRANCH   8  11
ATOM     11  C   UNL d   1      23.420 -17.232  -1.007  0.00  0.00     0.034 A 
ATOM     12  C   UNL d   1      24.014 -18.376  -0.436  0.00  0.00     0.019 A 
ATOM     13  C   UNL d   1      23.286 -19.522  -0.143  0.00  0.00     0.033 A 
ATOM     14  C   UNL d   1      21.918 -19.432  -0.328  0.00  0.00     0.062 A 
ATOM     15  N   UNL d   1      20.931 -20.327  -0.020  0.00  0.00    -0.349 N 
ATOM     16  C   UNL d   1      21.267 -18.326  -0.865  0.00  0.00     0.085 A 
ATOM     17  C   UNL d   1      19.738 -19.763  -0.361  0.00  0.00     0.208 A 
ATOM     18  H   UNL d   1      21.074 -21.211   0.450  0.00  0.00     0.167 HD
ATOM     19  N   UNL d   1      19.905 -18.575  -0.910  0.00  0.00    -0.242 NA
ATOM     20  C   UNL d   1      22.035 -17.197  -1.254  0.00  0.00     0.051 A 
ENDBRANCH   8  11
ENDBRANCH   4   7
BRANCH   1  21
ATOM     21  N   UNL d   1      27.207 -10.847  -4.108  0.00  0.00    -0.356 N 
ATOM     22  H   UNL d   1      27.660 -10.307  -3.383  0.00  0.00     0.166 HD
BRANCH  21  23
ATOM     23  C   UNL d   1      27.272 -10.345  -5.421  0.00  0.00     0.032 A 
ATOM     24  C   UNL d   1      28.386 -10.579  -6.234  0.00  0.00     0.032 A 
ATOM     25  C   UNL d   1      28.508  -9.930  -7.475  0.00  0.00     0.039 A 
ATOM     26  C   UNL d   1      27.484  -9.107  -7.949  0.00  0.00     0.068 A 
ATOM     27  C   UNL d   1      26.332  -8.957  -7.192  0.00  0.00     0.039 A 
ATOM     28  C   UNL d   1      26.240  -9.554  -5.941  0.00  0.00     0.032 A 
BRANCH  26  29
ATOM     29  O   UNL d   1      27.643  -8.542  -9.185  0.00  0.00    -0.356 OA
ATOM     30  C   UNL d   1      26.880  -9.167 -10.218  0.00  0.00     0.210 C 
ENDBRANCH  26  29
ENDBRANCH  21  23
ENDBRANCH   1  21
TORSDOF 5
ENDMDL
MODEL 8
REMARK VINA RESULT:   -27.766      3.764      4.266
REMARK INTER + INTRA:         -29.896
REMARK INTER:                 -29.257
REMARK INTRA:                  -0.639
REMARK CONF_INDEPENDENT:        1.492
REMARK UNBOUND:                -0.639
REMARK  5 active torsions:
REMARK  status: ('A' for Active; 'I' for Inactive)
REMARK    1  A    between atoms: O_2  and  C_3 
REMARK    2  A    between atoms: C_6  and  N_7 
REMARK    3  A    between atoms: N_7  and  C_8 
REMARK    4  A    between atoms: C_11  and  N_12 
REMARK       I    between atoms: N_12  and  C_13 
REMARK    5  A    between atoms: C_13  and  C_15 
ROOT
ATOM      1  C   UNL d   1      28.778 -14.094  -2.730  0.00  0.00     0.032 A 
ATOM      2  C   UNL d   1      27.446 -13.671  -2.705  0.00  0.00     0.031 A 
ATOM      3  C   UNL d   1      26.434 -14.491  -2.150  0.00  0.00     0.032 A 
ATOM      4  C   UNL d   1      26.728 -15.784  -1.691  0.00  0.00     0.035 A 
ATOM      5  C   UNL d   1      28.068 -16.179  -1.715  0.00  0.00     0.032 A 
ATOM      6  C   UNL d   1      29.072 -15.353  -2.219  0.00  0.00     0.031 A 
ENDROOT
BRANCH   4   7
ATOM      7  N   UNL d   1      25.678 -16.656  -1.257  0.00  0.00    -0.323 N 
ATOM      8  C   UNL d   1      24.320 -16.368  -1.393  0.00  0.00     0.256 C 
ATOM      9  O   UNL d   1      23.849 -15.361  -1.906  0.00  0.00    -0.267 OA
ATOM     10  H   UNL d   1      25.951 -17.525  -0.818  0.00  0.00     0.169 HD
BRANCH   8  11
ATOM     11  C   UNL d   1      23.298 -17.354  -0.944  0.00  0.00     0.034 A 
ATOM     12  C   UNL d   1      23.849 -18.533  -0.404  0.00  0.00     0.019 A 
ATOM     13  C   UNL d   1      23.080 -19.660  -0.145  0.00  0.00     0.033 A 
ATOM     14  C   UNL d   1      21.717 -19.518  -0.331  0.00  0.00     0.062 A 
ATOM     15  N   UNL d   1      20.698 -20.386  -0.053  0.00  0.00    -0.349 N 
ATOM     16  C   UNL d   1      21.108 -18.375  -0.839  0.00  0.00     0.085 A 
ATOM     17  C   UNL d   1      19.528 -19.771  -0.380  0.00  0.00     0.208 A 
ATOM     18  H   UNL d   1      20.809 -21.287   0.393  0.00  0.00     0.167 HD
ATOM     19  N   UNL d   1      19.738 -18.575  -0.895  0.00  0.00    -0.242 NA
ATOM     20  C   UNL d   1      21.916 -17.262  -1.193  0.00  0.00     0.051 A 
ENDBRANCH   8  11
ENDBRANCH   4   7
BRANCH   1  21
ATOM     21  N   UNL d   1      29.801 -13.320  -3.304  0.00  0.00    -0.356 N 
ATOM     22  H   UNL d   1      30.275 -12.686  -2.676  0.00  0.00     0.166 HD
BRANCH  21  23
ATOM     23  C   UNL d   1      30.149 -13.255  -4.667  0.00  0.00     0.032 A 
ATOM     24  C   UNL d   1      30.973 -12.237  -5.158  0.00  0.00     0.032 A 
ATOM     25  C   UNL d   1      31.171 -12.089  -6.542  0.00  0.00     0.039 A 
ATOM     26  C   UNL d   1      30.614 -13.002  -7.439  0.00  0.00     0.068 A 
ATOM     27  C   UNL d   1      29.883 -14.074  -6.948  0.00  0.00     0.039 A 
ATOM     28  C   UNL d   1      29.643 -14.183  -5.585  0.00  0.00     0.032 A 
BRANCH  26  29
ATOM     29  O   UNL d   1      30.883 -12.831  -8.770  0.00  0.00    -0.356 OA
ATOM     30  C   UNL d   1      32.257 -12.571  -9.062  0.00  0.00     0.210 C 
ENDBRANCH  26  29
ENDBRANCH  21  23
ENDBRANCH   1  21
TORSDOF 5
ENDMDL
MODEL 9
REMARK VINA RESULT:   -27.686      4.586      6.145
REMARK INTER + INTRA:         -29.896
REMARK INTER:                 -29.178
REMARK INTRA:                  -0.718
REMARK CONF_INDEPENDENT:        1.492
REMARK UNBOUND:                -0.718
REMARK  5 active torsions:
REMARK  status: ('A' for Active; 'I' for Inactive)
REMARK    1  A    between atoms: O_2  and  C_3 
REMARK    2  A    between atoms: C_6  and  N_7 
REMARK    3  A    between atoms: N_7  and  C_8 
REMARK    4  A    between atoms: C_11  and  N_12 
REMARK       I    between atoms: N_12  and  C_13 
REMARK    5  A    between atoms: C_13  and  C_15 
ROOT
ATOM      1  C   UNL d   1      28.186 -15.045  -4.246  0.00  0.00     0.032 A 
ATOM      2  C   UNL d   1      26.950 -14.908  -4.884  0.00  0.00     0.031 A 
ATOM      3  C   UNL d   1      25.751 -15.281  -4.232  0.00  0.00     0.032 A 
ATOM      4  C   UNL d   1      25.778 -15.879  -2.963  0.00  0.00     0.035 A 
ATOM      5  C   UNL d   1      27.024 -15.994  -2.341  0.00  0.00     0.032 A 
ATOM      6  C   UNL d   1      28.201 -15.584  -2.965  0.00  0.00     0.031 A 
ENDROOT
BRANCH   4   7
ATOM      7  N   UNL d   1      24.574 -16.376  -2.369  0.00  0.00    -0.323 N 
ATOM      8  C   UNL d   1      24.530 -17.450  -1.479  0.00  0.00     0.256 C 
ATOM      9  O   UNL d   1      25.494 -18.091  -1.081  0.00  0.00    -0.267 OA
ATOM     10  H   UNL d   1      23.709 -15.919  -2.624  0.00  0.00     0.169 HD
BRANCH   8  11
ATOM     11  C   UNL d   1      23.233 -17.874  -0.883  0.00  0.00     0.034 A 
ATOM     12  C   UNL d   1      23.263 -17.977   0.522  0.00  0.00     0.019 A 
ATOM     13  C   UNL d   1      22.239 -18.575   1.245  0.00  0.00     0.033 A 
ATOM     14  C   UNL d   1      21.125 -18.953   0.515  0.00  0.00     0.062 A 
ATOM     15  N   UNL d   1      19.924 -19.447   0.941  0.00  0.00    -0.349 N 
ATOM     16  C   UNL d   1      21.022 -18.857  -0.869  0.00  0.00     0.085 A 
ATOM     17  C   UNL d   1      19.138 -19.629  -0.156  0.00  0.00     0.208 A 
ATOM     18  H   UNL d   1      19.657 -19.570   1.909  0.00  0.00     0.167 HD
ATOM     19  N   UNL d   1      19.780 -19.324  -1.267  0.00  0.00    -0.242 NA
ATOM     20  C   UNL d   1      22.117 -18.335  -1.607  0.00  0.00     0.051 A 
ENDBRANCH   8  11
ENDBRANCH   4   7
BRANCH   1  21
ATOM     21  N   UNL d   1      29.398 -14.717  -4.877  0.00  0.00    -0.356 N 
ATOM     22  H   UNL d   1      29.649 -13.738  -4.861  0.00  0.00     0.166 HD
BRANCH  21  23
ATOM     23  C   UNL d   1      30.227 -15.581  -5.618  0.00  0.00     0.032 A 
ATOM     24  C   UNL d   1      31.310 -15.092  -6.355  0.00  0.00     0.032 A 
ATOM     25  C   UNL d   1      32.021 -15.941  -7.222  0.00  0.00     0.039 A 
ATOM     26  C   UNL d   1      31.707 -17.300  -7.298  0.00  0.00     0.068 A 
ATOM     27  C   UNL d   1      30.702 -17.809  -6.489  0.00  0.00     0.039 A 
ATOM     28  C   UNL d   1      29.965 -16.955  -5.678  0.00  0.00     0.032 A 
BRANCH  26  29
ATOM     29  O   UNL d   1      32.466 -18.083  -8.124  0.00  0.00    -0.356 OA
ATOM     30  C   UNL d   1      31.741 -19.132  -8.767  0.00  0.00     0.210 C 
ENDBRANCH  26  29
ENDBRANCH  21  23
ENDBRANCH   1  21
TORSDOF 5
ENDMDL
