MODEL 1
REMARK VINA RESULT:    -8.965      0.000      0.000
REMARK INTER + INTRA:         -13.452
REMARK INTER:                 -11.948
REMARK INTRA:                  -1.504
REMARK CONF_INDEPENDENT:        2.983
REMARK UNBOUND:                -1.504
REMARK  10 active torsions:
REMARK  status: ('A' for Active; 'I' for Inactive)
REMARK    1  A    between atoms: C_2  and  C_4 
REMARK    2  A    between atoms: C_9  and  O_10 
REMARK    3  A    between atoms: O_10  and  C_11 
REMARK    4  A    between atoms: C_11  and  C_12 
REMARK       I    between atoms: C_12  and  N_14 
REMARK    5  A    between atoms: N_14  and  N_15 
REMARK    6  A    between atoms: N_15  and  C_16 
REMARK    7  A    between atoms: C_16  and  N_18 
REMARK       I    between atoms: N_18  and  C_19 
REMARK    8  A    between atoms: C_19  and  C_21 
REMARK    9  A    between atoms: C_22  and  C_23 
REMARK   10  A    between atoms: C_26  and  N_27 
ROOT
ATOM      1  N   UNL d   1      30.315 -14.804   2.958  0.00  0.00    -0.273 N 
ATOM      2  H   UNL d   1      30.959 -15.575   2.797  0.00  0.00     0.189 HD
ENDROOT
BRANCH   1   3
ATOM      3  N   UNL d   1      30.423 -14.259   4.292  0.00  0.00    -0.266 N 
ATOM      4  C   UNL d   1      29.284 -14.315   5.125  0.00  0.00     0.260 C 
ATOM      5  O   UNL d   1      28.232 -14.800   4.730  0.00  0.00    -0.269 OA
ATOM      6  H   UNL d   1      31.363 -13.972   4.584  0.00  0.00     0.190 HD
BRANCH   4   7
ATOM      7  C   UNL d   1      29.514 -13.835   6.591  0.00  0.00     0.280 C 
BRANCH   7   8
ATOM      8  O   UNL d   1      30.027 -14.466   7.734  0.00  0.00    -0.341 OA
BRANCH   8   9
ATOM      9  C   UNL d   1      29.637 -14.088   9.015  0.00  0.00     0.076 C 
ATOM     10  C   UNL d   1      28.565 -13.168   8.898  0.00  0.00     0.037 C 
ATOM     11  C   UNL d   1      27.988 -12.520   9.994  0.00  0.00     0.003 C 
ATOM     12  C   UNL d   1      28.487 -12.754  11.258  0.00  0.00     0.001 C 
ATOM     13  C   UNL d   1      29.554 -13.637  11.407  0.00  0.00     0.010 C 
ATOM     14  C   UNL d   1      30.096 -14.408  10.327  0.00  0.00    -0.021 C 
BRANCH  14  15
ATOM     15  C   UNL d   1      31.103 -15.486  10.783  0.00  0.00     0.013 C 
ATOM     16  C   UNL d   1      32.489 -14.967  11.194  0.00  0.00     0.015 C 
ATOM     17  C   UNL d   1      30.729 -16.242  12.038  0.00  0.00     0.015 C 
ENDBRANCH  14  15
ENDBRANCH   8   9
ENDBRANCH   7   8
ENDBRANCH   4   7
ENDBRANCH   1   3
BRANCH   1  18
ATOM     18  C   UNL d   1      29.376 -14.315   2.033  0.00  0.00     0.193 C 
ATOM     19  S   UNL d   1      29.589 -12.795   1.340  0.00  0.00    -0.039 SA
BRANCH  18  20
ATOM     20  N   UNL d   1      28.295 -15.203   1.775  0.00  0.00    -0.299 N 
ATOM     21  C   UNL d   1      27.818 -15.593   0.505  0.00  0.00     0.247 C 
ATOM     22  O   UNL d   1      28.265 -15.193  -0.557  0.00  0.00    -0.268 OA
ATOM     23  H   UNL d   1      27.825 -15.585   2.581  0.00  0.00     0.171 HD
BRANCH  21  24
ATOM     24  C   UNL d   1      26.659 -16.560   0.455  0.00  0.00     0.075 C 
ATOM     25  C   UNL d   1      25.696 -16.366  -0.480  0.00  0.00     0.017 C 
BRANCH  25  26
ATOM     26  C   UNL d   1      24.437 -17.134  -0.607  0.00  0.00    -0.036 A 
ATOM     27  C   UNL d   1      23.206 -16.511  -0.891  0.00  0.00     0.014 A 
ATOM     28  C   UNL d   1      22.004 -17.244  -0.880  0.00  0.00     0.037 A 
ATOM     29  C   UNL d   1      22.040 -18.623  -0.639  0.00  0.00     0.102 A 
ATOM     30  C   UNL d   1      23.253 -19.250  -0.337  0.00  0.00     0.037 A 
ATOM     31  C   UNL d   1      24.434 -18.502  -0.311  0.00  0.00     0.014 A 
BRANCH  29  32
ATOM     32  N   UNL d   1      20.818 -19.432  -0.756  0.00  0.00    -0.116 N 
ATOM     33  O   UNL d   1      20.421 -19.722  -1.891  0.00  0.00    -0.532 OA
ATOM     34  O   UNL d   1      20.270 -19.799   0.296  0.00  0.00    -0.532 OA
ENDBRANCH  29  32
ENDBRANCH  25  26
ENDBRANCH  21  24
ENDBRANCH  18  20
ENDBRANCH   1  18
TORSDOF 10
ENDMDL
MODEL 2
REMARK VINA RESULT:    -8.758      1.610      2.283
REMARK INTER + INTRA:         -13.596
REMARK INTER:                 -11.741
REMARK INTRA:                  -1.854
REMARK CONF_INDEPENDENT:        2.983
REMARK UNBOUND:                -1.854
REMARK  10 active torsions:
REMARK  status: ('A' for Active; 'I' for Inactive)
REMARK    1  A    between atoms: C_2  and  C_4 
REMARK    2  A    between atoms: C_9  and  O_10 
REMARK    3  A    between atoms: O_10  and  C_11 
REMARK    4  A    between atoms: C_11  and  C_12 
REMARK       I    between atoms: C_12  and  N_14 
REMARK    5  A    between atoms: N_14  and  N_15 
REMARK    6  A    between atoms: N_15  and  C_16 
REMARK    7  A    between atoms: C_16  and  N_18 
REMARK       I    between atoms: N_18  and  C_19 
REMARK    8  A    between atoms: C_19  and  C_21 
REMARK    9  A    between atoms: C_22  and  C_23 
REMARK   10  A    between atoms: C_26  and  N_27 
ROOT
ATOM      1  N   UNL d   1      31.000 -14.088   2.362  0.00  0.00    -0.273 N 
ATOM      2  H   UNL d   1      31.370 -13.157   2.191  0.00  0.00     0.189 HD
ENDROOT
BRANCH   1   3
ATOM      3  N   UNL d   1      30.689 -14.318   3.755  0.00  0.00    -0.266 N 
ATOM      4  C   UNL d   1      29.330 -14.382   4.129  0.00  0.00     0.260 C 
ATOM      5  O   UNL d   1      28.437 -14.237   3.305  0.00  0.00    -0.269 OA
ATOM      6  H   UNL d   1      31.487 -14.538   4.360  0.00  0.00     0.190 HD
BRANCH   4   7
ATOM      7  C   UNL d   1      29.073 -14.769   5.619  0.00  0.00     0.280 C 
BRANCH   7   8
ATOM      8  O   UNL d   1      28.181 -14.290   6.590  0.00  0.00    -0.341 OA
BRANCH   8   9
ATOM      9  C   UNL d   1      28.465 -13.158   7.348  0.00  0.00     0.076 C 
ATOM     10  C   UNL d   1      28.720 -12.083   6.459  0.00  0.00     0.037 C 
ATOM     11  C   UNL d   1      29.123 -10.814   6.886  0.00  0.00     0.003 C 
ATOM     12  C   UNL d   1      29.313 -10.582   8.232  0.00  0.00     0.001 C 
ATOM     13  C   UNL d   1      29.091 -11.623   9.132  0.00  0.00     0.010 C 
ATOM     14  C   UNL d   1      28.566 -12.899   8.747  0.00  0.00    -0.021 C 
BRANCH  14  15
ATOM     15  C   UNL d   1      28.182 -13.795   9.944  0.00  0.00     0.013 C 
ATOM     16  C   UNL d   1      29.240 -14.825  10.368  0.00  0.00     0.015 C 
ATOM     17  C   UNL d   1      27.980 -13.078  11.260  0.00  0.00     0.015 C 
ENDBRANCH  14  15
ENDBRANCH   8   9
ENDBRANCH   7   8
ENDBRANCH   4   7
ENDBRANCH   1   3
BRANCH   1  18
ATOM     18  C   UNL d   1      30.830 -15.092   1.392  0.00  0.00     0.193 C 
ATOM     19  S   UNL d   1      32.162 -15.963   0.840  0.00  0.00    -0.039 SA
BRANCH  18  20
ATOM     20  N   UNL d   1      29.485 -15.267   0.962  0.00  0.00    -0.299 N 
ATOM     21  C   UNL d   1      28.986 -15.037  -0.338  0.00  0.00     0.247 C 
ATOM     22  O   UNL d   1      29.652 -14.625  -1.274  0.00  0.00    -0.268 OA
ATOM     23  H   UNL d   1      28.829 -15.584   1.658  0.00  0.00     0.171 HD
BRANCH  21  24
ATOM     24  C   UNL d   1      27.519 -15.297  -0.585  0.00  0.00     0.075 C 
ATOM     25  C   UNL d   1      26.986 -16.462  -0.138  0.00  0.00     0.017 C 
BRANCH  25  26
ATOM     26  C   UNL d   1      25.608 -16.941  -0.385  0.00  0.00    -0.036 A 
ATOM     27  C   UNL d   1      24.575 -16.075  -0.792  0.00  0.00     0.014 A 
ATOM     28  C   UNL d   1      23.246 -16.529  -0.895  0.00  0.00     0.037 A 
ATOM     29  C   UNL d   1      22.958 -17.877  -0.646  0.00  0.00     0.102 A 
ATOM     30  C   UNL d   1      23.971 -18.743  -0.223  0.00  0.00     0.037 A 
ATOM     31  C   UNL d   1      25.279 -18.268  -0.085  0.00  0.00     0.014 A 
BRANCH  29  32
ATOM     32  N   UNL d   1      21.606 -18.405  -0.880  0.00  0.00    -0.116 N 
ATOM     33  O   UNL d   1      21.476 -19.627  -1.020  0.00  0.00    -0.532 OA
ATOM     34  O   UNL d   1      20.668 -17.590  -0.895  0.00  0.00    -0.532 OA
ENDBRANCH  29  32
ENDBRANCH  25  26
ENDBRANCH  21  24
ENDBRANCH  18  20
ENDBRANCH   1  18
TORSDOF 10
ENDMDL
MODEL 3
REMARK VINA RESULT:    -8.715      1.155      2.196
REMARK INTER + INTRA:         -13.384
REMARK INTER:                 -11.698
REMARK INTRA:                  -1.686
REMARK CONF_INDEPENDENT:        2.983
REMARK UNBOUND:                -1.686
REMARK  10 active torsions:
REMARK  status: ('A' for Active; 'I' for Inactive)
REMARK    1  A    between atoms: C_2  and  C_4 
REMARK    2  A    between atoms: C_9  and  O_10 
REMARK    3  A    between atoms: O_10  and  C_11 
REMARK    4  A    between atoms: C_11  and  C_12 
REMARK       I    between atoms: C_12  and  N_14 
REMARK    5  A    between atoms: N_14  and  N_15 
REMARK    6  A    between atoms: N_15  and  C_16 
REMARK    7  A    between atoms: C_16  and  N_18 
REMARK       I    between atoms: N_18  and  C_19 
REMARK    8  A    between atoms: C_19  and  C_21 
REMARK    9  A    between atoms: C_22  and  C_23 
REMARK   10  A    between atoms: C_26  and  N_27 
ROOT
ATOM      1  N   UNL d   1      30.330 -14.789   2.937  0.00  0.00    -0.273 N 
ATOM      2  H   UNL d   1      31.021 -15.529   2.838  0.00  0.00     0.189 HD
ENDROOT
BRANCH   1   3
ATOM      3  N   UNL d   1      30.337 -14.194   4.255  0.00  0.00    -0.266 N 
ATOM      4  C   UNL d   1      29.163 -14.295   5.033  0.00  0.00     0.260 C 
ATOM      5  O   UNL d   1      28.165 -14.859   4.606  0.00  0.00    -0.269 OA
ATOM      6  H   UNL d   1      31.241 -13.840   4.581  0.00  0.00     0.190 HD
BRANCH   4   7
ATOM      7  C   UNL d   1      29.289 -13.754   6.491  0.00  0.00     0.280 C 
BRANCH   7   8
ATOM      8  O   UNL d   1      29.704 -14.340   7.696  0.00  0.00    -0.341 OA
BRANCH   8   9
ATOM      9  C   UNL d   1      29.266 -13.866   8.928  0.00  0.00     0.076 C 
ATOM     10  C   UNL d   1      28.750 -14.961   9.665  0.00  0.00     0.037 C 
ATOM     11  C   UNL d   1      28.145 -14.825  10.918  0.00  0.00     0.003 C 
ATOM     12  C   UNL d   1      28.012 -13.570  11.473  0.00  0.00     0.001 C 
ATOM     13  C   UNL d   1      28.491 -12.468  10.766  0.00  0.00     0.010 C 
ATOM     14  C   UNL d   1      29.219 -12.576   9.536  0.00  0.00    -0.021 C 
BRANCH  14  15
ATOM     15  C   UNL d   1      29.850 -11.245   9.074  0.00  0.00     0.013 C 
ATOM     16  C   UNL d   1      31.216 -11.364   8.382  0.00  0.00     0.015 C 
ATOM     17  C   UNL d   1      29.085 -10.495   8.006  0.00  0.00     0.015 C 
ENDBRANCH  14  15
ENDBRANCH   8   9
ENDBRANCH   7   8
ENDBRANCH   4   7
ENDBRANCH   1   3
BRANCH   1  18
ATOM     18  C   UNL d   1      29.419 -14.383   1.948  0.00  0.00     0.193 C 
ATOM     19  S   UNL d   1      29.642 -12.918   1.147  0.00  0.00    -0.039 SA
BRANCH  18  20
ATOM     20  N   UNL d   1      28.354 -15.299   1.723  0.00  0.00    -0.299 N 
ATOM     21  C   UNL d   1      27.820 -15.670   0.471  0.00  0.00     0.247 C 
ATOM     22  O   UNL d   1      28.193 -15.224  -0.602  0.00  0.00    -0.268 OA
ATOM     23  H   UNL d   1      27.943 -15.720   2.541  0.00  0.00     0.171 HD
BRANCH  21  24
ATOM     24  C   UNL d   1      26.692 -16.674   0.455  0.00  0.00     0.075 C 
ATOM     25  C   UNL d   1      25.583 -16.389  -0.272  0.00  0.00     0.017 C 
BRANCH  25  26
ATOM     26  C   UNL d   1      24.339 -17.189  -0.315  0.00  0.00    -0.036 A 
ATOM     27  C   UNL d   1      24.329 -18.573  -0.050  0.00  0.00     0.014 A 
ATOM     28  C   UNL d   1      23.158 -19.335  -0.224  0.00  0.00     0.037 A 
ATOM     29  C   UNL d   1      21.972 -18.697  -0.610  0.00  0.00     0.102 A 
ATOM     30  C   UNL d   1      21.973 -17.329  -0.895  0.00  0.00     0.037 A 
ATOM     31  C   UNL d   1      23.154 -16.591  -0.758  0.00  0.00     0.014 A 
BRANCH  29  32
ATOM     32  N   UNL d   1      20.708 -19.447  -0.666  0.00  0.00    -0.116 N 
ATOM     33  O   UNL d   1      20.203 -19.811   0.403  0.00  0.00    -0.532 OA
ATOM     34  O   UNL d   1      20.208 -19.646  -1.785  0.00  0.00    -0.532 OA
ENDBRANCH  29  32
ENDBRANCH  25  26
ENDBRANCH  21  24
ENDBRANCH  18  20
ENDBRANCH   1  18
TORSDOF 10
ENDMDL
MODEL 4
REMARK VINA RESULT:    -8.327      3.848      5.642
REMARK INTER + INTRA:         -13.641
REMARK INTER:                 -11.310
REMARK INTRA:                  -2.332
REMARK CONF_INDEPENDENT:        2.983
REMARK UNBOUND:                -2.332
REMARK  10 active torsions:
REMARK  status: ('A' for Active; 'I' for Inactive)
REMARK    1  A    between atoms: C_2  and  C_4 
REMARK    2  A    between atoms: C_9  and  O_10 
REMARK    3  A    between atoms: O_10  and  C_11 
REMARK    4  A    between atoms: C_11  and  C_12 
REMARK       I    between atoms: C_12  and  N_14 
REMARK    5  A    between atoms: N_14  and  N_15 
REMARK    6  A    between atoms: N_15  and  C_16 
REMARK    7  A    between atoms: C_16  and  N_18 
REMARK       I    between atoms: N_18  and  C_19 
REMARK    8  A    between atoms: C_19  and  C_21 
REMARK    9  A    between atoms: C_22  and  C_23 
REMARK   10  A    between atoms: C_26  and  N_27 
ROOT
ATOM      1  N   UNL d   1      25.725 -13.970  -1.894  0.00  0.00    -0.273 N 
ATOM      2  H   UNL d   1      25.564 -13.013  -2.198  0.00  0.00     0.189 HD
ENDROOT
BRANCH   1   3
ATOM      3  N   UNL d   1      26.391 -14.043  -0.613  0.00  0.00    -0.266 N 
ATOM      4  C   UNL d   1      27.070 -12.894  -0.153  0.00  0.00     0.260 C 
ATOM      5  O   UNL d   1      27.107 -11.869  -0.820  0.00  0.00    -0.269 OA
ATOM      6  H   UNL d   1      26.222 -14.895  -0.069  0.00  0.00     0.190 HD
BRANCH   4   7
ATOM      7  C   UNL d   1      27.645 -13.002   1.293  0.00  0.00     0.280 C 
BRANCH   7   8
ATOM      8  O   UNL d   1      27.287 -13.772   2.409  0.00  0.00    -0.341 OA
BRANCH   8   9
ATOM      9  C   UNL d   1      27.730 -13.455   3.689  0.00  0.00     0.076 C 
ATOM     10  C   UNL d   1      27.956 -14.665   4.392  0.00  0.00     0.037 C 
ATOM     11  C   UNL d   1      28.326 -14.711   5.739  0.00  0.00     0.003 C 
ATOM     12  C   UNL d   1      28.460 -13.535   6.445  0.00  0.00     0.001 C 
ATOM     13  C   UNL d   1      28.225 -12.327   5.790  0.00  0.00     0.010 C 
ATOM     14  C   UNL d   1      27.959 -12.231   4.386  0.00  0.00    -0.021 C 
BRANCH  14  15
ATOM     15  C   UNL d   1      27.974 -10.782   3.852  0.00  0.00     0.013 C 
ATOM     16  C   UNL d   1      26.649 -10.279   3.262  0.00  0.00     0.015 C 
ATOM     17  C   UNL d   1      28.220  -9.707   4.887  0.00  0.00     0.015 C 
ENDBRANCH  14  15
ENDBRANCH   8   9
ENDBRANCH   7   8
ENDBRANCH   4   7
ENDBRANCH   1   3
BRANCH   1  18
ATOM     18  C   UNL d   1      25.395 -15.126  -2.622  0.00  0.00     0.193 C 
ATOM     19  S   UNL d   1      25.978 -15.331  -4.189  0.00  0.00    -0.039 SA
BRANCH  18  20
ATOM     20  N   UNL d   1      24.562 -16.040  -1.919  0.00  0.00    -0.299 N 
ATOM     21  C   UNL d   1      24.911 -16.773  -0.765  0.00  0.00     0.247 C 
ATOM     22  O   UNL d   1      26.004 -16.737  -0.224  0.00  0.00    -0.268 OA
ATOM     23  H   UNL d   1      23.633 -16.175  -2.286  0.00  0.00     0.171 HD
BRANCH  21  24
ATOM     24  C   UNL d   1      23.866 -17.686  -0.167  0.00  0.00     0.075 C 
ATOM     25  C   UNL d   1      22.739 -17.931  -0.879  0.00  0.00     0.017 C 
BRANCH  25  26
ATOM     26  C   UNL d   1      21.562 -18.698  -0.413  0.00  0.00    -0.036 A 
ATOM     27  C   UNL d   1      20.521 -19.074  -1.283  0.00  0.00     0.014 A 
ATOM     28  C   UNL d   1      19.353 -19.689  -0.792  0.00  0.00     0.037 A 
ATOM     29  C   UNL d   1      19.252 -19.984   0.573  0.00  0.00     0.102 A 
ATOM     30  C   UNL d   1      20.270 -19.600   1.450  0.00  0.00     0.037 A 
ATOM     31  C   UNL d   1      21.406 -18.951   0.955  0.00  0.00     0.014 A 
BRANCH  29  32
ATOM     32  N   UNL d   1      18.105 -20.748   1.087  0.00  0.00    -0.116 N 
ATOM     33  O   UNL d   1      17.684 -20.472   2.216  0.00  0.00    -0.532 OA
ATOM     34  O   UNL d   1      17.609 -21.609   0.341  0.00  0.00    -0.532 OA
ENDBRANCH  29  32
ENDBRANCH  25  26
ENDBRANCH  21  24
ENDBRANCH  18  20
ENDBRANCH   1  18
TORSDOF 10
ENDMDL
MODEL 5
REMARK VINA RESULT:    -8.316      6.757      9.715
REMARK INTER + INTRA:         -14.342
REMARK INTER:                 -11.299
REMARK INTRA:                  -3.043
REMARK CONF_INDEPENDENT:        2.983
REMARK UNBOUND:                -3.043
REMARK  10 active torsions:
REMARK  status: ('A' for Active; 'I' for Inactive)
REMARK    1  A    between atoms: C_2  and  C_4 
REMARK    2  A    between atoms: C_9  and  O_10 
REMARK    3  A    between atoms: O_10  and  C_11 
REMARK    4  A    between atoms: C_11  and  C_12 
REMARK       I    between atoms: C_12  and  N_14 
REMARK    5  A    between atoms: N_14  and  N_15 
REMARK    6  A    between atoms: N_15  and  C_16 
REMARK    7  A    between atoms: C_16  and  N_18 
REMARK       I    between atoms: N_18  and  C_19 
REMARK    8  A    between atoms: C_19  and  C_21 
REMARK    9  A    between atoms: C_22  and  C_23 
REMARK   10  A    between atoms: C_26  and  N_27 
ROOT
ATOM      1  N   UNL d   1      31.003 -16.316  -1.623  0.00  0.00    -0.273 N 
ATOM      2  H   UNL d   1      31.930 -16.531  -1.984  0.00  0.00     0.189 HD
ENDROOT
BRANCH   1   3
ATOM      3  N   UNL d   1      30.127 -15.766  -2.634  0.00  0.00    -0.266 N 
ATOM      4  C   UNL d   1      30.372 -16.110  -3.981  0.00  0.00     0.260 C 
ATOM      5  O   UNL d   1      31.303 -16.841  -4.290  0.00  0.00    -0.269 OA
ATOM      6  H   UNL d   1      29.309 -15.255  -2.286  0.00  0.00     0.190 HD
BRANCH   4   7
ATOM      7  C   UNL d   1      29.307 -15.594  -4.998  0.00  0.00     0.280 C 
BRANCH   7   8
ATOM      8  O   UNL d   1      27.925 -15.800  -5.121  0.00  0.00    -0.341 OA
BRANCH   8   9
ATOM      9  C   UNL d   1      27.004 -14.835  -4.726  0.00  0.00     0.076 C 
ATOM     10  C   UNL d   1      26.204 -15.384  -3.693  0.00  0.00     0.037 C 
ATOM     11  C   UNL d   1      25.119 -14.711  -3.124  0.00  0.00     0.003 C 
ATOM     12  C   UNL d   1      24.777 -13.460  -3.592  0.00  0.00     0.001 C 
ATOM     13  C   UNL d   1      25.531 -12.898  -4.621  0.00  0.00     0.010 C 
ATOM     14  C   UNL d   1      26.717 -13.503  -5.150  0.00  0.00    -0.021 C 
BRANCH  14  15
ATOM     15  C   UNL d   1      27.506 -12.583  -6.106  0.00  0.00     0.013 C 
ATOM     16  C   UNL d   1      28.428 -11.558  -5.430  0.00  0.00     0.015 C 
ATOM     17  C   UNL d   1      28.505 -13.275  -7.005  0.00  0.00     0.015 C 
ENDBRANCH  14  15
ENDBRANCH   8   9
ENDBRANCH   7   8
ENDBRANCH   4   7
ENDBRANCH   1   3
BRANCH   1  18
ATOM     18  C   UNL d   1      30.586 -16.475  -0.291  0.00  0.00     0.193 C 
ATOM     19  S   UNL d   1      31.592 -15.992   0.971  0.00  0.00    -0.039 SA
BRANCH  18  20
ATOM     20  N   UNL d   1      29.296 -17.058  -0.149  0.00  0.00    -0.299 N 
ATOM     21  C   UNL d   1      28.059 -16.408  -0.342  0.00  0.00     0.247 C 
ATOM     22  O   UNL d   1      27.932 -15.230  -0.638  0.00  0.00    -0.268 OA
ATOM     23  H   UNL d   1      29.269 -18.029   0.118  0.00  0.00     0.171 HD
BRANCH  21  24
ATOM     24  C   UNL d   1      26.799 -17.219  -0.150  0.00  0.00     0.075 C 
ATOM     25  C   UNL d   1      25.697 -16.879  -0.862  0.00  0.00     0.017 C 
BRANCH  25  26
ATOM     26  C   UNL d   1      24.350 -17.478  -0.725  0.00  0.00    -0.036 A 
ATOM     27  C   UNL d   1      24.162 -18.858  -0.519  0.00  0.00     0.014 A 
ATOM     28  C   UNL d   1      22.871 -19.422  -0.520  0.00  0.00     0.037 A 
ATOM     29  C   UNL d   1      21.756 -18.588  -0.671  0.00  0.00     0.102 A 
ATOM     30  C   UNL d   1      21.930 -17.219  -0.894  0.00  0.00     0.037 A 
ATOM     31  C   UNL d   1      23.220 -16.679  -0.932  0.00  0.00     0.014 A 
BRANCH  29  32
ATOM     32  N   UNL d   1      20.397 -19.133  -0.539  0.00  0.00    -0.116 N 
ATOM     33  O   UNL d   1      19.929 -19.762  -1.495  0.00  0.00    -0.532 OA
ATOM     34  O   UNL d   1      19.808 -18.949   0.540  0.00  0.00    -0.532 OA
ENDBRANCH  29  32
ENDBRANCH  25  26
ENDBRANCH  21  24
ENDBRANCH  18  20
ENDBRANCH   1  18
TORSDOF 10
ENDMDL
MODEL 6
REMARK VINA RESULT:    -7.895      6.877      9.906
REMARK INTER + INTRA:         -13.541
REMARK INTER:                 -10.878
REMARK INTRA:                  -2.663
REMARK CONF_INDEPENDENT:        2.983
REMARK UNBOUND:                -2.663
REMARK  10 active torsions:
REMARK  status: ('A' for Active; 'I' for Inactive)
REMARK    1  A    between atoms: C_2  and  C_4 
REMARK    2  A    between atoms: C_9  and  O_10 
REMARK    3  A    between atoms: O_10  and  C_11 
REMARK    4  A    between atoms: C_11  and  C_12 
REMARK       I    between atoms: C_12  and  N_14 
REMARK    5  A    between atoms: N_14  and  N_15 
REMARK    6  A    between atoms: N_15  and  C_16 
REMARK    7  A    between atoms: C_16  and  N_18 
REMARK       I    between atoms: N_18  and  C_19 
REMARK    8  A    between atoms: C_19  and  C_21 
REMARK    9  A    between atoms: C_22  and  C_23 
REMARK   10  A    between atoms: C_26  and  N_27 
ROOT
ATOM      1  N   UNL d   1      31.271 -16.752  -1.529  0.00  0.00    -0.273 N 
ATOM      2  H   UNL d   1      32.192 -17.082  -1.805  0.00  0.00     0.189 HD
ENDROOT
BRANCH   1   3
ATOM      3  N   UNL d   1      30.560 -16.112  -2.613  0.00  0.00    -0.266 N 
ATOM      4  C   UNL d   1      30.742 -16.622  -3.917  0.00  0.00     0.260 C 
ATOM      5  O   UNL d   1      31.487 -17.569  -4.129  0.00  0.00    -0.269 OA
ATOM      6  H   UNL d   1      29.875 -15.400  -2.341  0.00  0.00     0.190 HD
BRANCH   4   7
ATOM      7  C   UNL d   1      29.840 -15.973  -5.012  0.00  0.00     0.280 C 
BRANCH   7   8
ATOM      8  O   UNL d   1      28.452 -15.824  -5.142  0.00  0.00    -0.341 OA
BRANCH   8   9
ATOM      9  C   UNL d   1      27.876 -14.607  -5.492  0.00  0.00     0.076 C 
ATOM     10  C   UNL d   1      28.675 -14.015  -6.503  0.00  0.00     0.037 C 
ATOM     11  C   UNL d   1      28.430 -12.742  -7.025  0.00  0.00     0.003 C 
ATOM     12  C   UNL d   1      27.381 -11.997  -6.530  0.00  0.00     0.001 C 
ATOM     13  C   UNL d   1      26.588 -12.541  -5.522  0.00  0.00     0.010 C 
ATOM     14  C   UNL d   1      26.732 -13.883  -5.042  0.00  0.00    -0.021 C 
BRANCH  14  15
ATOM     15  C   UNL d   1      25.591 -14.330  -4.103  0.00  0.00     0.013 C 
ATOM     16  C   UNL d   1      25.977 -14.509  -2.628  0.00  0.00     0.015 C 
ATOM     17  C   UNL d   1      24.447 -13.352  -3.953  0.00  0.00     0.015 C 
ENDBRANCH  14  15
ENDBRANCH   8   9
ENDBRANCH   7   8
ENDBRANCH   4   7
ENDBRANCH   1   3
BRANCH   1  18
ATOM     18  C   UNL d   1      30.721 -16.845  -0.239  0.00  0.00     0.193 C 
ATOM     19  S   UNL d   1      31.608 -16.320   1.094  0.00  0.00    -0.039 SA
BRANCH  18  20
ATOM     20  N   UNL d   1      29.413 -17.401  -0.200  0.00  0.00    -0.299 N 
ATOM     21  C   UNL d   1      28.221 -16.766  -0.610  0.00  0.00     0.247 C 
ATOM     22  O   UNL d   1      28.154 -15.625  -1.037  0.00  0.00    -0.268 OA
ATOM     23  H   UNL d   1      29.335 -18.340   0.158  0.00  0.00     0.171 HD
BRANCH  21  24
ATOM     24  C   UNL d   1      26.932 -17.545  -0.495  0.00  0.00     0.075 C 
ATOM     25  C   UNL d   1      25.779 -16.946  -0.881  0.00  0.00     0.017 C 
BRANCH  25  26
ATOM     26  C   UNL d   1      24.415 -17.504  -0.735  0.00  0.00    -0.036 A 
ATOM     27  C   UNL d   1      24.186 -18.877  -0.524  0.00  0.00     0.014 A 
ATOM     28  C   UNL d   1      22.879 -19.401  -0.517  0.00  0.00     0.037 A 
ATOM     29  C   UNL d   1      21.789 -18.534  -0.665  0.00  0.00     0.102 A 
ATOM     30  C   UNL d   1      22.003 -17.172  -0.895  0.00  0.00     0.037 A 
ATOM     31  C   UNL d   1      23.309 -16.671  -0.940  0.00  0.00     0.014 A 
BRANCH  29  32
ATOM     32  N   UNL d   1      20.414 -19.037  -0.526  0.00  0.00    -0.116 N 
ATOM     33  O   UNL d   1      20.254 -20.256  -0.391  0.00  0.00    -0.532 OA
ATOM     34  O   UNL d   1      19.495 -18.201  -0.525  0.00  0.00    -0.532 OA
ENDBRANCH  29  32
ENDBRANCH  25  26
ENDBRANCH  21  24
ENDBRANCH  18  20
ENDBRANCH   1  18
TORSDOF 10
ENDMDL
MODEL 7
REMARK VINA RESULT:    -7.622      3.739      5.332
REMARK INTER + INTRA:         -13.774
REMARK INTER:                 -10.605
REMARK INTRA:                  -3.169
REMARK CONF_INDEPENDENT:        2.983
REMARK UNBOUND:                -3.169
REMARK  10 active torsions:
REMARK  status: ('A' for Active; 'I' for Inactive)
REMARK    1  A    between atoms: C_2  and  C_4 
REMARK    2  A    between atoms: C_9  and  O_10 
REMARK    3  A    between atoms: O_10  and  C_11 
REMARK    4  A    between atoms: C_11  and  C_12 
REMARK       I    between atoms: C_12  and  N_14 
REMARK    5  A    between atoms: N_14  and  N_15 
REMARK    6  A    between atoms: N_15  and  C_16 
REMARK    7  A    between atoms: C_16  and  N_18 
REMARK       I    between atoms: N_18  and  C_19 
REMARK    8  A    between atoms: C_19  and  C_21 
REMARK    9  A    between atoms: C_22  and  C_23 
REMARK   10  A    between atoms: C_26  and  N_27 
ROOT
ATOM      1  N   UNL d   1      30.920 -16.756   0.679  0.00  0.00    -0.273 N 
ATOM      2  H   UNL d   1      31.180 -17.578   1.218  0.00  0.00     0.189 HD
ENDROOT
BRANCH   1   3
ATOM      3  N   UNL d   1      30.779 -15.574   1.500  0.00  0.00    -0.266 N 
ATOM      4  C   UNL d   1      31.839 -14.641   1.505  0.00  0.00     0.260 C 
ATOM      5  O   UNL d   1      32.852 -14.828   0.845  0.00  0.00    -0.269 OA
ATOM      6  H   UNL d   1      29.861 -15.437   1.933  0.00  0.00     0.190 HD
BRANCH   4   7
ATOM      7  C   UNL d   1      31.559 -13.329   2.302  0.00  0.00     0.280 C 
BRANCH   7   8
ATOM      8  O   UNL d   1      30.403 -12.561   2.502  0.00  0.00    -0.341 OA
BRANCH   8   9
ATOM      9  C   UNL d   1      29.154 -12.993   2.067  0.00  0.00     0.076 C 
ATOM     10  C   UNL d   1      29.109 -12.866   0.655  0.00  0.00     0.037 C 
ATOM     11  C   UNL d   1      27.964 -13.133  -0.102  0.00  0.00     0.003 C 
ATOM     12  C   UNL d   1      26.804 -13.515   0.537  0.00  0.00     0.001 C 
ATOM     13  C   UNL d   1      26.808 -13.630   1.926  0.00  0.00     0.010 C 
ATOM     14  C   UNL d   1      27.987 -13.480   2.726  0.00  0.00    -0.021 C 
BRANCH  14  15
ATOM     15  C   UNL d   1      27.788 -13.889   4.202  0.00  0.00     0.013 C 
ATOM     16  C   UNL d   1      28.880 -14.793   4.792  0.00  0.00     0.015 C 
ATOM     17  C   UNL d   1      27.819 -12.758   5.205  0.00  0.00     0.015 C 
ENDBRANCH  14  15
ENDBRANCH   8   9
ENDBRANCH   7   8
ENDBRANCH   4   7
ENDBRANCH   1   3
BRANCH   1  18
ATOM     18  C   UNL d   1      30.672 -16.728  -0.704  0.00  0.00     0.193 C 
ATOM     19  S   UNL d   1      31.928 -16.411  -1.780  0.00  0.00    -0.039 SA
BRANCH  18  20
ATOM     20  N   UNL d   1      29.318 -16.983  -1.059  0.00  0.00    -0.299 N 
ATOM     21  C   UNL d   1      28.179 -16.681  -0.283  0.00  0.00     0.247 C 
ATOM     22  O   UNL d   1      28.209 -16.175   0.827  0.00  0.00    -0.268 OA
ATOM     23  H   UNL d   1      29.163 -17.424  -1.952  0.00  0.00     0.171 HD
BRANCH  21  24
ATOM     24  C   UNL d   1      26.824 -17.027  -0.855  0.00  0.00     0.075 C 
ATOM     25  C   UNL d   1      25.764 -17.089  -0.012  0.00  0.00     0.017 C 
BRANCH  25  26
ATOM     26  C   UNL d   1      24.393 -17.522  -0.365  0.00  0.00    -0.036 A 
ATOM     27  C   UNL d   1      23.377 -16.602  -0.689  0.00  0.00     0.014 A 
ATOM     28  C   UNL d   1      22.051 -17.030  -0.895  0.00  0.00     0.037 A 
ATOM     29  C   UNL d   1      21.751 -18.396  -0.834  0.00  0.00     0.102 A 
ATOM     30  C   UNL d   1      22.746 -19.317  -0.495  0.00  0.00     0.037 A 
ATOM     31  C   UNL d   1      24.050 -18.874  -0.252  0.00  0.00     0.014 A 
BRANCH  29  32
ATOM     32  N   UNL d   1      20.405 -18.879  -1.179  0.00  0.00    -0.116 N 
ATOM     33  O   UNL d   1      19.440 -18.372  -0.595  0.00  0.00    -0.532 OA
ATOM     34  O   UNL d   1      20.317 -19.750  -2.060  0.00  0.00    -0.532 OA
ENDBRANCH  29  32
ENDBRANCH  25  26
ENDBRANCH  21  24
ENDBRANCH  18  20
ENDBRANCH   1  18
TORSDOF 10
ENDMDL
MODEL 8
REMARK VINA RESULT:    -7.469      7.277      9.431
REMARK INTER + INTRA:         -13.701
REMARK INTER:                 -10.452
REMARK INTRA:                  -3.249
REMARK CONF_INDEPENDENT:        2.983
REMARK UNBOUND:                -3.249
REMARK  10 active torsions:
REMARK  status: ('A' for Active; 'I' for Inactive)
REMARK    1  A    between atoms: C_2  and  C_4 
REMARK    2  A    between atoms: C_9  and  O_10 
REMARK    3  A    between atoms: O_10  and  C_11 
REMARK    4  A    between atoms: C_11  and  C_12 
REMARK       I    between atoms: C_12  and  N_14 
REMARK    5  A    between atoms: N_14  and  N_15 
REMARK    6  A    between atoms: N_15  and  C_16 
REMARK    7  A    between atoms: C_16  and  N_18 
REMARK       I    between atoms: N_18  and  C_19 
REMARK    8  A    between atoms: C_19  and  C_21 
REMARK    9  A    between atoms: C_22  and  C_23 
REMARK   10  A    between atoms: C_26  and  N_27 
ROOT
ATOM      1  N   UNL d   1      27.981 -16.936  -1.090  0.00  0.00    -0.273 N 
ATOM      2  H   UNL d   1      28.746 -17.563  -0.852  0.00  0.00     0.189 HD
ENDROOT
BRANCH   1   3
ATOM      3  N   UNL d   1      28.014 -16.518  -2.473  0.00  0.00    -0.266 N 
ATOM      4  C   UNL d   1      29.219 -16.686  -3.188  0.00  0.00     0.260 C 
ATOM      5  O   UNL d   1      30.213 -17.161  -2.654  0.00  0.00    -0.269 OA
ATOM      6  H   UNL d   1      27.115 -16.234  -2.875  0.00  0.00     0.190 HD
BRANCH   4   7
ATOM      7  C   UNL d   1      29.139 -16.341  -4.708  0.00  0.00     0.280 C 
BRANCH   7   8
ATOM      8  O   UNL d   1      28.267 -15.543  -5.461  0.00  0.00    -0.341 OA
BRANCH   8   9
ATOM      9  C   UNL d   1      27.481 -14.559  -4.869  0.00  0.00     0.076 C 
ATOM     10  C   UNL d   1      26.120 -14.921  -5.034  0.00  0.00     0.037 C 
ATOM     11  C   UNL d   1      25.057 -14.108  -4.631  0.00  0.00     0.003 C 
ATOM     12  C   UNL d   1      25.321 -12.878  -4.066  0.00  0.00     0.001 C 
ATOM     13  C   UNL d   1      26.647 -12.482  -3.907  0.00  0.00     0.010 C 
ATOM     14  C   UNL d   1      27.764 -13.332  -4.199  0.00  0.00    -0.021 C 
BRANCH  14  15
ATOM     15  C   UNL d   1      29.115 -12.762  -3.717  0.00  0.00     0.013 C 
ATOM     16  C   UNL d   1      29.471 -13.050  -2.251  0.00  0.00     0.015 C 
ATOM     17  C   UNL d   1      30.343 -13.327  -4.395  0.00  0.00     0.015 C 
ENDBRANCH  14  15
ENDBRANCH   8   9
ENDBRANCH   7   8
ENDBRANCH   4   7
ENDBRANCH   1   3
BRANCH   1  18
ATOM     18  C   UNL d   1      27.002 -16.466  -0.198  0.00  0.00     0.193 C 
ATOM     19  S   UNL d   1      27.408 -15.331   0.978  0.00  0.00    -0.039 SA
BRANCH  18  20
ATOM     20  N   UNL d   1      25.711 -17.031  -0.398  0.00  0.00    -0.299 N 
ATOM     21  C   UNL d   1      24.948 -16.975  -1.583  0.00  0.00     0.247 C 
ATOM     22  O   UNL d   1      25.292 -16.401  -2.603  0.00  0.00    -0.268 OA
ATOM     23  H   UNL d   1      25.307 -17.516   0.388  0.00  0.00     0.171 HD
BRANCH  21  24
ATOM     24  C   UNL d   1      23.599 -17.655  -1.585  0.00  0.00     0.075 C 
ATOM     25  C   UNL d   1      23.022 -17.949  -0.393  0.00  0.00     0.017 C 
BRANCH  25  26
ATOM     26  C   UNL d   1      21.769 -18.711  -0.195  0.00  0.00    -0.036 A 
ATOM     27  C   UNL d   1      20.945 -19.090  -1.272  0.00  0.00     0.014 A 
ATOM     28  C   UNL d   1      19.696 -19.700  -1.049  0.00  0.00     0.037 A 
ATOM     29  C   UNL d   1      19.293 -19.985   0.262  0.00  0.00     0.102 A 
ATOM     30  C   UNL d   1      20.092 -19.597   1.340  0.00  0.00     0.037 A 
ATOM     31  C   UNL d   1      21.312 -18.954   1.105  0.00  0.00     0.014 A 
BRANCH  29  32
ATOM     32  N   UNL d   1      18.058 -20.743   0.512  0.00  0.00    -0.116 N 
ATOM     33  O   UNL d   1      17.371 -21.071  -0.463  0.00  0.00    -0.532 OA
ATOM     34  O   UNL d   1      17.792 -21.032   1.691  0.00  0.00    -0.532 OA
ENDBRANCH  29  32
ENDBRANCH  25  26
ENDBRANCH  21  24
ENDBRANCH  18  20
ENDBRANCH   1  18
TORSDOF 10
ENDMDL
MODEL 9
REMARK VINA RESULT:    -7.420      7.857     11.141
REMARK INTER + INTRA:         -13.599
REMARK INTER:                 -10.403
REMARK INTRA:                  -3.196
REMARK CONF_INDEPENDENT:        2.983
REMARK UNBOUND:                -3.196
REMARK  10 active torsions:
REMARK  status: ('A' for Active; 'I' for Inactive)
REMARK    1  A    between atoms: C_2  and  C_4 
REMARK    2  A    between atoms: C_9  and  O_10 
REMARK    3  A    between atoms: O_10  and  C_11 
REMARK    4  A    between atoms: C_11  and  C_12 
REMARK       I    between atoms: C_12  and  N_14 
REMARK    5  A    between atoms: N_14  and  N_15 
REMARK    6  A    between atoms: N_15  and  C_16 
REMARK    7  A    between atoms: C_16  and  N_18 
REMARK       I    between atoms: N_18  and  C_19 
REMARK    8  A    between atoms: C_19  and  C_21 
REMARK    9  A    between atoms: C_22  and  C_23 
REMARK   10  A    between atoms: C_26  and  N_27 
ROOT
ATOM      1  N   UNL d   1      28.486 -13.059  -6.487  0.00  0.00    -0.273 N 
ATOM      2  H   UNL d   1      29.132 -13.794  -6.763  0.00  0.00     0.189 HD
ENDROOT
BRANCH   1   3
ATOM      3  N   UNL d   1      27.240 -13.577  -5.967  0.00  0.00    -0.266 N 
ATOM      4  C   UNL d   1      27.200 -14.932  -5.574  0.00  0.00     0.260 C 
ATOM      5  O   UNL d   1      28.183 -15.653  -5.678  0.00  0.00    -0.269 OA
ATOM      6  H   UNL d   1      26.500 -12.887  -5.809  0.00  0.00     0.190 HD
BRANCH   4   7
ATOM      7  C   UNL d   1      25.868 -15.383  -4.897  0.00  0.00     0.280 C 
BRANCH   7   8
ATOM      8  O   UNL d   1      25.065 -14.816  -3.897  0.00  0.00    -0.341 OA
BRANCH   8   9
ATOM      9  C   UNL d   1      25.504 -14.703  -2.582  0.00  0.00     0.076 C 
ATOM     10  C   UNL d   1      26.047 -13.406  -2.406  0.00  0.00     0.037 C 
ATOM     11  C   UNL d   1      26.660 -12.985  -1.222  0.00  0.00     0.003 C 
ATOM     12  C   UNL d   1      26.774 -13.868  -0.168  0.00  0.00     0.001 C 
ATOM     13  C   UNL d   1      26.269 -15.158  -0.315  0.00  0.00     0.010 C 
ATOM     14  C   UNL d   1      25.532 -15.591  -1.465  0.00  0.00    -0.021 C 
BRANCH  14  15
ATOM     15  C   UNL d   1      24.872 -16.976  -1.291  0.00  0.00     0.013 C 
ATOM     16  C   UNL d   1      25.498 -17.878  -0.217  0.00  0.00     0.015 C 
ATOM     17  C   UNL d   1      23.439 -16.961  -0.811  0.00  0.00     0.015 C 
ENDBRANCH  14  15
ENDBRANCH   8   9
ENDBRANCH   7   8
ENDBRANCH   4   7
ENDBRANCH   1   3
BRANCH   1  18
ATOM     18  C   UNL d   1      28.715 -11.678  -6.617  0.00  0.00     0.193 C 
ATOM     19  S   UNL d   1      29.543 -11.084  -7.957  0.00  0.00    -0.039 SA
BRANCH  18  20
ATOM     20  N   UNL d   1      28.196 -10.897  -5.546  0.00  0.00    -0.299 N 
ATOM     21  C   UNL d   1      26.839 -10.582  -5.322  0.00  0.00     0.247 C 
ATOM     22  O   UNL d   1      25.918 -10.923  -6.047  0.00  0.00    -0.268 OA
ATOM     23  H   UNL d   1      28.868 -10.535  -4.888  0.00  0.00     0.171 HD
BRANCH  21  24
ATOM     24  C   UNL d   1      26.501  -9.743  -4.112  0.00  0.00     0.075 C 
ATOM     25  C   UNL d   1      27.177  -9.973  -2.959  0.00  0.00     0.017 C 
BRANCH  25  26
ATOM     26  C   UNL d   1      26.909  -9.338  -1.649  0.00  0.00    -0.036 A 
ATOM     27  C   UNL d   1      27.551  -9.756  -0.468  0.00  0.00     0.014 A 
ATOM     28  C   UNL d   1      27.184  -9.224   0.783  0.00  0.00     0.037 A 
ATOM     29  C   UNL d   1      26.206  -8.224   0.847  0.00  0.00     0.102 A 
ATOM     30  C   UNL d   1      25.547  -7.814  -0.316  0.00  0.00     0.037 A 
ATOM     31  C   UNL d   1      25.893  -8.380  -1.547  0.00  0.00     0.014 A 
BRANCH  29  32
ATOM     32  N   UNL d   1      25.904  -7.558   2.123  0.00  0.00    -0.116 N 
ATOM     33  O   UNL d   1      26.330  -8.077   3.162  0.00  0.00    -0.532 OA
ATOM     34  O   UNL d   1      25.260  -6.497   2.077  0.00  0.00    -0.532 OA
ENDBRANCH  29  32
ENDBRANCH  25  26
ENDBRANCH  21  24
ENDBRANCH  18  20
ENDBRANCH   1  18
TORSDOF 10
ENDMDL
