MODEL 1
REMARK VINA RESULT:    -8.360      0.000      0.000
REMARK INTER + INTRA:         -11.717
REMARK INTER:                  -9.852
REMARK INTRA:                  -1.865
REMARK CONF_INDEPENDENT:        1.492
REMARK UNBOUND:                -1.865
REMARK  5 active torsions:
REMARK  status: ('A' for Active; 'I' for Inactive)
REMARK    1  A    between atoms: C_2  and  C_3 
REMARK       I    between atoms: C_3  and  N_5 
REMARK    2  A    between atoms: N_5  and  C_6 
REMARK    3  A    between atoms: C_10  and  C_11 
REMARK       I    between atoms: C_11  and  N_13 
REMARK    4  A    between atoms: N_13  and  N_14 
REMARK       I    between atoms: N_14  and  C_15 
REMARK    5  A    between atoms: C_15  and  C_17 
ROOT
ATOM      1  C   UNL d   1      24.819 -17.896  -0.135  0.00  0.00     0.270 C 
ATOM      2  O   UNL d   1      25.360 -18.949   0.225  0.00  0.00    -0.266 OA
ATOM      3  N   UNL d   1      23.451 -17.820  -0.348  0.00  0.00    -0.263 N 
ATOM      4  H   UNL d   1      22.949 -16.979  -0.634  0.00  0.00     0.190 HD
ENDROOT
BRANCH   1   5
ATOM      5  C   UNL d   1      25.655 -16.666  -0.384  0.00  0.00     0.035 A 
ATOM      6  C   UNL d   1      26.917 -16.544   0.221  0.00  0.00     0.017 A 
ATOM      7  C   UNL d   1      27.751 -15.454  -0.074  0.00  0.00     0.003 A 
ATOM      8  C   UNL d   1      27.330 -14.462  -0.967  0.00  0.00     0.029 A 
ATOM      9  C   UNL d   1      26.087 -14.577  -1.589  0.00  0.00     0.035 A 
ATOM     10  C   UNL d   1      25.253 -15.660  -1.270  0.00  0.00     0.046 A 
BRANCH   9  11
ATOM     11  N   UNL d   1      25.711 -13.660  -2.603  0.00  0.00    -0.327 N 
ATOM     12  C   UNL d   1      25.521 -14.040  -3.923  0.00  0.00     0.221 C 
ATOM     13  O   UNL d   1      25.529 -15.211  -4.300  0.00  0.00    -0.273 OA
ATOM     14  H   UNL d   1      25.508 -12.707  -2.323  0.00  0.00     0.169 HD
BRANCH  12  15
ATOM     15  C   UNL d   1      25.262 -12.906  -4.901  0.00  0.00     0.098 C 
ATOM     16  C   UNL d   1      25.996 -11.650  -4.434  0.00  0.00     0.014 C 
ENDBRANCH  12  15
ENDBRANCH   9  11
ENDBRANCH   1   5
BRANCH   3  17
ATOM     17  N   UNL d   1      22.626 -18.971  -0.171  0.00  0.00    -0.265 N 
ATOM     18  C   UNL d   1      21.296 -18.856  -0.531  0.00  0.00     0.265 C 
ATOM     19  O   UNL d   1      20.892 -17.783  -1.002  0.00  0.00    -0.269 OA
ATOM     20  H   UNL d   1      23.069 -19.787   0.242  0.00  0.00     0.190 HD
BRANCH  18  21
ATOM     21  C   UNL d   1      20.311 -20.021  -0.220  0.00  0.00     0.215 C 
ATOM     22  C   UNL d   1      18.815 -19.972  -0.512  0.00  0.00     0.044 C 
ATOM     23  C   UNL d   1      18.229 -20.846   0.588  0.00  0.00     0.029 C 
ATOM     24  C   UNL d   1      19.131 -20.547   1.757  0.00  0.00     0.168 C 
ATOM     25  O   UNL d   1      20.421 -20.307   1.198  0.00  0.00    -0.376 OA
ENDBRANCH  18  21
ENDBRANCH   3  17
TORSDOF 5
ENDMDL
MODEL 2
REMARK VINA RESULT:    -8.076      1.680      1.783
REMARK INTER + INTRA:         -11.364
REMARK INTER:                  -9.567
REMARK INTRA:                  -1.797
REMARK CONF_INDEPENDENT:        1.492
REMARK UNBOUND:                -1.797
REMARK  5 active torsions:
REMARK  status: ('A' for Active; 'I' for Inactive)
REMARK    1  A    between atoms: C_2  and  C_3 
REMARK       I    between atoms: C_3  and  N_5 
REMARK    2  A    between atoms: N_5  and  C_6 
REMARK    3  A    between atoms: C_10  and  C_11 
REMARK       I    between atoms: C_11  and  N_13 
REMARK    4  A    between atoms: N_13  and  N_14 
REMARK       I    between atoms: N_14  and  C_15 
REMARK    5  A    between atoms: C_15  and  C_17 
ROOT
ATOM      1  C   UNL d   1      24.338 -17.758  -0.542  0.00  0.00     0.270 C 
ATOM      2  O   UNL d   1      25.004 -18.678  -0.051  0.00  0.00    -0.266 OA
ATOM      3  N   UNL d   1      22.960 -17.848  -0.666  0.00  0.00    -0.263 N 
ATOM      4  H   UNL d   1      22.358 -17.120  -1.052  0.00  0.00     0.190 HD
ENDROOT
BRANCH   1   5
ATOM      5  C   UNL d   1      25.027 -16.519  -1.053  0.00  0.00     0.035 A 
ATOM      6  C   UNL d   1      25.552 -15.585  -0.145  0.00  0.00     0.017 A 
ATOM      7  C   UNL d   1      26.281 -14.475  -0.600  0.00  0.00     0.003 A 
ATOM      8  C   UNL d   1      26.483 -14.273  -1.969  0.00  0.00     0.029 A 
ATOM      9  C   UNL d   1      25.983 -15.200  -2.884  0.00  0.00     0.035 A 
ATOM     10  C   UNL d   1      25.238 -16.295  -2.419  0.00  0.00     0.046 A 
BRANCH   9  11
ATOM     11  N   UNL d   1      26.306 -15.088  -4.260  0.00  0.00    -0.327 N 
ATOM     12  C   UNL d   1      27.612 -15.100  -4.727  0.00  0.00     0.221 C 
ATOM     13  O   UNL d   1      28.585 -15.340  -4.013  0.00  0.00    -0.273 OA
ATOM     14  H   UNL d   1      25.539 -15.071  -4.922  0.00  0.00     0.169 HD
BRANCH  12  15
ATOM     15  C   UNL d   1      27.780 -14.825  -6.212  0.00  0.00     0.098 C 
ATOM     16  C   UNL d   1      29.194 -14.314  -6.480  0.00  0.00     0.014 C 
ENDBRANCH  12  15
ENDBRANCH   9  11
ENDBRANCH   1   5
BRANCH   3  17
ATOM     17  N   UNL d   1      22.269 -19.022  -0.239  0.00  0.00    -0.265 N 
ATOM     18  C   UNL d   1      20.905 -19.067  -0.459  0.00  0.00     0.265 C 
ATOM     19  O   UNL d   1      20.356 -18.111  -1.025  0.00  0.00    -0.269 OA
ATOM     20  H   UNL d   1      22.827 -19.730   0.230  0.00  0.00     0.190 HD
BRANCH  18  21
ATOM     21  C   UNL d   1      20.072 -20.248   0.120  0.00  0.00     0.215 C 
ATOM     22  C   UNL d   1      18.583 -20.449  -0.145  0.00  0.00     0.044 C 
ATOM     23  C   UNL d   1      18.103 -21.126   1.131  0.00  0.00     0.029 C 
ATOM     24  C   UNL d   1      18.953 -20.469   2.187  0.00  0.00     0.168 C 
ATOM     25  O   UNL d   1      20.206 -20.200   1.564  0.00  0.00    -0.376 OA
ENDBRANCH  18  21
ENDBRANCH   3  17
TORSDOF 5
ENDMDL
MODEL 3
REMARK VINA RESULT:    -7.992      2.398      8.749
REMARK INTER + INTRA:         -11.663
REMARK INTER:                  -9.484
REMARK INTRA:                  -2.179
REMARK CONF_INDEPENDENT:        1.492
REMARK UNBOUND:                -2.179
REMARK  5 active torsions:
REMARK  status: ('A' for Active; 'I' for Inactive)
REMARK    1  A    between atoms: C_2  and  C_3 
REMARK       I    between atoms: C_3  and  N_5 
REMARK    2  A    between atoms: N_5  and  C_6 
REMARK    3  A    between atoms: C_10  and  C_11 
REMARK       I    between atoms: C_11  and  N_13 
REMARK    4  A    between atoms: N_13  and  N_14 
REMARK       I    between atoms: N_14  and  C_15 
REMARK    5  A    between atoms: C_15  and  C_17 
ROOT
ATOM      1  C   UNL d   1      25.188 -15.466  -2.807  0.00  0.00     0.270 C 
ATOM      2  O   UNL d   1      24.347 -14.594  -3.055  0.00  0.00    -0.266 OA
ATOM      3  N   UNL d   1      26.357 -15.575  -3.545  0.00  0.00    -0.263 N 
ATOM      4  H   UNL d   1      27.091 -16.265  -3.381  0.00  0.00     0.190 HD
ENDROOT
BRANCH   1   5
ATOM      5  C   UNL d   1      24.939 -16.463  -1.705  0.00  0.00     0.035 A 
ATOM      6  C   UNL d   1      25.999 -16.875  -0.880  0.00  0.00     0.017 A 
ATOM      7  C   UNL d   1      25.769 -17.727   0.211  0.00  0.00     0.003 A 
ATOM      8  C   UNL d   1      24.479 -18.193   0.486  0.00  0.00     0.029 A 
ATOM      9  C   UNL d   1      23.412 -17.781  -0.312  0.00  0.00     0.035 A 
ATOM     10  C   UNL d   1      23.657 -16.945  -1.414  0.00  0.00     0.046 A 
BRANCH   9  11
ATOM     11  N   UNL d   1      22.082 -18.125   0.042  0.00  0.00    -0.327 N 
ATOM     12  C   UNL d   1      21.239 -18.826  -0.806  0.00  0.00     0.221 C 
ATOM     13  O   UNL d   1      21.606 -19.322  -1.871  0.00  0.00    -0.273 OA
ATOM     14  H   UNL d   1      21.776 -17.905   0.982  0.00  0.00     0.169 HD
BRANCH  12  15
ATOM     15  C   UNL d   1      19.806 -18.983  -0.324  0.00  0.00     0.098 C 
ATOM     16  C   UNL d   1      19.775 -19.903   0.895  0.00  0.00     0.014 C 
ENDBRANCH  12  15
ENDBRANCH   9  11
ENDBRANCH   1   5
BRANCH   3  17
ATOM     17  N   UNL d   1      26.615 -14.683  -4.630  0.00  0.00    -0.265 N 
ATOM     18  C   UNL d   1      27.717 -14.951  -5.419  0.00  0.00     0.265 C 
ATOM     19  O   UNL d   1      28.409 -15.948  -5.167  0.00  0.00    -0.269 OA
ATOM     20  H   UNL d   1      25.986 -13.890  -4.723  0.00  0.00     0.190 HD
BRANCH  18  21
ATOM     21  C   UNL d   1      28.141 -13.934  -6.520  0.00  0.00     0.215 C 
ATOM     22  C   UNL d   1      29.576 -13.469  -6.742  0.00  0.00     0.044 C 
ATOM     23  C   UNL d   1      29.392 -12.050  -7.262  0.00  0.00     0.029 C 
ATOM     24  C   UNL d   1      28.189 -11.573  -6.492  0.00  0.00     0.168 C 
ATOM     25  O   UNL d   1      27.369 -12.725  -6.305  0.00  0.00    -0.376 OA
ENDBRANCH  18  21
ENDBRANCH   3  17
TORSDOF 5
ENDMDL
MODEL 4
REMARK VINA RESULT:    -7.907      2.102      3.282
REMARK INTER + INTRA:         -11.276
REMARK INTER:                  -9.398
REMARK INTRA:                  -1.877
REMARK CONF_INDEPENDENT:        1.492
REMARK UNBOUND:                -1.877
REMARK  5 active torsions:
REMARK  status: ('A' for Active; 'I' for Inactive)
REMARK    1  A    between atoms: C_2  and  C_3 
REMARK       I    between atoms: C_3  and  N_5 
REMARK    2  A    between atoms: N_5  and  C_6 
REMARK    3  A    between atoms: C_10  and  C_11 
REMARK       I    between atoms: C_11  and  N_13 
REMARK    4  A    between atoms: N_13  and  N_14 
REMARK       I    between atoms: N_14  and  C_15 
REMARK    5  A    between atoms: C_15  and  C_17 
ROOT
ATOM      1  C   UNL d   1      24.387 -17.758  -0.394  0.00  0.00     0.270 C 
ATOM      2  O   UNL d   1      25.012 -18.637   0.211  0.00  0.00    -0.266 OA
ATOM      3  N   UNL d   1      23.025 -17.866  -0.626  0.00  0.00    -0.263 N 
ATOM      4  H   UNL d   1      22.455 -17.170  -1.109  0.00  0.00     0.190 HD
ENDROOT
BRANCH   1   5
ATOM      5  C   UNL d   1      25.114 -16.549  -0.929  0.00  0.00     0.035 A 
ATOM      6  C   UNL d   1      24.762 -16.020  -2.182  0.00  0.00     0.017 A 
ATOM      7  C   UNL d   1      25.359 -14.840  -2.654  0.00  0.00     0.003 A 
ATOM      8  C   UNL d   1      26.327 -14.181  -1.888  0.00  0.00     0.029 A 
ATOM      9  C   UNL d   1      26.675 -14.684  -0.635  0.00  0.00     0.035 A 
ATOM     10  C   UNL d   1      26.087 -15.876  -0.182  0.00  0.00     0.046 A 
BRANCH   9  11
ATOM     11  N   UNL d   1      27.543 -13.948   0.212  0.00  0.00    -0.327 N 
ATOM     12  C   UNL d   1      27.090 -13.241   1.315  0.00  0.00     0.221 C 
ATOM     13  O   UNL d   1      25.933 -13.297   1.729  0.00  0.00    -0.273 OA
ATOM     14  H   UNL d   1      28.538 -14.010   0.032  0.00  0.00     0.169 HD
BRANCH  12  15
ATOM     15  C   UNL d   1      28.134 -12.394   2.025  0.00  0.00     0.098 C 
ATOM     16  C   UNL d   1      27.791 -12.300   3.510  0.00  0.00     0.014 C 
ENDBRANCH  12  15
ENDBRANCH   9  11
ENDBRANCH   1   5
BRANCH   3  17
ATOM     17  N   UNL d   1      22.303 -19.015  -0.180  0.00  0.00    -0.265 N 
ATOM     18  C   UNL d   1      20.967 -19.093  -0.524  0.00  0.00     0.265 C 
ATOM     19  O   UNL d   1      20.468 -18.188  -1.208  0.00  0.00    -0.269 OA
ATOM     20  H   UNL d   1      22.818 -19.680   0.390  0.00  0.00     0.190 HD
BRANCH  18  21
ATOM     21  C   UNL d   1      20.089 -20.239   0.060  0.00  0.00     0.215 C 
ATOM     22  C   UNL d   1      18.583 -20.352  -0.155  0.00  0.00     0.044 C 
ATOM     23  C   UNL d   1      18.112 -21.031   1.124  0.00  0.00     0.029 C 
ATOM     24  C   UNL d   1      19.033 -20.446   2.162  0.00  0.00     0.168 C 
ATOM     25  O   UNL d   1      20.277 -20.232   1.499  0.00  0.00    -0.376 OA
ENDBRANCH  18  21
ENDBRANCH   3  17
TORSDOF 5
ENDMDL
MODEL 5
REMARK VINA RESULT:    -7.893      2.387      8.714
REMARK INTER + INTRA:         -11.503
REMARK INTER:                  -9.385
REMARK INTRA:                  -2.118
REMARK CONF_INDEPENDENT:        1.492
REMARK UNBOUND:                -2.118
REMARK  5 active torsions:
REMARK  status: ('A' for Active; 'I' for Inactive)
REMARK    1  A    between atoms: C_2  and  C_3 
REMARK       I    between atoms: C_3  and  N_5 
REMARK    2  A    between atoms: N_5  and  C_6 
REMARK    3  A    between atoms: C_10  and  C_11 
REMARK       I    between atoms: C_11  and  N_13 
REMARK    4  A    between atoms: N_13  and  N_14 
REMARK       I    between atoms: N_14  and  C_15 
REMARK    5  A    between atoms: C_15  and  C_17 
ROOT
ATOM      1  C   UNL d   1      24.997 -14.324  -3.102  0.00  0.00     0.270 C 
ATOM      2  O   UNL d   1      24.452 -14.450  -4.206  0.00  0.00    -0.266 OA
ATOM      3  N   UNL d   1      25.524 -13.111  -2.688  0.00  0.00    -0.263 N 
ATOM      4  H   UNL d   1      25.974 -12.944  -1.787  0.00  0.00     0.190 HD
ENDROOT
BRANCH   1   5
ATOM      5  C   UNL d   1      25.129 -15.515  -2.186  0.00  0.00     0.035 A 
ATOM      6  C   UNL d   1      26.403 -15.949  -1.783  0.00  0.00     0.017 A 
ATOM      7  C   UNL d   1      26.543 -16.994  -0.856  0.00  0.00     0.003 A 
ATOM      8  C   UNL d   1      25.414 -17.631  -0.330  0.00  0.00     0.029 A 
ATOM      9  C   UNL d   1      24.142 -17.201  -0.708  0.00  0.00     0.035 A 
ATOM     10  C   UNL d   1      24.014 -16.170  -1.651  0.00  0.00     0.046 A 
BRANCH   9  11
ATOM     11  N   UNL d   1      22.992 -17.737  -0.073  0.00  0.00    -0.327 N 
ATOM     12  C   UNL d   1      22.199 -18.711  -0.658  0.00  0.00     0.221 C 
ATOM     13  O   UNL d   1      22.492 -19.286  -1.706  0.00  0.00    -0.273 OA
ATOM     14  H   UNL d   1      22.798 -17.436   0.876  0.00  0.00     0.169 HD
BRANCH  12  15
ATOM     15  C   UNL d   1      20.929 -19.064   0.099  0.00  0.00     0.098 C 
ATOM     16  C   UNL d   1      19.821 -19.410  -0.895  0.00  0.00     0.014 C 
ENDBRANCH  12  15
ENDBRANCH   9  11
ENDBRANCH   1   5
BRANCH   3  17
ATOM     17  N   UNL d   1      25.465 -11.967  -3.541  0.00  0.00    -0.265 N 
ATOM     18  C   UNL d   1      26.253 -10.884  -3.200  0.00  0.00     0.265 C 
ATOM     19  O   UNL d   1      26.979 -10.960  -2.198  0.00  0.00    -0.269 OA
ATOM     20  H   UNL d   1      24.817 -12.018  -4.322  0.00  0.00     0.190 HD
BRANCH  18  21
ATOM     21  C   UNL d   1      26.119  -9.554  -3.998  0.00  0.00     0.215 C 
ATOM     22  C   UNL d   1      25.530  -8.270  -3.421  0.00  0.00     0.044 C 
ATOM     23  C   UNL d   1      24.906  -7.609  -4.641  0.00  0.00     0.029 C 
ATOM     24  C   UNL d   1      24.405  -8.789  -5.431  0.00  0.00     0.168 C 
ATOM     25  O   UNL d   1      25.333  -9.843  -5.183  0.00  0.00    -0.376 OA
ENDBRANCH  18  21
ENDBRANCH   3  17
TORSDOF 5
ENDMDL
MODEL 6
REMARK VINA RESULT:    -7.639      3.483      8.480
REMARK INTER + INTRA:         -11.321
REMARK INTER:                  -9.131
REMARK INTRA:                  -2.190
REMARK CONF_INDEPENDENT:        1.492
REMARK UNBOUND:                -2.190
REMARK  5 active torsions:
REMARK  status: ('A' for Active; 'I' for Inactive)
REMARK    1  A    between atoms: C_2  and  C_3 
REMARK       I    between atoms: C_3  and  N_5 
REMARK    2  A    between atoms: N_5  and  C_6 
REMARK    3  A    between atoms: C_10  and  C_11 
REMARK       I    between atoms: C_11  and  N_13 
REMARK    4  A    between atoms: N_13  and  N_14 
REMARK       I    between atoms: N_14  and  C_15 
REMARK    5  A    between atoms: C_15  and  C_17 
ROOT
ATOM      1  C   UNL d   1      26.471 -18.107   0.004  0.00  0.00     0.270 C 
ATOM      2  O   UNL d   1      26.772 -18.950   0.858  0.00  0.00    -0.266 OA
ATOM      3  N   UNL d   1      27.439 -17.465  -0.753  0.00  0.00    -0.263 N 
ATOM      4  H   UNL d   1      27.251 -16.771  -1.478  0.00  0.00     0.190 HD
ENDROOT
BRANCH   1   5
ATOM      5  C   UNL d   1      25.026 -17.731  -0.208  0.00  0.00     0.035 A 
ATOM      6  C   UNL d   1      24.703 -16.604  -0.981  0.00  0.00     0.017 A 
ATOM      7  C   UNL d   1      23.365 -16.293  -1.270  0.00  0.00     0.003 A 
ATOM      8  C   UNL d   1      22.329 -17.095  -0.778  0.00  0.00     0.029 A 
ATOM      9  C   UNL d   1      22.634 -18.227  -0.023  0.00  0.00     0.035 A 
ATOM     10  C   UNL d   1      23.974 -18.517   0.277  0.00  0.00     0.046 A 
BRANCH   9  11
ATOM     11  N   UNL d   1      21.606 -19.129   0.355  0.00  0.00    -0.327 N 
ATOM     12  C   UNL d   1      20.635 -19.572  -0.529  0.00  0.00     0.221 C 
ATOM     13  O   UNL d   1      20.656 -19.333  -1.736  0.00  0.00    -0.273 OA
ATOM     14  H   UNL d   1      21.638 -19.510   1.294  0.00  0.00     0.169 HD
BRANCH  12  15
ATOM     15  C   UNL d   1      19.530 -20.419   0.080  0.00  0.00     0.098 C 
ATOM     16  C   UNL d   1      19.388 -20.084   1.563  0.00  0.00     0.014 C 
ENDBRANCH  12  15
ENDBRANCH   9  11
ENDBRANCH   1   5
BRANCH   3  17
ATOM     17  N   UNL d   1      28.823 -17.754  -0.554  0.00  0.00    -0.265 N 
ATOM     18  C   UNL d   1      29.715 -17.229  -1.471  0.00  0.00     0.265 C 
ATOM     19  O   UNL d   1      29.283 -16.528  -2.397  0.00  0.00    -0.269 OA
ATOM     20  H   UNL d   1      29.052 -18.356   0.231  0.00  0.00     0.190 HD
BRANCH  18  21
ATOM     21  C   UNL d   1      31.217 -17.633  -1.399  0.00  0.00     0.215 C 
ATOM     22  C   UNL d   1      31.992 -18.241  -2.564  0.00  0.00     0.044 C 
ATOM     23  C   UNL d   1      33.010 -19.129  -1.863  0.00  0.00     0.029 C 
ATOM     24  C   UNL d   1      32.236 -19.636  -0.674  0.00  0.00     0.168 C 
ATOM     25  O   UNL d   1      31.355 -18.576  -0.306  0.00  0.00    -0.376 OA
ENDBRANCH  18  21
ENDBRANCH   3  17
TORSDOF 5
ENDMDL
MODEL 7
REMARK VINA RESULT:    -7.363      1.904      8.657
REMARK INTER + INTRA:         -11.053
REMARK INTER:                  -8.855
REMARK INTRA:                  -2.198
REMARK CONF_INDEPENDENT:        1.492
REMARK UNBOUND:                -2.198
REMARK  5 active torsions:
REMARK  status: ('A' for Active; 'I' for Inactive)
REMARK    1  A    between atoms: C_2  and  C_3 
REMARK       I    between atoms: C_3  and  N_5 
REMARK    2  A    between atoms: N_5  and  C_6 
REMARK    3  A    between atoms: C_10  and  C_11 
REMARK       I    between atoms: C_11  and  N_13 
REMARK    4  A    between atoms: N_13  and  N_14 
REMARK       I    between atoms: N_14  and  C_15 
REMARK    5  A    between atoms: C_15  and  C_17 
ROOT
ATOM      1  C   UNL d   1      24.830 -15.003  -2.740  0.00  0.00     0.270 C 
ATOM      2  O   UNL d   1      23.728 -14.451  -2.846  0.00  0.00    -0.266 OA
ATOM      3  N   UNL d   1      25.916 -14.604  -3.504  0.00  0.00    -0.263 N 
ATOM      4  H   UNL d   1      26.850 -15.012  -3.454  0.00  0.00     0.190 HD
ENDROOT
BRANCH   1   5
ATOM      5  C   UNL d   1      25.006 -16.160  -1.790  0.00  0.00     0.035 A 
ATOM      6  C   UNL d   1      26.290 -16.501  -1.333  0.00  0.00     0.017 A 
ATOM      7  C   UNL d   1      26.465 -17.511  -0.374  0.00  0.00     0.003 A 
ATOM      8  C   UNL d   1      25.361 -18.206   0.131  0.00  0.00     0.029 A 
ATOM      9  C   UNL d   1      24.078 -17.870  -0.300  0.00  0.00     0.035 A 
ATOM     10  C   UNL d   1      23.917 -16.872  -1.274  0.00  0.00     0.046 A 
BRANCH   9  11
ATOM     11  N   UNL d   1      22.943 -18.462   0.311  0.00  0.00    -0.327 N 
ATOM     12  C   UNL d   1      21.849 -18.907  -0.415  0.00  0.00     0.221 C 
ATOM     13  O   UNL d   1      21.822 -18.951  -1.645  0.00  0.00    -0.273 OA
ATOM     14  H   UNL d   1      22.979 -18.624   1.311  0.00  0.00     0.169 HD
BRANCH  12  15
ATOM     15  C   UNL d   1      20.664 -19.382   0.410  0.00  0.00     0.098 C 
ATOM     16  C   UNL d   1      19.565 -19.892  -0.521  0.00  0.00     0.014 C 
ENDBRANCH  12  15
ENDBRANCH   9  11
ENDBRANCH   1   5
BRANCH   3  17
ATOM     17  N   UNL d   1      25.784 -13.544  -4.452  0.00  0.00    -0.265 N 
ATOM     18  C   UNL d   1      26.911 -13.200  -5.174  0.00  0.00     0.265 C 
ATOM     19  O   UNL d   1      27.963 -13.829  -4.985  0.00  0.00    -0.269 OA
ATOM     20  H   UNL d   1      24.876 -13.093  -4.503  0.00  0.00     0.190 HD
BRANCH  18  21
ATOM     21  C   UNL d   1      26.875 -11.956  -6.109  0.00  0.00     0.215 C 
ATOM     22  C   UNL d   1      27.795 -10.748  -5.956  0.00  0.00     0.044 C 
ATOM     23  C   UNL d   1      26.934  -9.603  -6.471  0.00  0.00     0.029 C 
ATOM     24  C   UNL d   1      25.555 -10.000  -6.012  0.00  0.00     0.168 C 
ATOM     25  O   UNL d   1      25.526 -11.424  -6.063  0.00  0.00    -0.376 OA
ENDBRANCH  18  21
ENDBRANCH   3  17
TORSDOF 5
ENDMDL
MODEL 8
REMARK VINA RESULT:    -6.910      3.532      5.603
REMARK INTER + INTRA:         -10.628
REMARK INTER:                  -8.402
REMARK INTRA:                  -2.227
REMARK CONF_INDEPENDENT:        1.492
REMARK UNBOUND:                -2.227
REMARK  5 active torsions:
REMARK  status: ('A' for Active; 'I' for Inactive)
REMARK    1  A    between atoms: C_2  and  C_3 
REMARK       I    between atoms: C_3  and  N_5 
REMARK    2  A    between atoms: N_5  and  C_6 
REMARK    3  A    between atoms: C_10  and  C_11 
REMARK       I    between atoms: C_11  and  N_13 
REMARK    4  A    between atoms: N_13  and  N_14 
REMARK       I    between atoms: N_14  and  C_15 
REMARK    5  A    between atoms: C_15  and  C_17 
ROOT
ATOM      1  C   UNL d   1      25.508 -14.471  -4.091  0.00  0.00     0.270 C 
ATOM      2  O   UNL d   1      24.356 -14.070  -4.298  0.00  0.00    -0.266 OA
ATOM      3  N   UNL d   1      25.793 -15.360  -3.066  0.00  0.00    -0.263 N 
ATOM      4  H   UNL d   1      26.718 -15.733  -2.854  0.00  0.00     0.190 HD
ENDROOT
BRANCH   1   5
ATOM      5  C   UNL d   1      26.646 -13.964  -4.940  0.00  0.00     0.035 A 
ATOM      6  C   UNL d   1      26.974 -12.598  -4.927  0.00  0.00     0.017 A 
ATOM      7  C   UNL d   1      28.089 -12.123  -5.635  0.00  0.00     0.003 A 
ATOM      8  C   UNL d   1      28.884 -13.002  -6.377  0.00  0.00     0.029 A 
ATOM      9  C   UNL d   1      28.583 -14.364  -6.387  0.00  0.00     0.035 A 
ATOM     10  C   UNL d   1      27.453 -14.825  -5.693  0.00  0.00     0.046 A 
BRANCH   9  11
ATOM     11  N   UNL d   1      29.462 -15.284  -7.012  0.00  0.00    -0.327 N 
ATOM     12  C   UNL d   1      30.102 -16.299  -6.318  0.00  0.00     0.221 C 
ATOM     13  O   UNL d   1      29.863 -16.572  -5.142  0.00  0.00    -0.273 OA
ATOM     14  H   UNL d   1      29.561 -15.228  -8.020  0.00  0.00     0.169 HD
BRANCH  12  15
ATOM     15  C   UNL d   1      31.117 -17.101  -7.115  0.00  0.00     0.098 C 
ATOM     16  C   UNL d   1      30.780 -18.588  -7.024  0.00  0.00     0.014 C 
ENDBRANCH  12  15
ENDBRANCH   9  11
ENDBRANCH   1   5
BRANCH   3  17
ATOM     17  N   UNL d   1      24.754 -15.830  -2.206  0.00  0.00    -0.265 N 
ATOM     18  C   UNL d   1      25.089 -16.810  -1.290  0.00  0.00     0.265 C 
ATOM     19  O   UNL d   1      26.259 -17.216  -1.244  0.00  0.00    -0.269 OA
ATOM     20  H   UNL d   1      23.830 -15.433  -2.353  0.00  0.00     0.190 HD
BRANCH  18  21
ATOM     21  C   UNL d   1      23.972 -17.473  -0.431  0.00  0.00     0.215 C 
ATOM     22  C   UNL d   1      23.690 -18.972  -0.410  0.00  0.00     0.044 C 
ATOM     23  C   UNL d   1      22.193 -19.029  -0.146  0.00  0.00     0.029 C 
ATOM     24  C   UNL d   1      21.683 -17.826  -0.895  0.00  0.00     0.168 C 
ATOM     25  O   UNL d   1      22.717 -16.847  -0.804  0.00  0.00    -0.376 OA
ENDBRANCH  18  21
ENDBRANCH   3  17
TORSDOF 5
ENDMDL
MODEL 9
REMARK VINA RESULT:    -6.640      3.476      5.222
REMARK INTER + INTRA:         -10.325
REMARK INTER:                  -8.132
REMARK INTRA:                  -2.193
REMARK CONF_INDEPENDENT:        1.492
REMARK UNBOUND:                -2.193
REMARK  5 active torsions:
REMARK  status: ('A' for Active; 'I' for Inactive)
REMARK    1  A    between atoms: C_2  and  C_3 
REMARK       I    between atoms: C_3  and  N_5 
REMARK    2  A    between atoms: N_5  and  C_6 
REMARK    3  A    between atoms: C_10  and  C_11 
REMARK       I    between atoms: C_11  and  N_13 
REMARK    4  A    between atoms: N_13  and  N_14 
REMARK       I    between atoms: N_14  and  C_15 
REMARK    5  A    between atoms: C_15  and  C_17 
ROOT
ATOM      1  C   UNL d   1      26.228 -15.211  -4.112  0.00  0.00     0.270 C 
ATOM      2  O   UNL d   1      25.145 -14.766  -4.512  0.00  0.00    -0.266 OA
ATOM      3  N   UNL d   1      26.320 -15.950  -2.942  0.00  0.00    -0.263 N 
ATOM      4  H   UNL d   1      27.181 -16.351  -2.568  0.00  0.00     0.190 HD
ENDROOT
BRANCH   1   5
ATOM      5  C   UNL d   1      27.493 -14.923  -4.881  0.00  0.00     0.035 A 
ATOM      6  C   UNL d   1      28.706 -15.502  -4.475  0.00  0.00     0.017 A 
ATOM      7  C   UNL d   1      29.874 -15.325  -5.232  0.00  0.00     0.003 A 
ATOM      8  C   UNL d   1      29.850 -14.553  -6.400  0.00  0.00     0.029 A 
ATOM      9  C   UNL d   1      28.651 -13.985  -6.826  0.00  0.00     0.035 A 
ATOM     10  C   UNL d   1      27.493 -14.152  -6.049  0.00  0.00     0.046 A 
BRANCH   9  11
ATOM     11  N   UNL d   1      28.580 -13.327  -8.081  0.00  0.00    -0.327 N 
ATOM     12  C   UNL d   1      27.862 -12.157  -8.273  0.00  0.00     0.221 C 
ATOM     13  O   UNL d   1      27.340 -11.522  -7.358  0.00  0.00    -0.273 OA
ATOM     14  H   UNL d   1      29.141 -13.700  -8.838  0.00  0.00     0.169 HD
BRANCH  12  15
ATOM     15  C   UNL d   1      27.777 -11.668  -9.710  0.00  0.00     0.098 C 
ATOM     16  C   UNL d   1      26.448 -10.948  -9.928  0.00  0.00     0.014 C 
ENDBRANCH  12  15
ENDBRANCH   9  11
ENDBRANCH   1   5
BRANCH   3  17
ATOM     17  N   UNL d   1      25.156 -16.207  -2.155  0.00  0.00    -0.265 N 
ATOM     18  C   UNL d   1      25.305 -17.043  -1.065  0.00  0.00     0.265 C 
ATOM     19  O   UNL d   1      26.425 -17.509  -0.812  0.00  0.00    -0.269 OA
ATOM     20  H   UNL d   1      24.290 -15.783  -2.475  0.00  0.00     0.190 HD
BRANCH  18  21
ATOM     21  C   UNL d   1      24.048 -17.486  -0.259  0.00  0.00     0.215 C 
ATOM     22  C   UNL d   1      23.575 -18.932  -0.144  0.00  0.00     0.044 C 
ATOM     23  C   UNL d   1      22.067 -18.782  -0.010  0.00  0.00     0.029 C 
ATOM     24  C   UNL d   1      21.777 -17.598  -0.895  0.00  0.00     0.168 C 
ATOM     25  O   UNL d   1      22.917 -16.749  -0.790  0.00  0.00    -0.376 OA
ENDBRANCH  18  21
ENDBRANCH   3  17
TORSDOF 5
ENDMDL
