MODEL 1
REMARK VINA RESULT:    -8.891      0.000      0.000
REMARK INTER + INTRA:         -13.244
REMARK INTER:                 -11.278
REMARK INTRA:                  -1.967
REMARK CONF_INDEPENDENT:        2.386
REMARK UNBOUND:                -1.967
REMARK  8 active torsions:
REMARK  status: ('A' for Active; 'I' for Inactive)
REMARK    1  A    between atoms: C_2  and  O_3 
REMARK    2  A    between atoms: O_3  and  C_4 
REMARK    3  A    between atoms: C_7  and  C_8 
REMARK    4  A    between atoms: C_10  and  S_11 
REMARK    5  A    between atoms: S_11  and  C_12 
REMARK    6  A    between atoms: C_12  and  C_13 
REMARK       I    between atoms: C_13  and  N_15 
REMARK    7  A    between atoms: N_15  and  C_16 
REMARK    8  A    between atoms: C_21  and  C_22 
ROOT
ATOM      1  C   UNL d   1      25.393 -16.341  -0.853  0.00  0.00     0.164 A 
ATOM      2  N   UNL d   1      25.261 -15.181  -1.633  0.00  0.00    -0.202 NA
ATOM      3  C   UNL d   1      26.326 -14.426  -1.744  0.00  0.00     0.192 A 
ATOM      4  N   UNL d   1      27.522 -14.798  -1.178  0.00  0.00    -0.211 N 
ATOM      5  N   UNL d   1      28.701 -14.108  -1.054  0.00  0.00    -0.256 N 
ATOM      6  C   UNL d   1      29.479 -14.781  -0.120  0.00  0.00     0.264 C 
ATOM      7  O   UNL d   1      30.525 -14.432   0.373  0.00  0.00    -0.267 OA
ATOM      8  C   UNL d   1      28.750 -16.040   0.211  0.00  0.00     0.128 C 
ATOM      9  C   UNL d   1      27.557 -15.911  -0.389  0.00  0.00     0.159 A 
ATOM     10  N   UNL d   1      26.480 -16.736  -0.238  0.00  0.00    -0.209 NA
ATOM     11  H   UNL d   1      28.937 -13.274  -1.572  0.00  0.00     0.191 HD
ENDROOT
BRANCH   3  12
ATOM     12  S   UNL d   1      26.265 -12.907  -2.632  0.00  0.00    -0.081 SA
BRANCH  12  13
ATOM     13  C   UNL d   1      26.083 -13.343  -4.432  0.00  0.00     0.185 C 
BRANCH  13  14
ATOM     14  C   UNL d   1      26.793 -14.728  -4.728  0.00  0.00     0.231 C 
ATOM     15  O   UNL d   1      26.281 -15.575  -5.466  0.00  0.00    -0.272 OA
ATOM     16  N   UNL d   1      28.092 -14.899  -4.226  0.00  0.00    -0.326 N 
ATOM     17  H   UNL d   1      28.414 -14.367  -3.427  0.00  0.00     0.169 HD
BRANCH  16  18
ATOM     18  C   UNL d   1      29.065 -15.753  -4.846  0.00  0.00     0.041 A 
ATOM     19  C   UNL d   1      29.656 -16.763  -4.062  0.00  0.00     0.030 A 
ATOM     20  C   UNL d   1      30.608 -17.648  -4.600  0.00  0.00     0.002 A 
ATOM     21  C   UNL d   1      30.967 -17.557  -5.938  0.00  0.00     0.001 A 
ATOM     22  C   UNL d   1      30.440 -16.527  -6.710  0.00  0.00     0.009 A 
ATOM     23  C   UNL d   1      29.517 -15.590  -6.181  0.00  0.00    -0.032 A 
BRANCH  23  24
ATOM     24  C   UNL d   1      29.152 -14.480  -7.157  0.00  0.00     0.036 C 
ATOM     25  C   UNL d   1      29.284 -13.066  -6.668  0.00  0.00     0.010 C 
ENDBRANCH  23  24
ENDBRANCH  16  18
ENDBRANCH  13  14
ENDBRANCH  12  13
ENDBRANCH   3  12
BRANCH   1  26
ATOM     26  C   UNL d   1      24.155 -17.192  -0.712  0.00  0.00     0.012 A 
ATOM     27  C   UNL d   1      24.268 -18.575  -0.520  0.00  0.00     0.018 A 
ATOM     28  C   UNL d   1      23.125 -19.399  -0.563  0.00  0.00     0.037 A 
ATOM     29  C   UNL d   1      21.852 -18.854  -0.751  0.00  0.00     0.068 A 
ATOM     30  C   UNL d   1      21.735 -17.471  -0.895  0.00  0.00     0.037 A 
ATOM     31  C   UNL d   1      22.879 -16.642  -0.877  0.00  0.00     0.018 A 
BRANCH  29  32
ATOM     32  O   UNL d   1      20.797 -19.728  -0.668  0.00  0.00    -0.352 OA
BRANCH  32  33
ATOM     33  C   UNL d   1      19.725 -19.365   0.212  0.00  0.00     0.171 C 
ATOM     34  C   UNL d   1      19.146 -20.622   0.851  0.00  0.00     0.034 C 
ENDBRANCH  32  33
ENDBRANCH  29  32
ENDBRANCH   1  26
TORSDOF 8
ENDMDL
MODEL 2
REMARK VINA RESULT:    -8.754      0.573      1.736
REMARK INTER + INTRA:         -13.285
REMARK INTER:                 -11.140
REMARK INTRA:                  -2.144
REMARK CONF_INDEPENDENT:        2.386
REMARK UNBOUND:                -2.144
REMARK  8 active torsions:
REMARK  status: ('A' for Active; 'I' for Inactive)
REMARK    1  A    between atoms: C_2  and  O_3 
REMARK    2  A    between atoms: O_3  and  C_4 
REMARK    3  A    between atoms: C_7  and  C_8 
REMARK    4  A    between atoms: C_10  and  S_11 
REMARK    5  A    between atoms: S_11  and  C_12 
REMARK    6  A    between atoms: C_12  and  C_13 
REMARK       I    between atoms: C_13  and  N_15 
REMARK    7  A    between atoms: N_15  and  C_16 
REMARK    8  A    between atoms: C_21  and  C_22 
ROOT
ATOM      1  C   UNL d   1      25.398 -16.310  -0.868  0.00  0.00     0.164 A 
ATOM      2  N   UNL d   1      25.275 -15.183  -1.695  0.00  0.00    -0.202 NA
ATOM      3  C   UNL d   1      26.339 -14.429  -1.818  0.00  0.00     0.192 A 
ATOM      4  N   UNL d   1      27.527 -14.772  -1.219  0.00  0.00    -0.211 N 
ATOM      5  N   UNL d   1      28.702 -14.073  -1.103  0.00  0.00    -0.256 N 
ATOM      6  C   UNL d   1      29.466 -14.706  -0.131  0.00  0.00     0.264 C 
ATOM      7  O   UNL d   1      30.503 -14.334   0.365  0.00  0.00    -0.267 OA
ATOM      8  C   UNL d   1      28.737 -15.955   0.237  0.00  0.00     0.128 C 
ATOM      9  C   UNL d   1      27.553 -15.854  -0.387  0.00  0.00     0.159 A 
ATOM     10  N   UNL d   1      26.476 -16.677  -0.221  0.00  0.00    -0.209 NA
ATOM     11  H   UNL d   1      28.943 -13.259  -1.650  0.00  0.00     0.191 HD
ENDROOT
BRANCH   3  12
ATOM     12  S   UNL d   1      26.287 -12.946  -2.767  0.00  0.00    -0.081 SA
BRANCH  12  13
ATOM     13  C   UNL d   1      25.972 -13.445  -4.531  0.00  0.00     0.185 C 
BRANCH  13  14
ATOM     14  C   UNL d   1      26.775 -14.768  -4.871  0.00  0.00     0.231 C 
ATOM     15  O   UNL d   1      26.371 -15.575  -5.713  0.00  0.00    -0.272 OA
ATOM     16  N   UNL d   1      28.035 -14.921  -4.272  0.00  0.00    -0.326 N 
ATOM     17  H   UNL d   1      28.262 -14.442  -3.410  0.00  0.00     0.169 HD
BRANCH  16  18
ATOM     18  C   UNL d   1      29.100 -15.677  -4.869  0.00  0.00     0.041 A 
ATOM     19  C   UNL d   1      29.356 -15.491  -6.241  0.00  0.00     0.030 A 
ATOM     20  C   UNL d   1      30.390 -16.185  -6.895  0.00  0.00     0.002 A 
ATOM     21  C   UNL d   1      31.204 -17.057  -6.185  0.00  0.00     0.001 A 
ATOM     22  C   UNL d   1      30.925 -17.299  -4.844  0.00  0.00     0.009 A 
ATOM     23  C   UNL d   1      29.858 -16.652  -4.171  0.00  0.00    -0.032 A 
BRANCH  23  24
ATOM     24  C   UNL d   1      29.655 -17.141  -2.744  0.00  0.00     0.036 C 
ATOM     25  C   UNL d   1      30.884 -17.523  -1.969  0.00  0.00     0.010 C 
ENDBRANCH  23  24
ENDBRANCH  16  18
ENDBRANCH  13  14
ENDBRANCH  12  13
ENDBRANCH   3  12
BRANCH   1  26
ATOM     26  C   UNL d   1      24.161 -17.160  -0.713  0.00  0.00     0.012 A 
ATOM     27  C   UNL d   1      24.275 -18.540  -0.497  0.00  0.00     0.018 A 
ATOM     28  C   UNL d   1      23.134 -19.366  -0.526  0.00  0.00     0.037 A 
ATOM     29  C   UNL d   1      21.860 -18.826  -0.726  0.00  0.00     0.068 A 
ATOM     30  C   UNL d   1      21.742 -17.446  -0.895  0.00  0.00     0.037 A 
ATOM     31  C   UNL d   1      22.884 -16.615  -0.890  0.00  0.00     0.018 A 
BRANCH  29  32
ATOM     32  O   UNL d   1      20.806 -19.699  -0.629  0.00  0.00    -0.352 OA
BRANCH  32  33
ATOM     33  C   UNL d   1      20.309 -19.968   0.688  0.00  0.00     0.171 C 
ATOM     34  C   UNL d   1      18.981 -20.711   0.586  0.00  0.00     0.034 C 
ENDBRANCH  32  33
ENDBRANCH  29  32
ENDBRANCH   1  26
TORSDOF 8
ENDMDL
MODEL 3
REMARK VINA RESULT:    -8.224      1.992      3.809
REMARK INTER + INTRA:         -12.856
REMARK INTER:                 -10.611
REMARK INTRA:                  -2.245
REMARK CONF_INDEPENDENT:        2.386
REMARK UNBOUND:                -2.245
REMARK  8 active torsions:
REMARK  status: ('A' for Active; 'I' for Inactive)
REMARK    1  A    between atoms: C_2  and  O_3 
REMARK    2  A    between atoms: O_3  and  C_4 
REMARK    3  A    between atoms: C_7  and  C_8 
REMARK    4  A    between atoms: C_10  and  S_11 
REMARK    5  A    between atoms: S_11  and  C_12 
REMARK    6  A    between atoms: C_12  and  C_13 
REMARK       I    between atoms: C_13  and  N_15 
REMARK    7  A    between atoms: N_15  and  C_16 
REMARK    8  A    between atoms: C_21  and  C_22 
ROOT
ATOM      1  C   UNL d   1      25.648 -16.310  -2.033  0.00  0.00     0.164 A 
ATOM      2  N   UNL d   1      26.845 -16.115  -1.328  0.00  0.00    -0.202 NA
ATOM      3  C   UNL d   1      27.840 -15.589  -1.999  0.00  0.00     0.192 A 
ATOM      4  N   UNL d   1      27.685 -15.191  -3.306  0.00  0.00    -0.211 N 
ATOM      5  N   UNL d   1      28.610 -14.756  -4.220  0.00  0.00    -0.256 N 
ATOM      6  C   UNL d   1      28.010 -14.807  -5.472  0.00  0.00     0.264 C 
ATOM      7  O   UNL d   1      28.521 -14.638  -6.553  0.00  0.00    -0.267 OA
ATOM      8  C   UNL d   1      26.578 -15.159  -5.243  0.00  0.00     0.128 C 
ATOM      9  C   UNL d   1      26.507 -15.465  -3.939  0.00  0.00     0.159 A 
ATOM     10  N   UNL d   1      25.436 -16.009  -3.291  0.00  0.00    -0.209 NA
ATOM     11  H   UNL d   1      29.544 -14.447  -3.992  0.00  0.00     0.191 HD
ENDROOT
BRANCH   3  12
ATOM     12  S   UNL d   1      29.416 -15.365  -1.245  0.00  0.00    -0.081 SA
BRANCH  12  13
ATOM     13  C   UNL d   1      30.515 -16.725  -1.880  0.00  0.00     0.185 C 
BRANCH  13  14
ATOM     14  C   UNL d   1      30.613 -16.649  -3.460  0.00  0.00     0.231 C 
ATOM     15  O   UNL d   1      31.273 -15.774  -4.028  0.00  0.00    -0.272 OA
ATOM     16  N   UNL d   1      30.029 -17.698  -4.186  0.00  0.00    -0.326 N 
ATOM     17  H   UNL d   1      29.282 -18.253  -3.788  0.00  0.00     0.169 HD
BRANCH  16  18
ATOM     18  C   UNL d   1      30.497 -18.110  -5.480  0.00  0.00     0.041 A 
ATOM     19  C   UNL d   1      30.690 -17.119  -6.461  0.00  0.00     0.030 A 
ATOM     20  C   UNL d   1      31.158 -17.441  -7.748  0.00  0.00     0.002 A 
ATOM     21  C   UNL d   1      31.466 -18.756  -8.069  0.00  0.00     0.001 A 
ATOM     22  C   UNL d   1      31.222 -19.755  -7.133  0.00  0.00     0.009 A 
ATOM     23  C   UNL d   1      30.703 -19.466  -5.845  0.00  0.00    -0.032 A 
BRANCH  23  24
ATOM     24  C   UNL d   1      30.405 -20.707  -5.018  0.00  0.00     0.036 C 
ATOM     25  C   UNL d   1      31.155 -20.867  -3.725  0.00  0.00     0.010 C 
ENDBRANCH  23  24
ENDBRANCH  16  18
ENDBRANCH  13  14
ENDBRANCH  12  13
ENDBRANCH   3  12
BRANCH   1  26
ATOM     26  C   UNL d   1      24.514 -16.938  -1.260  0.00  0.00     0.012 A 
ATOM     27  C   UNL d   1      24.657 -18.220  -0.714  0.00  0.00     0.018 A 
ATOM     28  C   UNL d   1      23.551 -18.883  -0.145  0.00  0.00     0.037 A 
ATOM     29  C   UNL d   1      22.301 -18.262  -0.070  0.00  0.00     0.068 A 
ATOM     30  C   UNL d   1      22.171 -16.967  -0.571  0.00  0.00     0.037 A 
ATOM     31  C   UNL d   1      23.269 -16.306  -1.164  0.00  0.00     0.018 A 
BRANCH  29  32
ATOM     32  O   UNL d   1      21.319 -18.949   0.600  0.00  0.00    -0.352 OA
BRANCH  32  33
ATOM     33  C   UNL d   1      20.210 -19.415  -0.180  0.00  0.00     0.171 C 
ATOM     34  C   UNL d   1      19.416 -20.435   0.630  0.00  0.00     0.034 C 
ENDBRANCH  32  33
ENDBRANCH  29  32
ENDBRANCH   1  26
TORSDOF 8
ENDMDL
MODEL 4
REMARK VINA RESULT:    -8.054      2.028      3.335
REMARK INTER + INTRA:         -13.198
REMARK INTER:                 -10.440
REMARK INTRA:                  -2.757
REMARK CONF_INDEPENDENT:        2.386
REMARK UNBOUND:                -2.757
REMARK  8 active torsions:
REMARK  status: ('A' for Active; 'I' for Inactive)
REMARK    1  A    between atoms: C_2  and  O_3 
REMARK    2  A    between atoms: O_3  and  C_4 
REMARK    3  A    between atoms: C_7  and  C_8 
REMARK    4  A    between atoms: C_10  and  S_11 
REMARK    5  A    between atoms: S_11  and  C_12 
REMARK    6  A    between atoms: C_12  and  C_13 
REMARK       I    between atoms: C_13  and  N_15 
REMARK    7  A    between atoms: N_15  and  C_16 
REMARK    8  A    between atoms: C_21  and  C_22 
ROOT
ATOM      1  C   UNL d   1      26.451 -16.846  -0.138  0.00  0.00     0.164 A 
ATOM      2  N   UNL d   1      27.452 -17.634  -0.726  0.00  0.00    -0.202 NA
ATOM      3  C   UNL d   1      28.690 -17.266  -0.510  0.00  0.00     0.192 A 
ATOM      4  N   UNL d   1      28.982 -16.201   0.310  0.00  0.00    -0.211 N 
ATOM      5  N   UNL d   1      30.174 -15.570   0.559  0.00  0.00    -0.256 N 
ATOM      6  C   UNL d   1      29.880 -14.362   1.181  0.00  0.00     0.264 C 
ATOM      7  O   UNL d   1      30.632 -13.454   1.442  0.00  0.00    -0.267 OA
ATOM      8  C   UNL d   1      28.411 -14.365   1.443  0.00  0.00     0.128 C 
ATOM      9  C   UNL d   1      27.953 -15.451   0.801  0.00  0.00     0.159 A 
ATOM     10  N   UNL d   1      26.644 -15.788   0.610  0.00  0.00    -0.209 NA
ATOM     11  H   UNL d   1      31.083 -15.946   0.334  0.00  0.00     0.191 HD
ENDROOT
BRANCH   3  12
ATOM     12  S   UNL d   1      30.031 -18.129  -1.257  0.00  0.00    -0.081 SA
BRANCH  12  13
ATOM     13  C   UNL d   1      30.449 -17.222  -2.826  0.00  0.00     0.185 C 
BRANCH  13  14
ATOM     14  C   UNL d   1      29.609 -15.881  -2.916  0.00  0.00     0.231 C 
ATOM     15  O   UNL d   1      30.151 -14.786  -3.094  0.00  0.00    -0.272 OA
ATOM     16  N   UNL d   1      28.212 -16.004  -2.922  0.00  0.00    -0.326 N 
ATOM     17  H   UNL d   1      27.760 -16.815  -2.519  0.00  0.00     0.169 HD
BRANCH  16  18
ATOM     18  C   UNL d   1      27.344 -15.055  -3.562  0.00  0.00     0.041 A 
ATOM     19  C   UNL d   1      26.195 -14.634  -2.866  0.00  0.00     0.030 A 
ATOM     20  C   UNL d   1      25.304 -13.697  -3.420  0.00  0.00     0.002 A 
ATOM     21  C   UNL d   1      25.558 -13.145  -4.668  0.00  0.00     0.001 A 
ATOM     22  C   UNL d   1      26.655 -13.596  -5.395  0.00  0.00     0.009 A 
ATOM     23  C   UNL d   1      27.543 -14.576  -4.883  0.00  0.00    -0.032 A 
BRANCH  23  24
ATOM     24  C   UNL d   1      28.608 -15.010  -5.879  0.00  0.00     0.036 C 
ATOM     25  C   UNL d   1      28.905 -14.074  -7.017  0.00  0.00     0.010 C 
ENDBRANCH  23  24
ENDBRANCH  16  18
ENDBRANCH  13  14
ENDBRANCH  12  13
ENDBRANCH   3  12
BRANCH   1  26
ATOM     26  C   UNL d   1      25.027 -17.264  -0.411  0.00  0.00     0.012 A 
ATOM     27  C   UNL d   1      24.077 -16.315  -0.808  0.00  0.00     0.018 A 
ATOM     28  C   UNL d   1      22.713 -16.660  -0.895  0.00  0.00     0.037 A 
ATOM     29  C   UNL d   1      22.283 -17.964  -0.633  0.00  0.00     0.068 A 
ATOM     30  C   UNL d   1      23.237 -18.921  -0.284  0.00  0.00     0.037 A 
ATOM     31  C   UNL d   1      24.601 -18.576  -0.172  0.00  0.00     0.018 A 
BRANCH  29  32
ATOM     32  O   UNL d   1      20.953 -18.223  -0.852  0.00  0.00    -0.352 OA
BRANCH  32  33
ATOM     33  C   UNL d   1      20.528 -19.584  -0.713  0.00  0.00     0.171 C 
ATOM     34  C   UNL d   1      19.491 -19.680   0.400  0.00  0.00     0.034 C 
ENDBRANCH  32  33
ENDBRANCH  29  32
ENDBRANCH   1  26
TORSDOF 8
ENDMDL
MODEL 5
REMARK VINA RESULT:    -8.050      2.166      3.130
REMARK INTER + INTRA:         -13.550
REMARK INTER:                 -10.436
REMARK INTRA:                  -3.114
REMARK CONF_INDEPENDENT:        2.386
REMARK UNBOUND:                -3.114
REMARK  8 active torsions:
REMARK  status: ('A' for Active; 'I' for Inactive)
REMARK    1  A    between atoms: C_2  and  O_3 
REMARK    2  A    between atoms: O_3  and  C_4 
REMARK    3  A    between atoms: C_7  and  C_8 
REMARK    4  A    between atoms: C_10  and  S_11 
REMARK    5  A    between atoms: S_11  and  C_12 
REMARK    6  A    between atoms: C_12  and  C_13 
REMARK       I    between atoms: C_13  and  N_15 
REMARK    7  A    between atoms: N_15  and  C_16 
REMARK    8  A    between atoms: C_21  and  C_22 
ROOT
ATOM      1  C   UNL d   1      26.105 -16.846  -0.388  0.00  0.00     0.164 A 
ATOM      2  N   UNL d   1      26.281 -15.645   0.316  0.00  0.00    -0.202 NA
ATOM      3  C   UNL d   1      27.516 -15.270   0.536  0.00  0.00     0.192 A 
ATOM      4  N   UNL d   1      28.576 -15.989   0.038  0.00  0.00    -0.211 N 
ATOM      5  N   UNL d   1      29.924 -15.859   0.259  0.00  0.00    -0.256 N 
ATOM      6  C   UNL d   1      30.533 -17.021  -0.197  0.00  0.00     0.264 C 
ATOM      7  O   UNL d   1      31.683 -17.364  -0.065  0.00  0.00    -0.267 OA
ATOM      8  C   UNL d   1      29.468 -17.823  -0.869  0.00  0.00     0.128 C 
ATOM      9  C   UNL d   1      28.327 -17.175  -0.590  0.00  0.00     0.159 A 
ATOM     10  N   UNL d   1      27.061 -17.615  -0.849  0.00  0.00    -0.209 NA
ATOM     11  H   UNL d   1      30.364 -15.047   0.668  0.00  0.00     0.191 HD
ENDROOT
BRANCH   3  12
ATOM     12  S   UNL d   1      27.865 -13.821   1.474  0.00  0.00    -0.081 SA
BRANCH  12  13
ATOM     13  C   UNL d   1      27.104 -12.390   0.559  0.00  0.00     0.185 C 
BRANCH  13  14
ATOM     14  C   UNL d   1      27.341 -12.556  -0.999  0.00  0.00     0.231 C 
ATOM     15  O   UNL d   1      28.091 -11.803  -1.626  0.00  0.00    -0.272 OA
ATOM     16  N   UNL d   1      26.769 -13.680  -1.615  0.00  0.00    -0.326 N 
ATOM     17  H   UNL d   1      25.962 -14.140  -1.211  0.00  0.00     0.169 HD
BRANCH  16  18
ATOM     18  C   UNL d   1      27.323 -14.299  -2.786  0.00  0.00     0.041 A 
ATOM     19  C   UNL d   1      28.689 -14.643  -2.769  0.00  0.00     0.030 A 
ATOM     20  C   UNL d   1      29.302 -15.265  -3.872  0.00  0.00     0.002 A 
ATOM     21  C   UNL d   1      28.557 -15.578  -5.001  0.00  0.00     0.001 A 
ATOM     22  C   UNL d   1      27.223 -15.190  -5.058  0.00  0.00     0.009 A 
ATOM     23  C   UNL d   1      26.590 -14.517  -3.981  0.00  0.00    -0.032 A 
BRANCH  23  24
ATOM     24  C   UNL d   1      25.165 -14.082  -4.290  0.00  0.00     0.036 C 
ATOM     25  C   UNL d   1      24.188 -14.075  -3.148  0.00  0.00     0.010 C 
ENDBRANCH  23  24
ENDBRANCH  16  18
ENDBRANCH  13  14
ENDBRANCH  12  13
ENDBRANCH   3  12
BRANCH   1  26
ATOM     26  C   UNL d   1      24.679 -17.282  -0.616  0.00  0.00     0.012 A 
ATOM     27  C   UNL d   1      23.674 -16.328  -0.820  0.00  0.00     0.018 A 
ATOM     28  C   UNL d   1      22.319 -16.713  -0.858  0.00  0.00     0.037 A 
ATOM     29  C   UNL d   1      21.949 -18.057  -0.740  0.00  0.00     0.068 A 
ATOM     30  C   UNL d   1      22.955 -19.011  -0.584  0.00  0.00     0.037 A 
ATOM     31  C   UNL d   1      24.313 -18.629  -0.521  0.00  0.00     0.018 A 
BRANCH  29  32
ATOM     32  O   UNL d   1      20.615 -18.338  -0.899  0.00  0.00    -0.352 OA
BRANCH  32  33
ATOM     33  C   UNL d   1      20.191 -19.665  -0.564  0.00  0.00     0.171 C 
ATOM     34  C   UNL d   1      19.642 -19.677   0.858  0.00  0.00     0.034 C 
ENDBRANCH  32  33
ENDBRANCH  29  32
ENDBRANCH   1  26
TORSDOF 8
ENDMDL
MODEL 6
REMARK VINA RESULT:    -7.984      2.224      3.495
REMARK INTER + INTRA:         -13.526
REMARK INTER:                 -10.370
REMARK INTRA:                  -3.156
REMARK CONF_INDEPENDENT:        2.386
REMARK UNBOUND:                -3.156
REMARK  8 active torsions:
REMARK  status: ('A' for Active; 'I' for Inactive)
REMARK    1  A    between atoms: C_2  and  O_3 
REMARK    2  A    between atoms: O_3  and  C_4 
REMARK    3  A    between atoms: C_7  and  C_8 
REMARK    4  A    between atoms: C_10  and  S_11 
REMARK    5  A    between atoms: S_11  and  C_12 
REMARK    6  A    between atoms: C_12  and  C_13 
REMARK       I    between atoms: C_13  and  N_15 
REMARK    7  A    between atoms: N_15  and  C_16 
REMARK    8  A    between atoms: C_21  and  C_22 
ROOT
ATOM      1  C   UNL d   1      26.165 -16.838  -0.363  0.00  0.00     0.164 A 
ATOM      2  N   UNL d   1      26.336 -15.630   0.330  0.00  0.00    -0.202 NA
ATOM      3  C   UNL d   1      27.571 -15.253   0.553  0.00  0.00     0.192 A 
ATOM      4  N   UNL d   1      28.634 -15.977   0.068  0.00  0.00    -0.211 N 
ATOM      5  N   UNL d   1      29.980 -15.844   0.296  0.00  0.00    -0.256 N 
ATOM      6  C   UNL d   1      30.591 -17.012  -0.145  0.00  0.00     0.264 C 
ATOM      7  O   UNL d   1      31.741 -17.353  -0.003  0.00  0.00    -0.267 OA
ATOM      8  C   UNL d   1      29.531 -17.820  -0.815  0.00  0.00     0.128 C 
ATOM      9  C   UNL d   1      28.387 -17.169  -0.549  0.00  0.00     0.159 A 
ATOM     10  N   UNL d   1      27.123 -17.611  -0.811  0.00  0.00    -0.209 NA
ATOM     11  H   UNL d   1      30.418 -15.029   0.699  0.00  0.00     0.191 HD
ENDROOT
BRANCH   3  12
ATOM     12  S   UNL d   1      27.914 -13.794   1.478  0.00  0.00    -0.081 SA
BRANCH  12  13
ATOM     13  C   UNL d   1      28.869 -12.657   0.358  0.00  0.00     0.185 C 
BRANCH  13  14
ATOM     14  C   UNL d   1      28.169 -12.582  -1.062  0.00  0.00     0.231 C 
ATOM     15  O   UNL d   1      28.687 -11.986  -2.011  0.00  0.00    -0.272 OA
ATOM     16  N   UNL d   1      26.998 -13.335  -1.235  0.00  0.00    -0.326 N 
ATOM     17  H   UNL d   1      26.425 -13.596  -0.443  0.00  0.00     0.169 HD
BRANCH  16  18
ATOM     18  C   UNL d   1      26.582 -13.855  -2.508  0.00  0.00     0.041 A 
ATOM     19  C   UNL d   1      25.258 -13.611  -2.923  0.00  0.00     0.030 A 
ATOM     20  C   UNL d   1      24.780 -14.075  -4.161  0.00  0.00     0.002 A 
ATOM     21  C   UNL d   1      25.623 -14.768  -5.020  0.00  0.00     0.001 A 
ATOM     22  C   UNL d   1      26.913 -15.072  -4.600  0.00  0.00     0.009 A 
ATOM     23  C   UNL d   1      27.407 -14.660  -3.335  0.00  0.00    -0.032 A 
BRANCH  23  24
ATOM     24  C   UNL d   1      28.800 -15.190  -3.025  0.00  0.00     0.036 C 
ATOM     25  C   UNL d   1      29.335 -16.275  -3.917  0.00  0.00     0.010 C 
ENDBRANCH  23  24
ENDBRANCH  16  18
ENDBRANCH  13  14
ENDBRANCH  12  13
ENDBRANCH   3  12
BRANCH   1  26
ATOM     26  C   UNL d   1      24.740 -17.276  -0.596  0.00  0.00     0.012 A 
ATOM     27  C   UNL d   1      23.740 -16.326  -0.841  0.00  0.00     0.018 A 
ATOM     28  C   UNL d   1      22.385 -16.707  -0.884  0.00  0.00     0.037 A 
ATOM     29  C   UNL d   1      22.009 -18.045  -0.729  0.00  0.00     0.068 A 
ATOM     30  C   UNL d   1      23.009 -18.998  -0.531  0.00  0.00     0.037 A 
ATOM     31  C   UNL d   1      24.367 -18.618  -0.463  0.00  0.00     0.018 A 
BRANCH  29  32
ATOM     32  O   UNL d   1      20.676 -18.327  -0.895  0.00  0.00    -0.352 OA
BRANCH  32  33
ATOM     33  C   UNL d   1      20.263 -19.674  -0.634  0.00  0.00     0.171 C 
ATOM     34  C   UNL d   1      19.324 -19.692   0.567  0.00  0.00     0.034 C 
ENDBRANCH  32  33
ENDBRANCH  29  32
ENDBRANCH   1  26
TORSDOF 8
ENDMDL
MODEL 7
REMARK VINA RESULT:    -7.445      2.385      3.774
REMARK INTER + INTRA:         -12.821
REMARK INTER:                  -9.831
REMARK INTRA:                  -2.990
REMARK CONF_INDEPENDENT:        2.386
REMARK UNBOUND:                -2.990
REMARK  8 active torsions:
REMARK  status: ('A' for Active; 'I' for Inactive)
REMARK    1  A    between atoms: C_2  and  O_3 
REMARK    2  A    between atoms: O_3  and  C_4 
REMARK    3  A    between atoms: C_7  and  C_8 
REMARK    4  A    between atoms: C_10  and  S_11 
REMARK    5  A    between atoms: S_11  and  C_12 
REMARK    6  A    between atoms: C_12  and  C_13 
REMARK       I    between atoms: C_13  and  N_15 
REMARK    7  A    between atoms: N_15  and  C_16 
REMARK    8  A    between atoms: C_21  and  C_22 
ROOT
ATOM      1  C   UNL d   1      26.530 -16.802  -0.089  0.00  0.00     0.164 A 
ATOM      2  N   UNL d   1      27.525 -17.501  -0.789  0.00  0.00    -0.202 NA
ATOM      3  C   UNL d   1      28.764 -17.145  -0.556  0.00  0.00     0.192 A 
ATOM      4  N   UNL d   1      29.064 -16.183   0.379  0.00  0.00    -0.211 N 
ATOM      5  N   UNL d   1      30.255 -15.571   0.677  0.00  0.00    -0.256 N 
ATOM      6  C   UNL d   1      29.963 -14.450   1.445  0.00  0.00     0.264 C 
ATOM      7  O   UNL d   1      30.711 -13.570   1.798  0.00  0.00    -0.267 OA
ATOM      8  C   UNL d   1      28.500 -14.503   1.736  0.00  0.00     0.128 C 
ATOM      9  C   UNL d   1      28.038 -15.510   0.979  0.00  0.00     0.159 A 
ATOM     10  N   UNL d   1      26.729 -15.839   0.776  0.00  0.00    -0.209 NA
ATOM     11  H   UNL d   1      31.162 -15.906   0.389  0.00  0.00     0.191 HD
ENDROOT
BRANCH   3  12
ATOM     12  S   UNL d   1      30.096 -17.896  -1.430  0.00  0.00    -0.081 SA
BRANCH  12  13
ATOM     13  C   UNL d   1      30.175 -17.078  -3.099  0.00  0.00     0.185 C 
BRANCH  13  14
ATOM     14  C   UNL d   1      29.407 -15.692  -3.060  0.00  0.00     0.231 C 
ATOM     15  O   UNL d   1      29.951 -14.639  -3.404  0.00  0.00    -0.272 OA
ATOM     16  N   UNL d   1      28.040 -15.730  -2.747  0.00  0.00    -0.326 N 
ATOM     17  H   UNL d   1      27.649 -16.499  -2.217  0.00  0.00     0.169 HD
BRANCH  16  18
ATOM     18  C   UNL d   1      27.101 -14.751  -3.219  0.00  0.00     0.041 A 
ATOM     19  C   UNL d   1      26.124 -15.164  -4.146  0.00  0.00     0.030 A 
ATOM     20  C   UNL d   1      25.162 -14.267  -4.645  0.00  0.00     0.002 A 
ATOM     21  C   UNL d   1      25.141 -12.950  -4.207  0.00  0.00     0.001 A 
ATOM     22  C   UNL d   1      26.135 -12.511  -3.340  0.00  0.00     0.009 A 
ATOM     23  C   UNL d   1      27.149 -13.379  -2.859  0.00  0.00    -0.032 A 
BRANCH  23  24
ATOM     24  C   UNL d   1      28.201 -12.676  -2.014  0.00  0.00     0.036 C 
ATOM     25  C   UNL d   1      27.810 -12.286  -0.616  0.00  0.00     0.010 C 
ENDBRANCH  23  24
ENDBRANCH  16  18
ENDBRANCH  13  14
ENDBRANCH  12  13
ENDBRANCH   3  12
BRANCH   1  26
ATOM     26  C   UNL d   1      25.105 -17.202  -0.380  0.00  0.00     0.012 A 
ATOM     27  C   UNL d   1      24.171 -16.241  -0.790  0.00  0.00     0.018 A 
ATOM     28  C   UNL d   1      22.805 -16.569  -0.894  0.00  0.00     0.037 A 
ATOM     29  C   UNL d   1      22.355 -17.867  -0.637  0.00  0.00     0.068 A 
ATOM     30  C   UNL d   1      23.292 -18.836  -0.274  0.00  0.00     0.037 A 
ATOM     31  C   UNL d   1      24.660 -18.508  -0.145  0.00  0.00     0.018 A 
BRANCH  29  32
ATOM     32  O   UNL d   1      21.025 -18.109  -0.872  0.00  0.00    -0.352 OA
BRANCH  32  33
ATOM     33  C   UNL d   1      20.612 -19.482  -0.896  0.00  0.00     0.171 C 
ATOM     34  C   UNL d   1      19.528 -19.702   0.154  0.00  0.00     0.034 C 
ENDBRANCH  32  33
ENDBRANCH  29  32
ENDBRANCH   1  26
TORSDOF 8
ENDMDL
MODEL 8
REMARK VINA RESULT:    -7.132      1.909      3.635
REMARK INTER + INTRA:         -12.477
REMARK INTER:                  -9.519
REMARK INTRA:                  -2.958
REMARK CONF_INDEPENDENT:        2.386
REMARK UNBOUND:                -2.958
REMARK  8 active torsions:
REMARK  status: ('A' for Active; 'I' for Inactive)
REMARK    1  A    between atoms: C_2  and  O_3 
REMARK    2  A    between atoms: O_3  and  C_4 
REMARK    3  A    between atoms: C_7  and  C_8 
REMARK    4  A    between atoms: C_10  and  S_11 
REMARK    5  A    between atoms: S_11  and  C_12 
REMARK    6  A    between atoms: C_12  and  C_13 
REMARK       I    between atoms: C_13  and  N_15 
REMARK    7  A    between atoms: N_15  and  C_16 
REMARK    8  A    between atoms: C_21  and  C_22 
ROOT
ATOM      1  C   UNL d   1      26.179 -15.896  -0.802  0.00  0.00     0.164 A 
ATOM      2  N   UNL d   1      27.280 -16.453  -1.469  0.00  0.00    -0.202 NA
ATOM      3  C   UNL d   1      28.319 -15.673  -1.635  0.00  0.00     0.192 A 
ATOM      4  N   UNL d   1      28.343 -14.400  -1.118  0.00  0.00    -0.211 N 
ATOM      5  N   UNL d   1      29.251 -13.386  -1.288  0.00  0.00    -0.256 N 
ATOM      6  C   UNL d   1      28.652 -12.215  -0.839  0.00  0.00     0.264 C 
ATOM      7  O   UNL d   1      29.059 -11.082  -0.938  0.00  0.00    -0.267 OA
ATOM      8  C   UNL d   1      27.351 -12.611  -0.225  0.00  0.00     0.128 C 
ATOM      9  C   UNL d   1      27.213 -13.911  -0.529  0.00  0.00     0.159 A 
ATOM     10  N   UNL d   1      26.102 -14.677  -0.327  0.00  0.00    -0.209 NA
ATOM     11  H   UNL d   1      30.182 -13.503  -1.660  0.00  0.00     0.191 HD
ENDROOT
BRANCH   3  12
ATOM     12  S   UNL d   1      29.733 -16.233  -2.524  0.00  0.00    -0.081 SA
BRANCH  12  13
ATOM     13  C   UNL d   1      29.190 -16.508  -4.282  0.00  0.00     0.185 C 
BRANCH  13  14
ATOM     14  C   UNL d   1      28.517 -15.193  -4.853  0.00  0.00     0.231 C 
ATOM     15  O   UNL d   1      27.657 -15.234  -5.737  0.00  0.00    -0.272 OA
ATOM     16  N   UNL d   1      28.842 -13.984  -4.219  0.00  0.00    -0.326 N 
ATOM     17  H   UNL d   1      29.708 -13.883  -3.704  0.00  0.00     0.169 HD
BRANCH  16  18
ATOM     18  C   UNL d   1      27.953 -12.857  -4.179  0.00  0.00     0.041 A 
ATOM     19  C   UNL d   1      28.512 -11.568  -4.277  0.00  0.00     0.030 A 
ATOM     20  C   UNL d   1      27.707 -10.415  -4.259  0.00  0.00     0.002 A 
ATOM     21  C   UNL d   1      26.326 -10.530  -4.169  0.00  0.00     0.001 A 
ATOM     22  C   UNL d   1      25.762 -11.791  -4.009  0.00  0.00     0.009 A 
ATOM     23  C   UNL d   1      26.553 -12.967  -3.973  0.00  0.00    -0.032 A 
BRANCH  23  24
ATOM     24  C   UNL d   1      25.754 -14.228  -3.677  0.00  0.00     0.036 C 
ATOM     25  C   UNL d   1      24.268 -14.074  -3.509  0.00  0.00     0.010 C 
ENDBRANCH  23  24
ENDBRANCH  16  18
ENDBRANCH  13  14
ENDBRANCH  12  13
ENDBRANCH   3  12
BRANCH   1  26
ATOM     26  C   UNL d   1      24.977 -16.793  -0.636  0.00  0.00     0.012 A 
ATOM     27  C   UNL d   1      25.138 -18.113  -0.194  0.00  0.00     0.018 A 
ATOM     28  C   UNL d   1      24.050 -19.009  -0.204  0.00  0.00     0.037 A 
ATOM     29  C   UNL d   1      22.778 -18.592  -0.609  0.00  0.00     0.068 A 
ATOM     30  C   UNL d   1      22.609 -17.264  -1.005  0.00  0.00     0.037 A 
ATOM     31  C   UNL d   1      23.700 -16.368  -1.020  0.00  0.00     0.018 A 
BRANCH  29  32
ATOM     32  O   UNL d   1      21.766 -19.509  -0.478  0.00  0.00    -0.352 OA
BRANCH  32  33
ATOM     33  C   UNL d   1      20.869 -19.328   0.625  0.00  0.00     0.171 C 
ATOM     34  C   UNL d   1      19.595 -20.128   0.378  0.00  0.00     0.034 C 
ENDBRANCH  32  33
ENDBRANCH  29  32
ENDBRANCH   1  26
TORSDOF 8
ENDMDL
MODEL 9
REMARK VINA RESULT:    -7.015      2.239      4.859
REMARK INTER + INTRA:         -12.434
REMARK INTER:                  -9.402
REMARK INTRA:                  -3.033
REMARK CONF_INDEPENDENT:        2.386
REMARK UNBOUND:                -3.033
REMARK  8 active torsions:
REMARK  status: ('A' for Active; 'I' for Inactive)
REMARK    1  A    between atoms: C_2  and  O_3 
REMARK    2  A    between atoms: O_3  and  C_4 
REMARK    3  A    between atoms: C_7  and  C_8 
REMARK    4  A    between atoms: C_10  and  S_11 
REMARK    5  A    between atoms: S_11  and  C_12 
REMARK    6  A    between atoms: C_12  and  C_13 
REMARK       I    between atoms: C_13  and  N_15 
REMARK    7  A    between atoms: N_15  and  C_16 
REMARK    8  A    between atoms: C_21  and  C_22 
ROOT
ATOM      1  C   UNL d   1      25.584 -16.037  -2.245  0.00  0.00     0.164 A 
ATOM      2  N   UNL d   1      25.220 -14.822  -2.846  0.00  0.00    -0.202 NA
ATOM      3  C   UNL d   1      26.141 -14.220  -3.556  0.00  0.00     0.192 A 
ATOM      4  N   UNL d   1      27.375 -14.794  -3.752  0.00  0.00    -0.211 N 
ATOM      5  N   UNL d   1      28.511 -14.287  -4.331  0.00  0.00    -0.256 N 
ATOM      6  C   UNL d   1      29.563 -15.124  -3.979  0.00  0.00     0.264 C 
ATOM      7  O   UNL d   1      30.744 -14.960  -4.168  0.00  0.00    -0.267 OA
ATOM      8  C   UNL d   1      28.960 -16.286  -3.262  0.00  0.00     0.128 C 
ATOM      9  C   UNL d   1      27.673 -15.950  -3.090  0.00  0.00     0.159 A 
ATOM     10  N   UNL d   1      26.753 -16.622  -2.339  0.00  0.00    -0.209 NA
ATOM     11  H   UNL d   1      28.542 -13.463  -4.913  0.00  0.00     0.191 HD
ENDROOT
BRANCH   3  12
ATOM     12  S   UNL d   1      25.828 -12.653  -4.296  0.00  0.00    -0.081 SA
BRANCH  12  13
ATOM     13  C   UNL d   1      26.195 -11.365  -3.006  0.00  0.00     0.185 C 
BRANCH  13  14
ATOM     14  C   UNL d   1      27.077 -11.993  -1.849  0.00  0.00     0.231 C 
ATOM     15  O   UNL d   1      28.239 -11.630  -1.648  0.00  0.00    -0.272 OA
ATOM     16  N   UNL d   1      26.439 -12.885  -0.974  0.00  0.00    -0.326 N 
ATOM     17  H   UNL d   1      25.610 -13.391  -1.260  0.00  0.00     0.169 HD
BRANCH  16  18
ATOM     18  C   UNL d   1      26.850 -13.074   0.389  0.00  0.00     0.041 A 
ATOM     19  C   UNL d   1      26.703 -11.995   1.282  0.00  0.00     0.030 A 
ATOM     20  C   UNL d   1      27.070 -12.107   2.635  0.00  0.00     0.002 A 
ATOM     21  C   UNL d   1      27.566 -13.307   3.127  0.00  0.00     0.001 A 
ATOM     22  C   UNL d   1      27.776 -14.362   2.246  0.00  0.00     0.009 A 
ATOM     23  C   UNL d   1      27.462 -14.262   0.867  0.00  0.00    -0.032 A 
BRANCH  23  24
ATOM     24  C   UNL d   1      27.872 -15.486   0.060  0.00  0.00     0.036 C 
ATOM     25  C   UNL d   1      27.469 -16.829   0.600  0.00  0.00     0.010 C 
ENDBRANCH  23  24
ENDBRANCH  16  18
ENDBRANCH  13  14
ENDBRANCH  12  13
ENDBRANCH   3  12
BRANCH   1  26
ATOM     26  C   UNL d   1      24.524 -16.711  -1.410  0.00  0.00     0.012 A 
ATOM     27  C   UNL d   1      24.730 -18.008  -0.921  0.00  0.00     0.018 A 
ATOM     28  C   UNL d   1      23.682 -18.710  -0.292  0.00  0.00     0.037 A 
ATOM     29  C   UNL d   1      22.431 -18.117  -0.101  0.00  0.00     0.068 A 
ATOM     30  C   UNL d   1      22.241 -16.808  -0.546  0.00  0.00     0.037 A 
ATOM     31  C   UNL d   1      23.280 -16.107  -1.198  0.00  0.00     0.018 A 
BRANCH  29  32
ATOM     32  O   UNL d   1      21.515 -18.843   0.617  0.00  0.00    -0.352 OA
BRANCH  32  33
ATOM     33  C   UNL d   1      20.697 -19.761  -0.120  0.00  0.00     0.171 C 
ATOM     34  C   UNL d   1      19.638 -18.984  -0.895  0.00  0.00     0.034 C 
ENDBRANCH  32  33
ENDBRANCH  29  32
ENDBRANCH   1  26
TORSDOF 8
ENDMDL
