MODEL 1
REMARK VINA RESULT:    -9.111      0.000      0.000
REMARK INTER + INTRA:         -13.845
REMARK INTER:                 -12.690
REMARK INTRA:                  -1.155
REMARK CONF_INDEPENDENT:        3.580
REMARK UNBOUND:                -1.155
REMARK  12 active torsions:
REMARK  status: ('A' for Active; 'I' for Inactive)
REMARK    1  A    between atoms: C_2  and  N_3 
REMARK    2  A    between atoms: N_3  and  C_4 
REMARK    3  A    between atoms: N_3  and  C_6 
REMARK    4  A    between atoms: C_6  and  C_7 
REMARK    5  A    between atoms: C_7  and  N_8 
REMARK       I    between atoms: N_8  and  C_9 
REMARK    6  A    between atoms: C_9  and  C_11 
REMARK    7  A    between atoms: C_14  and  N_15 
REMARK    8  A    between atoms: N_15  and  C_16 
REMARK    9  A    between atoms: C_16  and  N_18 
REMARK       I    between atoms: N_18  and  C_19 
REMARK   10  A    between atoms: C_19  and  C_21 
REMARK   11  A    between atoms: C_22  and  C_23 
REMARK   12  A    between atoms: C_27  and  N_28 
ROOT
ATOM      1  N   UNL d   1      27.101 -11.904  -6.182  0.00  0.00    -0.333 N 
ATOM      2  H   UNL d   1      27.274 -11.957  -7.183  0.00  0.00     0.168 HD
ENDROOT
BRANCH   1   3
ATOM      3  C   UNL d   1      26.348 -10.706  -5.766  0.00  0.00     0.034 A 
ATOM      4  C   UNL d   1      26.184 -10.306  -4.429  0.00  0.00     0.030 A 
ATOM      5  C   UNL d   1      25.337  -9.196  -4.093  0.00  0.00     0.019 A 
ATOM      6  C   UNL d   1      24.681  -8.455  -5.087  0.00  0.00     0.032 A 
ATOM      7  C   UNL d   1      24.875  -8.806  -6.396  0.00  0.00     0.019 A 
ATOM      8  C   UNL d   1      25.720  -9.863  -6.686  0.00  0.00     0.030 A 
BRANCH   6   9
ATOM      9  C   UNL d   1      23.931  -7.200  -4.836  0.00  0.00     0.251 C 
ATOM     10  N   UNL d   1      22.570  -7.230  -5.143  0.00  0.00    -0.355 N 
ATOM     11  H   UNL d   1      22.138  -8.113  -5.392  0.00  0.00     0.162 HD
ATOM     12  O   UNL d   1      24.493  -6.205  -4.428  0.00  0.00    -0.268 OA
BRANCH  10  13
ATOM     13  C   UNL d   1      21.781  -6.041  -4.914  0.00  0.00     0.150 C 
BRANCH  13  14
ATOM     14  C   UNL d   1      21.259  -5.378  -6.197  0.00  0.00     0.254 C 
BRANCH  14  15
ATOM     15  N   UNL d   1      20.646  -6.385  -7.195  0.00  0.00    -0.070 N 
ATOM     16  H   UNL d   1      20.926  -7.325  -6.878  0.00  0.00     0.279 HD
BRANCH  15  17
ATOM     17  C   UNL d   1      19.126  -6.288  -7.095  0.00  0.00     0.230 C 
ATOM     18  C   UNL d   1      18.404  -7.565  -7.478  0.00  0.00     0.034 C 
ENDBRANCH  15  17
BRANCH  15  19
ATOM     19  C   UNL d   1      21.215  -6.150  -8.588  0.00  0.00     0.230 C 
ATOM     20  C   UNL d   1      20.278  -5.438  -9.537  0.00  0.00     0.034 C 
ENDBRANCH  15  19
ENDBRANCH  14  15
ENDBRANCH  13  14
ENDBRANCH  10  13
ENDBRANCH   6   9
ENDBRANCH   1   3
BRANCH   1  21
ATOM     21  C   UNL d   1      27.697 -12.880  -5.313  0.00  0.00     0.179 C 
ATOM     22  S   UNL d   1      29.297 -13.428  -5.419  0.00  0.00    -0.040 SA
BRANCH  21  23
ATOM     23  N   UNL d   1      26.861 -13.428  -4.303  0.00  0.00    -0.300 N 
ATOM     24  C   UNL d   1      26.381 -14.757  -4.356  0.00  0.00     0.247 C 
ATOM     25  O   UNL d   1      26.643 -15.582  -5.230  0.00  0.00    -0.268 OA
ATOM     26  H   UNL d   1      26.565 -12.852  -3.529  0.00  0.00     0.171 HD
BRANCH  24  27
ATOM     27  C   UNL d   1      25.491 -15.266  -3.288  0.00  0.00     0.075 C 
ATOM     28  C   UNL d   1      26.009 -16.252  -2.516  0.00  0.00     0.017 C 
BRANCH  28  29
ATOM     29  C   UNL d   1      25.279 -16.947  -1.459  0.00  0.00    -0.034 A 
ATOM     30  C   UNL d   1      25.934 -17.453  -0.327  0.00  0.00     0.011 A 
ATOM     31  C   UNL d   1      25.227 -18.203   0.621  0.00  0.00     0.003 A 
ATOM     32  C   UNL d   1      23.855 -18.407   0.469  0.00  0.00     0.036 A 
ATOM     33  C   UNL d   1      23.213 -17.917  -0.672  0.00  0.00     0.103 A 
ATOM     34  C   UNL d   1      23.921 -17.201  -1.639  0.00  0.00     0.047 A 
BRANCH  33  35
ATOM     35  N   UNL d   1      21.790 -18.178  -0.896  0.00  0.00    -0.116 N 
ATOM     36  O   UNL d   1      21.026 -17.205  -0.946  0.00  0.00    -0.532 OA
ATOM     37  O   UNL d   1      21.436 -19.360  -1.020  0.00  0.00    -0.532 OA
ENDBRANCH  33  35
ENDBRANCH  28  29
ENDBRANCH  24  27
ENDBRANCH  21  23
ENDBRANCH   1  21
TORSDOF 12
ENDMDL
MODEL 2
REMARK VINA RESULT:    -8.721      7.349     11.283
REMARK INTER + INTRA:         -13.543
REMARK INTER:                 -12.300
REMARK INTRA:                  -1.243
REMARK CONF_INDEPENDENT:        3.580
REMARK UNBOUND:                -1.243
REMARK  12 active torsions:
REMARK  status: ('A' for Active; 'I' for Inactive)
REMARK    1  A    between atoms: C_2  and  N_3 
REMARK    2  A    between atoms: N_3  and  C_4 
REMARK    3  A    between atoms: N_3  and  C_6 
REMARK    4  A    between atoms: C_6  and  C_7 
REMARK    5  A    between atoms: C_7  and  N_8 
REMARK       I    between atoms: N_8  and  C_9 
REMARK    6  A    between atoms: C_9  and  C_11 
REMARK    7  A    between atoms: C_14  and  N_15 
REMARK    8  A    between atoms: N_15  and  C_16 
REMARK    9  A    between atoms: C_16  and  N_18 
REMARK       I    between atoms: N_18  and  C_19 
REMARK   10  A    between atoms: C_19  and  C_21 
REMARK   11  A    between atoms: C_22  and  C_23 
REMARK   12  A    between atoms: C_27  and  N_28 
ROOT
ATOM      1  N   UNL d   1      26.038 -14.196  -1.142  0.00  0.00    -0.333 N 
ATOM      2  H   UNL d   1      25.635 -13.323  -1.474  0.00  0.00     0.168 HD
ENDROOT
BRANCH   1   3
ATOM      3  C   UNL d   1      26.703 -14.089   0.169  0.00  0.00     0.034 A 
ATOM      4  C   UNL d   1      27.779 -14.897   0.573  0.00  0.00     0.030 A 
ATOM      5  C   UNL d   1      28.297 -14.817   1.910  0.00  0.00     0.019 A 
ATOM      6  C   UNL d   1      27.774 -13.905   2.839  0.00  0.00     0.032 A 
ATOM      7  C   UNL d   1      26.760 -13.078   2.439  0.00  0.00     0.019 A 
ATOM      8  C   UNL d   1      26.303 -13.162   1.136  0.00  0.00     0.030 A 
BRANCH   6   9
ATOM      9  C   UNL d   1      28.363 -13.644   4.176  0.00  0.00     0.251 C 
ATOM     10  N   UNL d   1      29.294 -14.580   4.626  0.00  0.00    -0.355 N 
ATOM     11  H   UNL d   1      29.617 -15.302   3.991  0.00  0.00     0.162 HD
ATOM     12  O   UNL d   1      28.009 -12.692   4.840  0.00  0.00    -0.268 OA
BRANCH  10  13
ATOM     13  C   UNL d   1      29.909 -14.379   5.918  0.00  0.00     0.150 C 
BRANCH  13  14
ATOM     14  C   UNL d   1      28.913 -14.340   7.087  0.00  0.00     0.254 C 
BRANCH  14  15
ATOM     15  N   UNL d   1      29.595 -14.443   8.469  0.00  0.00    -0.070 N 
ATOM     16  H   UNL d   1      29.407 -15.393   8.823  0.00  0.00     0.279 HD
BRANCH  15  17
ATOM     17  C   UNL d   1      31.102 -14.305   8.267  0.00  0.00     0.230 C 
ATOM     18  C   UNL d   1      31.908 -14.464   9.541  0.00  0.00     0.034 C 
ENDBRANCH  15  17
BRANCH  15  19
ATOM     19  C   UNL d   1      28.980 -13.434   9.430  0.00  0.00     0.230 C 
ATOM     20  C   UNL d   1      28.022 -14.028  10.437  0.00  0.00     0.034 C 
ENDBRANCH  15  19
ENDBRANCH  14  15
ENDBRANCH  13  14
ENDBRANCH  10  13
ENDBRANCH   6   9
ENDBRANCH   1   3
BRANCH   1  21
ATOM     21  C   UNL d   1      26.035 -15.345  -2.005  0.00  0.00     0.179 C 
ATOM     22  S   UNL d   1      27.098 -15.589  -3.302  0.00  0.00    -0.040 SA
BRANCH  21  23
ATOM     23  N   UNL d   1      25.049 -16.333  -1.745  0.00  0.00    -0.300 N 
ATOM     24  C   UNL d   1      25.091 -17.162  -0.599  0.00  0.00     0.247 C 
ATOM     25  O   UNL d   1      25.933 -17.110   0.295  0.00  0.00    -0.268 OA
ATOM     26  H   UNL d   1      24.302 -16.485  -2.407  0.00  0.00     0.171 HD
BRANCH  24  27
ATOM     27  C   UNL d   1      24.050 -18.195  -0.393  0.00  0.00     0.075 C 
ATOM     28  C   UNL d   1      22.780 -17.806  -0.662  0.00  0.00     0.017 C 
BRANCH  28  29
ATOM     29  C   UNL d   1      21.598 -18.638  -0.457  0.00  0.00    -0.034 A 
ATOM     30  C   UNL d   1      20.731 -18.954  -1.513  0.00  0.00     0.011 A 
ATOM     31  C   UNL d   1      19.552 -19.668  -1.269  0.00  0.00     0.003 A 
ATOM     32  C   UNL d   1      19.258 -20.112   0.021  0.00  0.00     0.036 A 
ATOM     33  C   UNL d   1      20.116 -19.775   1.073  0.00  0.00     0.103 A 
ATOM     34  C   UNL d   1      21.274 -19.031   0.840  0.00  0.00     0.047 A 
BRANCH  33  35
ATOM     35  N   UNL d   1      19.797 -20.164   2.448  0.00  0.00    -0.116 N 
ATOM     36  O   UNL d   1      20.656 -19.964   3.317  0.00  0.00    -0.532 OA
ATOM     37  O   UNL d   1      18.685 -20.672   2.657  0.00  0.00    -0.532 OA
ENDBRANCH  33  35
ENDBRANCH  28  29
ENDBRANCH  24  27
ENDBRANCH  21  23
ENDBRANCH   1  21
TORSDOF 12
ENDMDL
MODEL 3
REMARK VINA RESULT:    -7.814      5.966     11.166
REMARK INTER + INTRA:         -13.409
REMARK INTER:                 -11.393
REMARK INTRA:                  -2.016
REMARK CONF_INDEPENDENT:        3.580
REMARK UNBOUND:                -2.016
REMARK  12 active torsions:
REMARK  status: ('A' for Active; 'I' for Inactive)
REMARK    1  A    between atoms: C_2  and  N_3 
REMARK    2  A    between atoms: N_3  and  C_4 
REMARK    3  A    between atoms: N_3  and  C_6 
REMARK    4  A    between atoms: C_6  and  C_7 
REMARK    5  A    between atoms: C_7  and  N_8 
REMARK       I    between atoms: N_8  and  C_9 
REMARK    6  A    between atoms: C_9  and  C_11 
REMARK    7  A    between atoms: C_14  and  N_15 
REMARK    8  A    between atoms: N_15  and  C_16 
REMARK    9  A    between atoms: C_16  and  N_18 
REMARK       I    between atoms: N_18  and  C_19 
REMARK   10  A    between atoms: C_19  and  C_21 
REMARK   11  A    between atoms: C_22  and  C_23 
REMARK   12  A    between atoms: C_27  and  N_28 
ROOT
ATOM      1  N   UNL d   1      29.490 -13.700  -5.269  0.00  0.00    -0.333 N 
ATOM      2  H   UNL d   1      30.278 -13.097  -5.496  0.00  0.00     0.168 HD
ENDROOT
BRANCH   1   3
ATOM      3  C   UNL d   1      29.825 -15.135  -5.235  0.00  0.00     0.034 A 
ATOM      4  C   UNL d   1      30.279 -15.864  -6.347  0.00  0.00     0.030 A 
ATOM      5  C   UNL d   1      30.469 -17.284  -6.267  0.00  0.00     0.019 A 
ATOM      6  C   UNL d   1      30.248 -17.982  -5.070  0.00  0.00     0.032 A 
ATOM      7  C   UNL d   1      29.853 -17.273  -3.968  0.00  0.00     0.019 A 
ATOM      8  C   UNL d   1      29.707 -15.901  -4.072  0.00  0.00     0.030 A 
BRANCH   6   9
ATOM      9  C   UNL d   1      30.583 -19.412  -4.862  0.00  0.00     0.251 C 
ATOM     10  N   UNL d   1      31.665 -19.669  -4.020  0.00  0.00    -0.355 N 
ATOM     11  H   UNL d   1      32.080 -18.904  -3.500  0.00  0.00     0.162 HD
ATOM     12  O   UNL d   1      29.968 -20.289  -5.434  0.00  0.00    -0.268 OA
BRANCH  10  13
ATOM     13  C   UNL d   1      32.038 -21.043  -3.771  0.00  0.00     0.150 C 
BRANCH  13  14
ATOM     14  C   UNL d   1      30.957 -21.866  -3.053  0.00  0.00     0.254 C 
BRANCH  14  15
ATOM     15  N   UNL d   1      30.472 -23.079  -3.877  0.00  0.00    -0.070 N 
ATOM     16  H   UNL d   1      30.101 -22.707  -4.764  0.00  0.00     0.279 HD
BRANCH  15  17
ATOM     17  C   UNL d   1      31.684 -23.949  -4.202  0.00  0.00     0.230 C 
ATOM     18  C   UNL d   1      31.881 -24.195  -5.685  0.00  0.00     0.034 C 
ENDBRANCH  15  17
BRANCH  15  19
ATOM     19  C   UNL d   1      29.348 -23.794  -3.139  0.00  0.00     0.230 C 
ATOM     20  C   UNL d   1      29.538 -25.287  -3.000  0.00  0.00     0.034 C 
ENDBRANCH  15  19
ENDBRANCH  14  15
ENDBRANCH  13  14
ENDBRANCH  10  13
ENDBRANCH   6   9
ENDBRANCH   1   3
BRANCH   1  21
ATOM     21  C   UNL d   1      28.178 -13.127  -5.151  0.00  0.00     0.179 C 
ATOM     22  S   UNL d   1      27.646 -11.740  -5.966  0.00  0.00    -0.040 SA
BRANCH  21  23
ATOM     23  N   UNL d   1      27.277 -13.778  -4.267  0.00  0.00    -0.300 N 
ATOM     24  C   UNL d   1      26.519 -14.907  -4.656  0.00  0.00     0.247 C 
ATOM     25  O   UNL d   1      26.567 -15.464  -5.752  0.00  0.00    -0.268 OA
ATOM     26  H   UNL d   1      27.137 -13.416  -3.335  0.00  0.00     0.171 HD
BRANCH  24  27
ATOM     27  C   UNL d   1      25.574 -15.530  -3.701  0.00  0.00     0.075 C 
ATOM     28  C   UNL d   1      26.142 -16.156  -2.643  0.00  0.00     0.017 C 
BRANCH  28  29
ATOM     29  C   UNL d   1      25.402 -16.898  -1.624  0.00  0.00    -0.034 A 
ATOM     30  C   UNL d   1      26.040 -17.418  -0.488  0.00  0.00     0.011 A 
ATOM     31  C   UNL d   1      25.328 -18.210   0.420  0.00  0.00     0.003 A 
ATOM     32  C   UNL d   1      23.966 -18.446   0.225  0.00  0.00     0.036 A 
ATOM     33  C   UNL d   1      23.342 -17.942  -0.920  0.00  0.00     0.103 A 
ATOM     34  C   UNL d   1      24.057 -17.182  -1.848  0.00  0.00     0.047 A 
BRANCH  33  35
ATOM     35  N   UNL d   1      21.933 -18.233  -1.190  0.00  0.00    -0.116 N 
ATOM     36  O   UNL d   1      21.657 -19.328  -1.696  0.00  0.00    -0.532 OA
ATOM     37  O   UNL d   1      21.101 -17.361  -0.897  0.00  0.00    -0.532 OA
ENDBRANCH  33  35
ENDBRANCH  28  29
ENDBRANCH  24  27
ENDBRANCH  21  23
ENDBRANCH   1  21
TORSDOF 12
ENDMDL
MODEL 4
REMARK VINA RESULT:    -7.710      4.742      9.044
REMARK INTER + INTRA:         -13.301
REMARK INTER:                 -11.290
REMARK INTRA:                  -2.011
REMARK CONF_INDEPENDENT:        3.580
REMARK UNBOUND:                -2.011
REMARK  12 active torsions:
REMARK  status: ('A' for Active; 'I' for Inactive)
REMARK    1  A    between atoms: C_2  and  N_3 
REMARK    2  A    between atoms: N_3  and  C_4 
REMARK    3  A    between atoms: N_3  and  C_6 
REMARK    4  A    between atoms: C_6  and  C_7 
REMARK    5  A    between atoms: C_7  and  N_8 
REMARK       I    between atoms: N_8  and  C_9 
REMARK    6  A    between atoms: C_9  and  C_11 
REMARK    7  A    between atoms: C_14  and  N_15 
REMARK    8  A    between atoms: N_15  and  C_16 
REMARK    9  A    between atoms: C_16  and  N_18 
REMARK       I    between atoms: N_18  and  C_19 
REMARK   10  A    between atoms: C_19  and  C_21 
REMARK   11  A    between atoms: C_22  and  C_23 
REMARK   12  A    between atoms: C_27  and  N_28 
ROOT
ATOM      1  N   UNL d   1      27.135 -12.369  -5.649  0.00  0.00    -0.333 N 
ATOM      2  H   UNL d   1      27.188 -12.149  -6.641  0.00  0.00     0.168 HD
ENDROOT
BRANCH   1   3
ATOM      3  C   UNL d   1      28.056 -13.438  -5.222  0.00  0.00     0.034 A 
ATOM      4  C   UNL d   1      28.242 -14.642  -5.923  0.00  0.00     0.030 A 
ATOM      5  C   UNL d   1      29.063 -15.687  -5.383  0.00  0.00     0.019 A 
ATOM      6  C   UNL d   1      29.737 -15.526  -4.162  0.00  0.00     0.032 A 
ATOM      7  C   UNL d   1      29.602 -14.339  -3.497  0.00  0.00     0.019 A 
ATOM      8  C   UNL d   1      28.825 -13.341  -4.059  0.00  0.00     0.030 A 
BRANCH   6   9
ATOM      9  C   UNL d   1      30.733 -16.486  -3.624  0.00  0.00     0.251 C 
ATOM     10  N   UNL d   1      30.212 -17.607  -2.976  0.00  0.00    -0.355 N 
ATOM     11  H   UNL d   1      29.214 -17.780  -3.012  0.00  0.00     0.162 HD
ATOM     12  O   UNL d   1      31.923 -16.269  -3.714  0.00  0.00    -0.268 OA
BRANCH  10  13
ATOM     13  C   UNL d   1      31.130 -18.583  -2.435  0.00  0.00     0.150 C 
BRANCH  13  14
ATOM     14  C   UNL d   1      30.946 -18.853  -0.934  0.00  0.00     0.254 C 
BRANCH  14  15
ATOM     15  N   UNL d   1      30.433 -17.623  -0.154  0.00  0.00    -0.070 N 
ATOM     16  H   UNL d   1      30.533 -17.843   0.848  0.00  0.00     0.279 HD
BRANCH  15  17
ATOM     17  C   UNL d   1      31.351 -16.443  -0.470  0.00  0.00     0.230 C 
ATOM     18  C   UNL d   1      31.593 -15.523   0.710  0.00  0.00     0.034 C 
ENDBRANCH  15  17
BRANCH  15  19
ATOM     19  C   UNL d   1      28.959 -17.390  -0.459  0.00  0.00     0.230 C 
ATOM     20  C   UNL d   1      28.636 -16.008  -0.978  0.00  0.00     0.034 C 
ENDBRANCH  15  19
ENDBRANCH  14  15
ENDBRANCH  13  14
ENDBRANCH  10  13
ENDBRANCH   6   9
ENDBRANCH   1   3
BRANCH   1  21
ATOM     21  C   UNL d   1      26.125 -11.741  -4.843  0.00  0.00     0.179 C 
ATOM     22  S   UNL d   1      25.530 -10.172  -5.078  0.00  0.00    -0.040 SA
BRANCH  21  23
ATOM     23  N   UNL d   1      25.607 -12.505  -3.763  0.00  0.00    -0.300 N 
ATOM     24  C   UNL d   1      25.141 -13.830  -3.927  0.00  0.00     0.247 C 
ATOM     25  O   UNL d   1      25.154 -14.472  -4.976  0.00  0.00    -0.268 OA
ATOM     26  H   UNL d   1      25.534 -12.091  -2.845  0.00  0.00     0.171 HD
BRANCH  24  27
ATOM     27  C   UNL d   1      24.586 -14.569  -2.770  0.00  0.00     0.075 C 
ATOM     28  C   UNL d   1      25.195 -15.744  -2.482  0.00  0.00     0.017 C 
BRANCH  28  29
ATOM     29  C   UNL d   1      24.764 -16.666  -1.435  0.00  0.00    -0.034 A 
ATOM     30  C   UNL d   1      25.680 -17.243  -0.543  0.00  0.00     0.011 A 
ATOM     31  C   UNL d   1      25.254 -18.199   0.386  0.00  0.00     0.003 A 
ATOM     32  C   UNL d   1      23.905 -18.548   0.462  0.00  0.00     0.036 A 
ATOM     33  C   UNL d   1      23.001 -17.985  -0.444  0.00  0.00     0.103 A 
ATOM     34  C   UNL d   1      23.428 -17.058  -1.396  0.00  0.00     0.047 A 
BRANCH  33  35
ATOM     35  N   UNL d   1      21.593 -18.384  -0.437  0.00  0.00    -0.116 N 
ATOM     36  O   UNL d   1      20.786 -17.667  -1.043  0.00  0.00    -0.532 OA
ATOM     37  O   UNL d   1      21.293 -19.419   0.180  0.00  0.00    -0.532 OA
ENDBRANCH  33  35
ENDBRANCH  28  29
ENDBRANCH  24  27
ENDBRANCH  21  23
ENDBRANCH   1  21
TORSDOF 12
ENDMDL
MODEL 5
REMARK VINA RESULT:    -7.535      4.564      6.938
REMARK INTER + INTRA:         -13.636
REMARK INTER:                 -11.115
REMARK INTRA:                  -2.521
REMARK CONF_INDEPENDENT:        3.580
REMARK UNBOUND:                -2.521
REMARK  12 active torsions:
REMARK  status: ('A' for Active; 'I' for Inactive)
REMARK    1  A    between atoms: C_2  and  N_3 
REMARK    2  A    between atoms: N_3  and  C_4 
REMARK    3  A    between atoms: N_3  and  C_6 
REMARK    4  A    between atoms: C_6  and  C_7 
REMARK    5  A    between atoms: C_7  and  N_8 
REMARK       I    between atoms: N_8  and  C_9 
REMARK    6  A    between atoms: C_9  and  C_11 
REMARK    7  A    between atoms: C_14  and  N_15 
REMARK    8  A    between atoms: N_15  and  C_16 
REMARK    9  A    between atoms: C_16  and  N_18 
REMARK       I    between atoms: N_18  and  C_19 
REMARK   10  A    between atoms: C_19  and  C_21 
REMARK   11  A    between atoms: C_22  and  C_23 
REMARK   12  A    between atoms: C_27  and  N_28 
ROOT
ATOM      1  N   UNL d   1      25.356 -16.523  -2.408  0.00  0.00    -0.333 N 
ATOM      2  H   UNL d   1      25.766 -17.378  -2.777  0.00  0.00     0.168 HD
ENDROOT
BRANCH   1   3
ATOM      3  C   UNL d   1      25.547 -15.345  -3.274  0.00  0.00     0.034 A 
ATOM      4  C   UNL d   1      26.505 -15.270  -4.299  0.00  0.00     0.030 A 
ATOM      5  C   UNL d   1      26.715 -14.047  -5.021  0.00  0.00     0.019 A 
ATOM      6  C   UNL d   1      25.946 -12.904  -4.754  0.00  0.00     0.032 A 
ATOM      7  C   UNL d   1      24.977 -12.982  -3.791  0.00  0.00     0.019 A 
ATOM      8  C   UNL d   1      24.782 -14.184  -3.135  0.00  0.00     0.030 A 
BRANCH   6   9
ATOM      9  C   UNL d   1      25.985 -11.662  -5.566  0.00  0.00     0.251 C 
ATOM     10  N   UNL d   1      26.993 -10.753  -5.242  0.00  0.00    -0.355 N 
ATOM     11  H   UNL d   1      27.710 -11.025  -4.579  0.00  0.00     0.162 HD
ATOM     12  O   UNL d   1      25.155 -11.450  -6.425  0.00  0.00    -0.268 OA
BRANCH  10  13
ATOM     13  C   UNL d   1      27.089  -9.527  -6.000  0.00  0.00     0.150 C 
BRANCH  13  14
ATOM     14  C   UNL d   1      26.167  -8.405  -5.498  0.00  0.00     0.254 C 
BRANCH  14  15
ATOM     15  N   UNL d   1      24.891  -8.931  -4.805  0.00  0.00    -0.070 N 
ATOM     16  H   UNL d   1      24.749  -9.897  -5.138  0.00  0.00     0.279 HD
BRANCH  15  17
ATOM     17  C   UNL d   1      25.155  -8.986  -3.302  0.00  0.00     0.230 C 
ATOM     18  C   UNL d   1      26.244  -8.040  -2.836  0.00  0.00     0.034 C 
ENDBRANCH  15  17
BRANCH  15  19
ATOM     19  C   UNL d   1      23.690  -8.091  -5.216  0.00  0.00     0.230 C 
ATOM     20  C   UNL d   1      23.857  -6.605  -4.994  0.00  0.00     0.034 C 
ENDBRANCH  15  19
ENDBRANCH  14  15
ENDBRANCH  13  14
ENDBRANCH  10  13
ENDBRANCH   6   9
ENDBRANCH   1   3
BRANCH   1  21
ATOM     21  C   UNL d   1      24.787 -16.529  -1.089  0.00  0.00     0.179 C 
ATOM     22  S   UNL d   1      23.502 -17.514  -0.589  0.00  0.00    -0.040 SA
BRANCH  21  23
ATOM     23  N   UNL d   1      25.348 -15.622  -0.150  0.00  0.00    -0.300 N 
ATOM     24  C   UNL d   1      26.712 -15.251  -0.178  0.00  0.00     0.247 C 
ATOM     25  O   UNL d   1      27.542 -15.625  -1.005  0.00  0.00    -0.268 OA
ATOM     26  H   UNL d   1      24.773 -15.245   0.589  0.00  0.00     0.171 HD
BRANCH  24  27
ATOM     27  C   UNL d   1      27.248 -14.322   0.843  0.00  0.00     0.075 C 
ATOM     28  C   UNL d   1      26.464 -13.256   1.132  0.00  0.00     0.017 C 
BRANCH  28  29
ATOM     29  C   UNL d   1      26.832 -12.181   2.049  0.00  0.00    -0.034 A 
ATOM     30  C   UNL d   1      27.609 -12.426   3.191  0.00  0.00     0.011 A 
ATOM     31  C   UNL d   1      27.862 -11.397   4.106  0.00  0.00     0.003 A 
ATOM     32  C   UNL d   1      27.382 -10.109   3.861  0.00  0.00     0.036 A 
ATOM     33  C   UNL d   1      26.591  -9.878   2.732  0.00  0.00     0.103 A 
ATOM     34  C   UNL d   1      26.305 -10.909   1.836  0.00  0.00     0.047 A 
BRANCH  33  35
ATOM     35  N   UNL d   1      26.014  -8.555   2.485  0.00  0.00    -0.116 N 
ATOM     36  O   UNL d   1      25.156  -8.457   1.598  0.00  0.00    -0.532 OA
ATOM     37  O   UNL d   1      26.422  -7.612   3.180  0.00  0.00    -0.532 OA
ENDBRANCH  33  35
ENDBRANCH  28  29
ENDBRANCH  24  27
ENDBRANCH  21  23
ENDBRANCH   1  21
TORSDOF 12
ENDMDL
MODEL 6
REMARK VINA RESULT:    -7.371      6.291     11.289
REMARK INTER + INTRA:         -13.260
REMARK INTER:                 -10.951
REMARK INTRA:                  -2.310
REMARK CONF_INDEPENDENT:        3.580
REMARK UNBOUND:                -2.310
REMARK  12 active torsions:
REMARK  status: ('A' for Active; 'I' for Inactive)
REMARK    1  A    between atoms: C_2  and  N_3 
REMARK    2  A    between atoms: N_3  and  C_4 
REMARK    3  A    between atoms: N_3  and  C_6 
REMARK    4  A    between atoms: C_6  and  C_7 
REMARK    5  A    between atoms: C_7  and  N_8 
REMARK       I    between atoms: N_8  and  C_9 
REMARK    6  A    between atoms: C_9  and  C_11 
REMARK    7  A    between atoms: C_14  and  N_15 
REMARK    8  A    between atoms: N_15  and  C_16 
REMARK    9  A    between atoms: C_16  and  N_18 
REMARK       I    between atoms: N_18  and  C_19 
REMARK   10  A    between atoms: C_19  and  C_21 
REMARK   11  A    between atoms: C_22  and  C_23 
REMARK   12  A    between atoms: C_27  and  N_28 
ROOT
ATOM      1  N   UNL d   1      29.658 -14.160  -5.301  0.00  0.00    -0.333 N 
ATOM      2  H   UNL d   1      30.315 -13.633  -5.871  0.00  0.00     0.168 HD
ENDROOT
BRANCH   1   3
ATOM      3  C   UNL d   1      29.895 -15.615  -5.302  0.00  0.00     0.034 A 
ATOM      4  C   UNL d   1      30.005 -16.394  -4.139  0.00  0.00     0.030 A 
ATOM      5  C   UNL d   1      30.357 -17.784  -4.216  0.00  0.00     0.019 A 
ATOM      6  C   UNL d   1      30.562 -18.415  -5.452  0.00  0.00     0.032 A 
ATOM      7  C   UNL d   1      30.409 -17.676  -6.593  0.00  0.00     0.019 A 
ATOM      8  C   UNL d   1      30.041 -16.346  -6.484  0.00  0.00     0.030 A 
BRANCH   6   9
ATOM      9  C   UNL d   1      30.760 -19.876  -5.622  0.00  0.00     0.251 C 
ATOM     10  N   UNL d   1      30.972 -20.603  -4.451  0.00  0.00    -0.355 N 
ATOM     11  H   UNL d   1      30.857 -20.144  -3.555  0.00  0.00     0.162 HD
ATOM     12  O   UNL d   1      30.777 -20.380  -6.726  0.00  0.00    -0.268 OA
BRANCH  10  13
ATOM     13  C   UNL d   1      31.165 -22.032  -4.549  0.00  0.00     0.150 C 
BRANCH  13  14
ATOM     14  C   UNL d   1      32.345 -22.447  -5.441  0.00  0.00     0.254 C 
BRANCH  14  15
ATOM     15  N   UNL d   1      31.911 -22.881  -6.859  0.00  0.00    -0.070 N 
ATOM     16  H   UNL d   1      30.944 -22.549  -6.988  0.00  0.00     0.279 HD
BRANCH  15  17
ATOM     17  C   UNL d   1      32.796 -22.155  -7.869  0.00  0.00     0.230 C 
ATOM     18  C   UNL d   1      33.921 -21.358  -7.238  0.00  0.00     0.034 C 
ENDBRANCH  15  17
BRANCH  15  19
ATOM     19  C   UNL d   1      31.926 -24.400  -6.966  0.00  0.00     0.230 C 
ATOM     20  C   UNL d   1      31.173 -24.953  -8.154  0.00  0.00     0.034 C 
ENDBRANCH  15  19
ENDBRANCH  14  15
ENDBRANCH  13  14
ENDBRANCH  10  13
ENDBRANCH   6   9
ENDBRANCH   1   3
BRANCH   1  21
ATOM     21  C   UNL d   1      28.544 -13.478  -4.700  0.00  0.00     0.179 C 
ATOM     22  S   UNL d   1      28.249 -11.813  -4.811  0.00  0.00    -0.040 SA
BRANCH  21  23
ATOM     23  N   UNL d   1      27.641 -14.275  -3.947  0.00  0.00    -0.300 N 
ATOM     24  C   UNL d   1      26.685 -15.119  -4.558  0.00  0.00     0.247 C 
ATOM     25  O   UNL d   1      26.543 -15.286  -5.768  0.00  0.00    -0.268 OA
ATOM     26  H   UNL d   1      27.648 -14.225  -2.939  0.00  0.00     0.171 HD
BRANCH  24  27
ATOM     27  C   UNL d   1      25.751 -15.907  -3.723  0.00  0.00     0.075 C 
ATOM     28  C   UNL d   1      26.078 -16.002  -2.412  0.00  0.00     0.017 C 
BRANCH  28  29
ATOM     29  C   UNL d   1      25.340 -16.789  -1.428  0.00  0.00    -0.034 A 
ATOM     30  C   UNL d   1      25.974 -17.340  -0.305  0.00  0.00     0.011 A 
ATOM     31  C   UNL d   1      25.265 -18.174   0.568  0.00  0.00     0.003 A 
ATOM     32  C   UNL d   1      23.909 -18.423   0.350  0.00  0.00     0.036 A 
ATOM     33  C   UNL d   1      23.289 -17.888  -0.783  0.00  0.00     0.103 A 
ATOM     34  C   UNL d   1      24.001 -17.085  -1.676  0.00  0.00     0.047 A 
BRANCH  33  35
ATOM     35  N   UNL d   1      21.887 -18.190  -1.078  0.00  0.00    -0.116 N 
ATOM     36  O   UNL d   1      21.616 -19.323  -1.494  0.00  0.00    -0.532 OA
ATOM     37  O   UNL d   1      21.055 -17.288  -0.894  0.00  0.00    -0.532 OA
ENDBRANCH  33  35
ENDBRANCH  28  29
ENDBRANCH  24  27
ENDBRANCH  21  23
ENDBRANCH   1  21
TORSDOF 12
ENDMDL
MODEL 7
REMARK VINA RESULT:    -7.242      4.851      7.740
REMARK INTER + INTRA:         -13.427
REMARK INTER:                 -10.821
REMARK INTRA:                  -2.605
REMARK CONF_INDEPENDENT:        3.580
REMARK UNBOUND:                -2.605
REMARK  12 active torsions:
REMARK  status: ('A' for Active; 'I' for Inactive)
REMARK    1  A    between atoms: C_2  and  N_3 
REMARK    2  A    between atoms: N_3  and  C_4 
REMARK    3  A    between atoms: N_3  and  C_6 
REMARK    4  A    between atoms: C_6  and  C_7 
REMARK    5  A    between atoms: C_7  and  N_8 
REMARK       I    between atoms: N_8  and  C_9 
REMARK    6  A    between atoms: C_9  and  C_11 
REMARK    7  A    between atoms: C_14  and  N_15 
REMARK    8  A    between atoms: N_15  and  C_16 
REMARK    9  A    between atoms: C_16  and  N_18 
REMARK       I    between atoms: N_18  and  C_19 
REMARK   10  A    between atoms: C_19  and  C_21 
REMARK   11  A    between atoms: C_22  and  C_23 
REMARK   12  A    between atoms: C_27  and  N_28 
ROOT
ATOM      1  N   UNL d   1      27.668 -17.136  -1.351  0.00  0.00    -0.333 N 
ATOM      2  H   UNL d   1      28.280 -17.825  -1.782  0.00  0.00     0.168 HD
ENDROOT
BRANCH   1   3
ATOM      3  C   UNL d   1      27.236 -16.063  -2.264  0.00  0.00     0.034 A 
ATOM      4  C   UNL d   1      25.926 -15.929  -2.756  0.00  0.00     0.030 A 
ATOM      5  C   UNL d   1      25.608 -14.931  -3.737  0.00  0.00     0.019 A 
ATOM      6  C   UNL d   1      26.580 -14.034  -4.204  0.00  0.00     0.032 A 
ATOM      7  C   UNL d   1      27.847 -14.124  -3.694  0.00  0.00     0.019 A 
ATOM      8  C   UNL d   1      28.113 -15.080  -2.729  0.00  0.00     0.030 A 
BRANCH   6   9
ATOM      9  C   UNL d   1      26.294 -12.873  -5.083  0.00  0.00     0.251 C 
ATOM     10  N   UNL d   1      27.404 -12.149  -5.518  0.00  0.00    -0.355 N 
ATOM     11  H   UNL d   1      28.334 -12.507  -5.331  0.00  0.00     0.162 HD
ATOM     12  O   UNL d   1      25.154 -12.564  -5.360  0.00  0.00    -0.268 OA
BRANCH  10  13
ATOM     13  C   UNL d   1      27.192 -11.010  -6.383  0.00  0.00     0.150 C 
BRANCH  13  14
ATOM     14  C   UNL d   1      26.840  -9.714  -5.638  0.00  0.00     0.254 C 
BRANCH  14  15
ATOM     15  N   UNL d   1      25.502  -9.798  -4.871  0.00  0.00    -0.070 N 
ATOM     16  H   UNL d   1      25.149 -10.758  -4.995  0.00  0.00     0.279 HD
BRANCH  15  17
ATOM     17  C   UNL d   1      25.792  -9.592  -3.386  0.00  0.00     0.230 C 
ATOM     18  C   UNL d   1      26.422 -10.795  -2.712  0.00  0.00     0.034 C 
ENDBRANCH  15  17
BRANCH  15  19
ATOM     19  C   UNL d   1      24.495  -8.825  -5.470  0.00  0.00     0.230 C 
ATOM     20  C   UNL d   1      25.105  -7.579  -6.069  0.00  0.00     0.034 C 
ENDBRANCH  15  19
ENDBRANCH  14  15
ENDBRANCH  13  14
ENDBRANCH  10  13
ENDBRANCH   6   9
ENDBRANCH   1   3
BRANCH   1  21
ATOM     21  C   UNL d   1      27.417 -17.206   0.063  0.00  0.00     0.179 C 
ATOM     22  S   UNL d   1      26.655 -18.497   0.852  0.00  0.00    -0.040 SA
BRANCH  21  23
ATOM     23  N   UNL d   1      27.834 -16.091   0.838  0.00  0.00    -0.300 N 
ATOM     24  C   UNL d   1      27.191 -14.833   0.763  0.00  0.00     0.247 C 
ATOM     25  O   UNL d   1      26.211 -14.567   0.069  0.00  0.00    -0.268 OA
ATOM     26  H   UNL d   1      28.635 -16.174   1.447  0.00  0.00     0.171 HD
BRANCH  24  27
ATOM     27  C   UNL d   1      27.686 -13.699   1.575  0.00  0.00     0.075 C 
ATOM     28  C   UNL d   1      26.750 -12.790   1.941  0.00  0.00     0.017 C 
BRANCH  28  29
ATOM     29  C   UNL d   1      27.031 -11.561   2.676  0.00  0.00    -0.034 A 
ATOM     30  C   UNL d   1      27.778 -11.571   3.863  0.00  0.00     0.011 A 
ATOM     31  C   UNL d   1      27.947 -10.393   4.601  0.00  0.00     0.003 A 
ATOM     32  C   UNL d   1      27.414  -9.191   4.132  0.00  0.00     0.036 A 
ATOM     33  C   UNL d   1      26.653  -9.193   2.959  0.00  0.00     0.103 A 
ATOM     34  C   UNL d   1      26.450 -10.372   2.239  0.00  0.00     0.047 A 
BRANCH  33  35
ATOM     35  N   UNL d   1      26.020  -7.963   2.480  0.00  0.00    -0.116 N 
ATOM     36  O   UNL d   1      25.265  -8.045   1.502  0.00  0.00    -0.532 OA
ATOM     37  O   UNL d   1      26.280  -6.911   3.084  0.00  0.00    -0.532 OA
ENDBRANCH  33  35
ENDBRANCH  28  29
ENDBRANCH  24  27
ENDBRANCH  21  23
ENDBRANCH   1  21
TORSDOF 12
ENDMDL
MODEL 8
REMARK VINA RESULT:    -7.191      8.031     12.475
REMARK INTER + INTRA:         -13.353
REMARK INTER:                 -10.771
REMARK INTRA:                  -2.582
REMARK CONF_INDEPENDENT:        3.580
REMARK UNBOUND:                -2.582
REMARK  12 active torsions:
REMARK  status: ('A' for Active; 'I' for Inactive)
REMARK    1  A    between atoms: C_2  and  N_3 
REMARK    2  A    between atoms: N_3  and  C_4 
REMARK    3  A    between atoms: N_3  and  C_6 
REMARK    4  A    between atoms: C_6  and  C_7 
REMARK    5  A    between atoms: C_7  and  N_8 
REMARK       I    between atoms: N_8  and  C_9 
REMARK    6  A    between atoms: C_9  and  C_11 
REMARK    7  A    between atoms: C_14  and  N_15 
REMARK    8  A    between atoms: N_15  and  C_16 
REMARK    9  A    between atoms: C_16  and  N_18 
REMARK       I    between atoms: N_18  and  C_19 
REMARK   10  A    between atoms: C_19  and  C_21 
REMARK   11  A    between atoms: C_22  and  C_23 
REMARK   12  A    between atoms: C_27  and  N_28 
ROOT
ATOM      1  N   UNL d   1      28.914 -14.360   7.695  0.00  0.00    -0.333 N 
ATOM      2  H   UNL d   1      29.286 -15.199   8.135  0.00  0.00     0.168 HD
ENDROOT
BRANCH   1   3
ATOM      3  C   UNL d   1      28.888 -14.418   6.222  0.00  0.00     0.034 A 
ATOM      4  C   UNL d   1      30.035 -14.544   5.420  0.00  0.00     0.030 A 
ATOM      5  C   UNL d   1      29.943 -14.471   3.989  0.00  0.00     0.019 A 
ATOM      6  C   UNL d   1      28.705 -14.313   3.347  0.00  0.00     0.032 A 
ATOM      7  C   UNL d   1      27.577 -14.239   4.118  0.00  0.00     0.019 A 
ATOM      8  C   UNL d   1      27.698 -14.341   5.492  0.00  0.00     0.030 A 
BRANCH   6   9
ATOM      9  C   UNL d   1      28.508 -14.399   1.879  0.00  0.00     0.251 C 
ATOM     10  N   UNL d   1      29.466 -15.132   1.177  0.00  0.00    -0.355 N 
ATOM     11  H   UNL d   1      30.157 -15.666   1.692  0.00  0.00     0.162 HD
ATOM     12  O   UNL d   1      27.589 -13.823   1.336  0.00  0.00    -0.268 OA
BRANCH  10  13
ATOM     13  C   UNL d   1      29.326 -15.259  -0.256  0.00  0.00     0.150 C 
BRANCH  13  14
ATOM     14  C   UNL d   1      28.401 -16.403  -0.698  0.00  0.00     0.254 C 
BRANCH  14  15
ATOM     15  N   UNL d   1      26.938 -16.210  -0.244  0.00  0.00    -0.070 N 
ATOM     16  H   UNL d   1      26.971 -15.807   0.704  0.00  0.00     0.279 HD
BRANCH  15  17
ATOM     17  C   UNL d   1      26.285 -15.186  -1.169  0.00  0.00     0.230 C 
ATOM     18  C   UNL d   1      25.418 -15.801  -2.250  0.00  0.00     0.034 C 
ENDBRANCH  15  17
BRANCH  15  19
ATOM     19  C   UNL d   1      26.231 -17.558  -0.177  0.00  0.00     0.230 C 
ATOM     20  C   UNL d   1      26.655 -18.433   0.980  0.00  0.00     0.034 C 
ENDBRANCH  15  19
ENDBRANCH  14  15
ENDBRANCH  13  14
ENDBRANCH  10  13
ENDBRANCH   6   9
ENDBRANCH   1   3
BRANCH   1  21
ATOM     21  C   UNL d   1      28.601 -13.219   8.510  0.00  0.00     0.179 C 
ATOM     22  S   UNL d   1      28.498 -13.231  10.201  0.00  0.00    -0.040 SA
BRANCH  21  23
ATOM     23  N   UNL d   1      28.347 -12.000   7.826  0.00  0.00    -0.300 N 
ATOM     24  C   UNL d   1      29.378 -11.233   7.237  0.00  0.00     0.247 C 
ATOM     25  O   UNL d   1      30.572 -11.529   7.216  0.00  0.00    -0.268 OA
ATOM     26  H   UNL d   1      27.405 -11.638   7.777  0.00  0.00     0.171 HD
BRANCH  24  27
ATOM     27  C   UNL d   1      29.058  -9.955   6.561  0.00  0.00     0.075 C 
ATOM     28  C   UNL d   1      28.442 -10.069   5.360  0.00  0.00     0.017 C 
BRANCH  28  29
ATOM     29  C   UNL d   1      28.105  -8.945   4.492  0.00  0.00    -0.034 A 
ATOM     30  C   UNL d   1      28.753  -7.706   4.610  0.00  0.00     0.011 A 
ATOM     31  C   UNL d   1      28.341  -6.617   3.834  0.00  0.00     0.003 A 
ATOM     32  C   UNL d   1      27.314  -6.771   2.901  0.00  0.00     0.036 A 
ATOM     33  C   UNL d   1      26.658  -8.002   2.803  0.00  0.00     0.103 A 
ATOM     34  C   UNL d   1      27.041  -9.081   3.602  0.00  0.00     0.047 A 
BRANCH  33  35
ATOM     35  N   UNL d   1      25.530  -8.175   1.886  0.00  0.00    -0.116 N 
ATOM     36  O   UNL d   1      25.371  -7.324   1.002  0.00  0.00    -0.532 OA
ATOM     37  O   UNL d   1      24.800  -9.163   2.055  0.00  0.00    -0.532 OA
ENDBRANCH  33  35
ENDBRANCH  28  29
ENDBRANCH  24  27
ENDBRANCH  21  23
ENDBRANCH   1  21
TORSDOF 12
ENDMDL
MODEL 9
REMARK VINA RESULT:    -6.934      4.465      8.371
REMARK INTER + INTRA:         -13.219
REMARK INTER:                 -10.514
REMARK INTRA:                  -2.705
REMARK CONF_INDEPENDENT:        3.580
REMARK UNBOUND:                -2.705
REMARK  12 active torsions:
REMARK  status: ('A' for Active; 'I' for Inactive)
REMARK    1  A    between atoms: C_2  and  N_3 
REMARK    2  A    between atoms: N_3  and  C_4 
REMARK    3  A    between atoms: N_3  and  C_6 
REMARK    4  A    between atoms: C_6  and  C_7 
REMARK    5  A    between atoms: C_7  and  N_8 
REMARK       I    between atoms: N_8  and  C_9 
REMARK    6  A    between atoms: C_9  and  C_11 
REMARK    7  A    between atoms: C_14  and  N_15 
REMARK    8  A    between atoms: N_15  and  C_16 
REMARK    9  A    between atoms: C_16  and  N_18 
REMARK       I    between atoms: N_18  and  C_19 
REMARK   10  A    between atoms: C_19  and  C_21 
REMARK   11  A    between atoms: C_22  and  C_23 
REMARK   12  A    between atoms: C_27  and  N_28 
ROOT
ATOM      1  N   UNL d   1      26.597 -10.251  -3.789  0.00  0.00    -0.333 N 
ATOM      2  H   UNL d   1      26.970  -9.394  -4.191  0.00  0.00     0.168 HD
ENDROOT
BRANCH   1   3
ATOM      3  C   UNL d   1      26.974 -10.466  -2.380  0.00  0.00     0.034 A 
ATOM      4  C   UNL d   1      26.934  -9.466  -1.394  0.00  0.00     0.030 A 
ATOM      5  C   UNL d   1      27.432  -9.718  -0.072  0.00  0.00     0.019 A 
ATOM      6  C   UNL d   1      27.933 -10.978   0.289  0.00  0.00     0.032 A 
ATOM      7  C   UNL d   1      27.929 -11.973  -0.650  0.00  0.00     0.019 A 
ATOM      8  C   UNL d   1      27.417 -11.704  -1.907  0.00  0.00     0.030 A 
BRANCH   6   9
ATOM      9  C   UNL d   1      28.304 -11.365   1.673  0.00  0.00     0.251 C 
ATOM     10  N   UNL d   1      29.630 -11.758   1.862  0.00  0.00    -0.355 N 
ATOM     11  H   UNL d   1      30.293 -11.643   1.104  0.00  0.00     0.162 HD
ATOM     12  O   UNL d   1      27.480 -11.374   2.563  0.00  0.00    -0.268 OA
BRANCH  10  13
ATOM     13  C   UNL d   1      30.056 -12.141   3.188  0.00  0.00     0.150 C 
BRANCH  13  14
ATOM     14  C   UNL d   1      29.682 -13.579   3.577  0.00  0.00     0.254 C 
BRANCH  14  15
ATOM     15  N   UNL d   1      28.158 -13.823   3.609  0.00  0.00    -0.070 N 
ATOM     16  H   UNL d   1      27.707 -12.898   3.548  0.00  0.00     0.279 HD
BRANCH  15  17
ATOM     17  C   UNL d   1      27.777 -14.614   2.360  0.00  0.00     0.230 C 
ATOM     18  C   UNL d   1      28.928 -14.830   1.397  0.00  0.00     0.034 C 
ENDBRANCH  15  17
BRANCH  15  19
ATOM     19  C   UNL d   1      27.761 -14.474   4.928  0.00  0.00     0.230 C 
ATOM     20  C   UNL d   1      28.882 -14.585   5.935  0.00  0.00     0.034 C 
ENDBRANCH  15  19
ENDBRANCH  14  15
ENDBRANCH  13  14
ENDBRANCH  10  13
ENDBRANCH   6   9
ENDBRANCH   1   3
BRANCH   1  21
ATOM     21  C   UNL d   1      25.894 -11.176  -4.635  0.00  0.00     0.179 C 
ATOM     22  S   UNL d   1      25.783 -11.059  -6.322  0.00  0.00    -0.040 SA
BRANCH  21  23
ATOM     23  N   UNL d   1      25.237 -12.257  -3.988  0.00  0.00    -0.300 N 
ATOM     24  C   UNL d   1      25.830 -13.534  -3.856  0.00  0.00     0.247 C 
ATOM     25  O   UNL d   1      26.956 -13.847  -4.240  0.00  0.00    -0.268 OA
ATOM     26  H   UNL d   1      24.300 -12.134  -3.633  0.00  0.00     0.171 HD
BRANCH  24  27
ATOM     27  C   UNL d   1      25.087 -14.631  -3.197  0.00  0.00     0.075 C 
ATOM     28  C   UNL d   1      25.653 -15.124  -2.069  0.00  0.00     0.017 C 
BRANCH  28  29
ATOM     29  C   UNL d   1      25.130 -16.253  -1.304  0.00  0.00    -0.034 A 
ATOM     30  C   UNL d   1      25.968 -17.055  -0.516  0.00  0.00     0.011 A 
ATOM     31  C   UNL d   1      25.458 -18.191   0.126  0.00  0.00     0.003 A 
ATOM     32  C   UNL d   1      24.101 -18.502   0.024  0.00  0.00     0.036 A 
ATOM     33  C   UNL d   1      23.276 -17.709  -0.781  0.00  0.00     0.103 A 
ATOM     34  C   UNL d   1      23.788 -16.597  -1.452  0.00  0.00     0.047 A 
BRANCH  33  35
ATOM     35  N   UNL d   1      21.865 -18.051  -0.966  0.00  0.00    -0.116 N 
ATOM     36  O   UNL d   1      21.582 -19.238  -1.171  0.00  0.00    -0.532 OA
ATOM     37  O   UNL d   1      21.039 -17.128  -0.908  0.00  0.00    -0.532 OA
ENDBRANCH  33  35
ENDBRANCH  28  29
ENDBRANCH  24  27
ENDBRANCH  21  23
ENDBRANCH   1  21
TORSDOF 12
ENDMDL
