MODEL 1
REMARK VINA RESULT:    -7.589      0.000      0.000
REMARK INTER + INTRA:          -9.489
REMARK INTER:                  -8.782
REMARK INTRA:                  -0.706
REMARK CONF_INDEPENDENT:        1.193
REMARK UNBOUND:                -0.706
REMARK  4 active torsions:
REMARK  status: ('A' for Active; 'I' for Inactive)
REMARK    1  A    between atoms: O_2  and  C_3 
REMARK    2  A    between atoms: C_6  and  C_7 
REMARK       I    between atoms: C_7  and  N_8 
REMARK    3  A    between atoms: C_11  and  N_12 
REMARK       I    between atoms: N_12  and  C_13 
REMARK    4  A    between atoms: C_13  and  C_15 
ROOT
ATOM      1  C   UNL d   1      25.968 -16.560  -0.853  0.00  0.00     0.095 A 
ATOM      2  C   UNL d   1      25.760 -17.766  -0.169  0.00  0.00     0.040 A 
ATOM      3  C   UNL d   1      24.510 -18.383  -0.129  0.00  0.00     0.020 A 
ATOM      4  C   UNL d   1      23.405 -17.752  -0.698  0.00  0.00     0.034 A 
ATOM      5  C   UNL d   1      23.610 -16.557  -1.425  0.00  0.00     0.049 A 
ATOM      6  C   UNL d   1      24.899 -15.981  -1.563  0.00  0.00     0.069 A 
ENDROOT
BRANCH   6   7
ATOM      7  N   UNL d   1      25.016 -14.832  -2.395  0.00  0.00    -0.320 N 
ATOM      8  C   UNL d   1      25.532 -14.829  -3.676  0.00  0.00     0.258 C 
ATOM      9  O   UNL d   1      25.528 -15.817  -4.412  0.00  0.00    -0.267 OA
ATOM     10  H   UNL d   1      24.666 -13.958  -2.021  0.00  0.00     0.169 HD
BRANCH   8  11
ATOM     11  C   UNL d   1      26.192 -13.586  -4.204  0.00  0.00     0.055 A 
ATOM     12  C   UNL d   1      25.531 -12.386  -3.849  0.00  0.00     0.019 A 
ATOM     13  C   UNL d   1      26.029 -11.139  -4.205  0.00  0.00     0.003 A 
ATOM     14  C   UNL d   1      27.223 -11.067  -4.905  0.00  0.00     0.026 A 
ATOM     15  C   UNL d   1      27.837 -12.237  -5.366  0.00  0.00     0.056 A 
ATOM     16 CL   UNL d   1      29.272 -12.032  -6.317  0.00  0.00    -0.083 Cl
ATOM     17  C   UNL d   1      27.310 -13.508  -5.052  0.00  0.00     0.071 A 
ATOM     18 CL   UNL d   1      28.040 -14.916  -5.760  0.00  0.00    -0.081 Cl
ENDBRANCH   8  11
ENDBRANCH   6   7
BRANCH   1  19
ATOM     19  O   UNL d   1      27.266 -16.140  -0.783  0.00  0.00    -0.354 OA
ATOM     20  C   UNL d   1      28.238 -16.976  -0.167  0.00  0.00     0.210 C 
ENDBRANCH   1  19
BRANCH   4  21
ATOM     21  C   UNL d   1      22.022 -18.300  -0.512  0.00  0.00     0.249 C 
ATOM     22  N   UNL d   1      21.860 -19.496   0.138  0.00  0.00    -0.366 N 
ATOM     23  H   UNL d   1      22.601 -20.061   0.525  0.00  0.00     0.159 HD
ATOM     24  H   UNL d   1      20.915 -19.821   0.299  0.00  0.00     0.159 HD
ATOM     25  O   UNL d   1      21.031 -17.677  -0.899  0.00  0.00    -0.268 OA
ENDBRANCH   4  21
TORSDOF 4
ENDMDL
MODEL 2
REMARK VINA RESULT:    -7.456      1.851      1.992
REMARK INTER + INTRA:          -9.540
REMARK INTER:                  -8.649
REMARK INTRA:                  -0.891
REMARK CONF_INDEPENDENT:        1.193
REMARK UNBOUND:                -0.891
REMARK  4 active torsions:
REMARK  status: ('A' for Active; 'I' for Inactive)
REMARK    1  A    between atoms: O_2  and  C_3 
REMARK    2  A    between atoms: C_6  and  C_7 
REMARK       I    between atoms: C_7  and  N_8 
REMARK    3  A    between atoms: C_11  and  N_12 
REMARK       I    between atoms: N_12  and  C_13 
REMARK    4  A    between atoms: C_13  and  C_15 
ROOT
ATOM      1  C   UNL d   1      25.228 -17.119  -0.695  0.00  0.00     0.095 A 
ATOM      2  C   UNL d   1      24.999 -18.388  -0.143  0.00  0.00     0.040 A 
ATOM      3  C   UNL d   1      23.733 -18.974  -0.148  0.00  0.00     0.020 A 
ATOM      4  C   UNL d   1      22.636 -18.257  -0.624  0.00  0.00     0.034 A 
ATOM      5  C   UNL d   1      22.863 -16.995  -1.220  0.00  0.00     0.049 A 
ATOM      6  C   UNL d   1      24.164 -16.440  -1.318  0.00  0.00     0.069 A 
ENDROOT
BRANCH   6   7
ATOM      7  N   UNL d   1      24.299 -15.210  -2.021  0.00  0.00    -0.320 N 
ATOM      8  C   UNL d   1      25.157 -14.992  -3.082  0.00  0.00     0.258 C 
ATOM      9  O   UNL d   1      25.556 -15.887  -3.827  0.00  0.00    -0.267 OA
ATOM     10  H   UNL d   1      23.696 -14.448  -1.733  0.00  0.00     0.169 HD
BRANCH   8  11
ATOM     11  C   UNL d   1      25.694 -13.609  -3.325  0.00  0.00     0.055 A 
ATOM     12  C   UNL d   1      25.520 -13.147  -4.651  0.00  0.00     0.019 A 
ATOM     13  C   UNL d   1      25.907 -11.871  -5.043  0.00  0.00     0.003 A 
ATOM     14  C   UNL d   1      26.455 -11.017  -4.100  0.00  0.00     0.026 A 
ATOM     15  C   UNL d   1      26.742 -11.484  -2.812  0.00  0.00     0.056 A 
ATOM     16 CL   UNL d   1      27.519 -10.365  -1.741  0.00  0.00    -0.083 Cl
ATOM     17  C   UNL d   1      26.398 -12.795  -2.420  0.00  0.00     0.071 A 
ATOM     18 CL   UNL d   1      26.897 -13.360  -0.856  0.00  0.00    -0.081 Cl
ENDBRANCH   8  11
ENDBRANCH   6   7
BRANCH   1  19
ATOM     19  O   UNL d   1      26.538 -16.743  -0.604  0.00  0.00    -0.354 OA
ATOM     20  C   UNL d   1      27.460 -17.581   0.081  0.00  0.00     0.210 C 
ENDBRANCH   1  19
BRANCH   4  21
ATOM     21  C   UNL d   1      21.243 -18.787  -0.474  0.00  0.00     0.249 C 
ATOM     22  N   UNL d   1      21.035 -19.913   0.279  0.00  0.00    -0.366 N 
ATOM     23  H   UNL d   1      21.747 -20.436   0.767  0.00  0.00     0.159 HD
ATOM     24  H   UNL d   1      20.080 -20.224   0.411  0.00  0.00     0.159 HD
ATOM     25  O   UNL d   1      20.280 -18.208  -0.983  0.00  0.00    -0.268 OA
ENDBRANCH   4  21
TORSDOF 4
ENDMDL
MODEL 3
REMARK VINA RESULT:    -7.442      2.913      7.015
REMARK INTER + INTRA:          -9.433
REMARK INTER:                  -8.635
REMARK INTRA:                  -0.798
REMARK CONF_INDEPENDENT:        1.193
REMARK UNBOUND:                -0.798
REMARK  4 active torsions:
REMARK  status: ('A' for Active; 'I' for Inactive)
REMARK    1  A    between atoms: O_2  and  C_3 
REMARK    2  A    between atoms: C_6  and  C_7 
REMARK       I    between atoms: C_7  and  N_8 
REMARK    3  A    between atoms: C_11  and  N_12 
REMARK       I    between atoms: N_12  and  C_13 
REMARK    4  A    between atoms: C_13  and  C_15 
ROOT
ATOM      1  C   UNL d   1      27.131 -13.900  -5.314  0.00  0.00     0.095 A 
ATOM      2  C   UNL d   1      27.637 -12.678  -5.781  0.00  0.00     0.040 A 
ATOM      3  C   UNL d   1      27.352 -11.472  -5.140  0.00  0.00     0.020 A 
ATOM      4  C   UNL d   1      26.468 -11.449  -4.063  0.00  0.00     0.034 A 
ATOM      5  C   UNL d   1      25.986 -12.678  -3.559  0.00  0.00     0.049 A 
ATOM      6  C   UNL d   1      26.359 -13.918  -4.138  0.00  0.00     0.069 A 
ENDROOT
BRANCH   6   7
ATOM      7  N   UNL d   1      25.897 -15.103  -3.499  0.00  0.00    -0.320 N 
ATOM      8  C   UNL d   1      24.752 -15.198  -2.733  0.00  0.00     0.258 C 
ATOM      9  O   UNL d   1      23.782 -14.450  -2.867  0.00  0.00    -0.267 OA
ATOM     10  H   UNL d   1      26.441 -15.946  -3.646  0.00  0.00     0.169 HD
BRANCH   8  11
ATOM     11  C   UNL d   1      24.682 -16.218  -1.630  0.00  0.00     0.055 A 
ATOM     12  C   UNL d   1      23.365 -16.589  -1.270  0.00  0.00     0.019 A 
ATOM     13  C   UNL d   1      23.112 -17.559  -0.307  0.00  0.00     0.003 A 
ATOM     14  C   UNL d   1      24.181 -18.200   0.298  0.00  0.00     0.026 A 
ATOM     15  C   UNL d   1      25.490 -17.774   0.044  0.00  0.00     0.056 A 
ATOM     16 CL   UNL d   1      26.747 -18.575   0.928  0.00  0.00    -0.083 Cl
ATOM     17  C   UNL d   1      25.754 -16.755  -0.896  0.00  0.00     0.071 A 
ATOM     18 CL   UNL d   1      27.383 -16.180  -1.073  0.00  0.00    -0.081 Cl
ENDBRANCH   8  11
ENDBRANCH   6   7
BRANCH   1  19
ATOM     19  O   UNL d   1      27.547 -14.958  -6.073  0.00  0.00    -0.354 OA
ATOM     20  C   UNL d   1      28.939 -15.178  -6.262  0.00  0.00     0.210 C 
ENDBRANCH   1  19
BRANCH   4  21
ATOM     21  C   UNL d   1      26.003 -10.152  -3.474  0.00  0.00     0.249 C 
ATOM     22  N   UNL d   1      24.859  -9.572  -3.956  0.00  0.00    -0.366 N 
ATOM     23  H   UNL d   1      24.272  -9.946  -4.687  0.00  0.00     0.159 HD
ATOM     24  H   UNL d   1      24.534  -8.724  -3.508  0.00  0.00     0.159 HD
ATOM     25  O   UNL d   1      26.609  -9.620  -2.540  0.00  0.00    -0.268 OA
ENDBRANCH   4  21
TORSDOF 4
ENDMDL
MODEL 4
REMARK VINA RESULT:    -7.378      1.481      1.927
REMARK INTER + INTRA:          -9.306
REMARK INTER:                  -8.571
REMARK INTRA:                  -0.735
REMARK CONF_INDEPENDENT:        1.193
REMARK UNBOUND:                -0.735
REMARK  4 active torsions:
REMARK  status: ('A' for Active; 'I' for Inactive)
REMARK    1  A    between atoms: O_2  and  C_3 
REMARK    2  A    between atoms: C_6  and  C_7 
REMARK       I    between atoms: C_7  and  N_8 
REMARK    3  A    between atoms: C_11  and  N_12 
REMARK       I    between atoms: N_12  and  C_13 
REMARK    4  A    between atoms: C_13  and  C_15 
ROOT
ATOM      1  C   UNL d   1      26.266 -17.081  -0.084  0.00  0.00     0.095 A 
ATOM      2  C   UNL d   1      25.689 -18.179   0.569  0.00  0.00     0.040 A 
ATOM      3  C   UNL d   1      24.374 -18.575   0.320  0.00  0.00     0.020 A 
ATOM      4  C   UNL d   1      23.568 -17.816  -0.526  0.00  0.00     0.034 A 
ATOM      5  C   UNL d   1      24.152 -16.732  -1.221  0.00  0.00     0.049 A 
ATOM      6  C   UNL d   1      25.519 -16.390  -1.056  0.00  0.00     0.069 A 
ENDROOT
BRANCH   6   7
ATOM      7  N   UNL d   1      26.035 -15.345  -1.872  0.00  0.00    -0.320 N 
ATOM      8  C   UNL d   1      25.397 -14.809  -2.975  0.00  0.00     0.258 C 
ATOM      9  O   UNL d   1      24.175 -14.825  -3.126  0.00  0.00    -0.267 OA
ATOM     10  H   UNL d   1      26.927 -14.947  -1.600  0.00  0.00     0.169 HD
BRANCH   8  11
ATOM     11  C   UNL d   1      26.217 -14.225  -4.091  0.00  0.00     0.055 A 
ATOM     12  C   UNL d   1      27.040 -15.164  -4.756  0.00  0.00     0.019 A 
ATOM     13  C   UNL d   1      27.825 -14.812  -5.847  0.00  0.00     0.003 A 
ATOM     14  C   UNL d   1      27.780 -13.509  -6.314  0.00  0.00     0.026 A 
ATOM     15  C   UNL d   1      27.064 -12.535  -5.609  0.00  0.00     0.056 A 
ATOM     16 CL   UNL d   1      27.154 -10.916  -6.221  0.00  0.00    -0.083 Cl
ATOM     17  C   UNL d   1      26.303 -12.874  -4.469  0.00  0.00     0.071 A 
ATOM     18 CL   UNL d   1      25.543 -11.604  -3.561  0.00  0.00    -0.081 Cl
ENDBRANCH   8  11
ENDBRANCH   6   7
BRANCH   1  19
ATOM     19  O   UNL d   1      27.565 -16.879   0.290  0.00  0.00    -0.354 OA
ATOM     20  C   UNL d   1      28.613 -17.256  -0.594  0.00  0.00     0.210 C 
ENDBRANCH   1  19
BRANCH   4  21
ATOM     21  C   UNL d   1      22.106 -18.110  -0.670  0.00  0.00     0.249 C 
ATOM     22  N   UNL d   1      21.619 -19.308  -0.214  0.00  0.00    -0.366 N 
ATOM     23  H   UNL d   1      22.161 -20.033   0.230  0.00  0.00     0.159 HD
ATOM     24  H   UNL d   1      20.620 -19.464  -0.273  0.00  0.00     0.159 HD
ATOM     25  O   UNL d   1      21.331 -17.281  -1.152  0.00  0.00    -0.268 OA
ENDBRANCH   4  21
TORSDOF 4
ENDMDL
MODEL 5
REMARK VINA RESULT:    -6.714      3.030      4.484
REMARK INTER + INTRA:          -8.686
REMARK INTER:                  -7.907
REMARK INTRA:                  -0.779
REMARK CONF_INDEPENDENT:        1.193
REMARK UNBOUND:                -0.779
REMARK  4 active torsions:
REMARK  status: ('A' for Active; 'I' for Inactive)
REMARK    1  A    between atoms: O_2  and  C_3 
REMARK    2  A    between atoms: C_6  and  C_7 
REMARK       I    between atoms: C_7  and  N_8 
REMARK    3  A    between atoms: C_11  and  N_12 
REMARK       I    between atoms: N_12  and  C_13 
REMARK    4  A    between atoms: C_13  and  C_15 
ROOT
ATOM      1  C   UNL d   1      25.509 -15.066  -3.103  0.00  0.00     0.095 A 
ATOM      2  C   UNL d   1      24.797 -15.625  -2.033  0.00  0.00     0.040 A 
ATOM      3  C   UNL d   1      25.435 -16.341  -1.019  0.00  0.00     0.020 A 
ATOM      4  C   UNL d   1      26.802 -16.599  -1.105  0.00  0.00     0.034 A 
ATOM      5  C   UNL d   1      27.536 -16.006  -2.158  0.00  0.00     0.049 A 
ATOM      6  C   UNL d   1      26.911 -15.185  -3.131  0.00  0.00     0.069 A 
ENDROOT
BRANCH   6   7
ATOM      7  N   UNL d   1      27.751 -14.556  -4.093  0.00  0.00    -0.320 N 
ATOM      8  C   UNL d   1      27.802 -14.880  -5.435  0.00  0.00     0.258 C 
ATOM      9  O   UNL d   1      26.864 -15.394  -6.045  0.00  0.00    -0.267 OA
ATOM     10  H   UNL d   1      28.333 -13.794  -3.766  0.00  0.00     0.169 HD
BRANCH   8  11
ATOM     11  C   UNL d   1      29.077 -14.660  -6.200  0.00  0.00     0.055 A 
ATOM     12  C   UNL d   1      29.099 -13.463  -6.954  0.00  0.00     0.019 A 
ATOM     13  C   UNL d   1      30.218 -13.072  -7.680  0.00  0.00     0.003 A 
ATOM     14  C   UNL d   1      31.354 -13.864  -7.642  0.00  0.00     0.026 A 
ATOM     15  C   UNL d   1      31.322 -15.106  -6.999  0.00  0.00     0.056 A 
ATOM     16 CL   UNL d   1      32.764 -16.063  -7.096  0.00  0.00    -0.083 Cl
ATOM     17  C   UNL d   1      30.173 -15.535  -6.300  0.00  0.00     0.071 A 
ATOM     18 CL   UNL d   1      30.147 -17.139  -5.634  0.00  0.00    -0.081 Cl
ENDBRANCH   8  11
ENDBRANCH   6   7
BRANCH   1  19
ATOM     19  O   UNL d   1      24.697 -14.390  -3.970  0.00  0.00    -0.354 OA
ATOM     20  C   UNL d   1      25.085 -13.103  -4.431  0.00  0.00     0.210 C 
ENDBRANCH   1  19
BRANCH   4  21
ATOM     21  C   UNL d   1      27.477 -17.517  -0.131  0.00  0.00     0.249 C 
ATOM     22  N   UNL d   1      28.844 -17.614  -0.145  0.00  0.00    -0.366 N 
ATOM     23  H   UNL d   1      29.465 -17.108  -0.759  0.00  0.00     0.159 HD
ATOM     24  H   UNL d   1      29.283 -18.200   0.556  0.00  0.00     0.159 HD
ATOM     25  O   UNL d   1      26.829 -18.152   0.703  0.00  0.00    -0.268 OA
ENDBRANCH   4  21
TORSDOF 4
ENDMDL
MODEL 6
REMARK VINA RESULT:    -6.661      2.759      4.414
REMARK INTER + INTRA:          -8.637
REMARK INTER:                  -7.855
REMARK INTRA:                  -0.782
REMARK CONF_INDEPENDENT:        1.193
REMARK UNBOUND:                -0.782
REMARK  4 active torsions:
REMARK  status: ('A' for Active; 'I' for Inactive)
REMARK    1  A    between atoms: O_2  and  C_3 
REMARK    2  A    between atoms: C_6  and  C_7 
REMARK       I    between atoms: C_7  and  N_8 
REMARK    3  A    between atoms: C_11  and  N_12 
REMARK       I    between atoms: N_12  and  C_13 
REMARK    4  A    between atoms: C_13  and  C_15 
ROOT
ATOM      1  C   UNL d   1      25.353 -15.174  -3.081  0.00  0.00     0.095 A 
ATOM      2  C   UNL d   1      24.598 -15.705  -2.025  0.00  0.00     0.040 A 
ATOM      3  C   UNL d   1      25.184 -16.464  -1.012  0.00  0.00     0.020 A 
ATOM      4  C   UNL d   1      26.537 -16.793  -1.083  0.00  0.00     0.034 A 
ATOM      5  C   UNL d   1      27.315 -16.228  -2.120  0.00  0.00     0.049 A 
ATOM      6  C   UNL d   1      26.747 -15.366  -3.092  0.00  0.00     0.069 A 
ENDROOT
BRANCH   6   7
ATOM      7  N   UNL d   1      27.631 -14.772  -4.036  0.00  0.00    -0.320 N 
ATOM      8  C   UNL d   1      27.697 -15.099  -5.377  0.00  0.00     0.258 C 
ATOM      9  O   UNL d   1      26.751 -15.575  -6.006  0.00  0.00    -0.267 OA
ATOM     10  H   UNL d   1      28.236 -14.033  -3.697  0.00  0.00     0.169 HD
BRANCH   8  11
ATOM     11  C   UNL d   1      28.995 -14.931  -6.116  0.00  0.00     0.055 A 
ATOM     12  C   UNL d   1      29.932 -15.966  -5.880  0.00  0.00     0.019 A 
ATOM     13  C   UNL d   1      31.164 -16.002  -6.520  0.00  0.00     0.003 A 
ATOM     14  C   UNL d   1      31.474 -15.012  -7.438  0.00  0.00     0.026 A 
ATOM     15  C   UNL d   1      30.617 -13.918  -7.606  0.00  0.00     0.056 A 
ATOM     16 CL   UNL d   1      31.146 -12.685  -8.703  0.00  0.00    -0.083 Cl
ATOM     17  C   UNL d   1      29.385 -13.847  -6.921  0.00  0.00     0.071 A 
ATOM     18 CL   UNL d   1      28.425 -12.407  -7.070  0.00  0.00    -0.081 Cl
ENDBRANCH   8  11
ENDBRANCH   6   7
BRANCH   1  19
ATOM     19  O   UNL d   1      24.589 -14.448  -3.951  0.00  0.00    -0.354 OA
ATOM     20  C   UNL d   1      24.906 -13.082  -4.187  0.00  0.00     0.210 C 
ENDBRANCH   1  19
BRANCH   4  21
ATOM     21  C   UNL d   1      27.150 -17.754  -0.111  0.00  0.00     0.249 C 
ATOM     22  N   UNL d   1      28.504 -17.964  -0.145  0.00  0.00    -0.366 N 
ATOM     23  H   UNL d   1      29.154 -17.517  -0.774  0.00  0.00     0.159 HD
ATOM     24  H   UNL d   1      28.905 -18.578   0.554  0.00  0.00     0.159 HD
ATOM     25  O   UNL d   1      26.466 -18.327   0.740  0.00  0.00    -0.268 OA
ENDBRANCH   4  21
TORSDOF 4
ENDMDL
MODEL 7
REMARK VINA RESULT:    -6.145      3.351      7.323
REMARK INTER + INTRA:          -8.228
REMARK INTER:                  -7.338
REMARK INTRA:                  -0.889
REMARK CONF_INDEPENDENT:        1.193
REMARK UNBOUND:                -0.889
REMARK  4 active torsions:
REMARK  status: ('A' for Active; 'I' for Inactive)
REMARK    1  A    between atoms: O_2  and  C_3 
REMARK    2  A    between atoms: C_6  and  C_7 
REMARK       I    between atoms: C_7  and  N_8 
REMARK    3  A    between atoms: C_11  and  N_12 
REMARK       I    between atoms: N_12  and  C_13 
REMARK    4  A    between atoms: C_13  and  C_15 
ROOT
ATOM      1  C   UNL d   1      25.932 -13.197  -4.444  0.00  0.00     0.095 A 
ATOM      2  C   UNL d   1      25.989 -12.208  -5.437  0.00  0.00     0.040 A 
ATOM      3  C   UNL d   1      26.108 -10.855  -5.120  0.00  0.00     0.020 A 
ATOM      4  C   UNL d   1      26.077 -10.447  -3.788  0.00  0.00     0.034 A 
ATOM      5  C   UNL d   1      26.061 -11.438  -2.779  0.00  0.00     0.049 A 
ATOM      6  C   UNL d   1      26.050 -12.821  -3.093  0.00  0.00     0.069 A 
ENDROOT
BRANCH   6   7
ATOM      7  N   UNL d   1      26.133 -13.739  -2.009  0.00  0.00    -0.320 N 
ATOM      8  C   UNL d   1      27.062 -14.755  -1.897  0.00  0.00     0.258 C 
ATOM      9  O   UNL d   1      28.167 -14.727  -2.440  0.00  0.00    -0.267 OA
ATOM     10  H   UNL d   1      25.473 -13.612  -1.249  0.00  0.00     0.169 HD
BRANCH   8  11
ATOM     11  C   UNL d   1      26.709 -15.998  -1.129  0.00  0.00     0.055 A 
ATOM     12  C   UNL d   1      27.826 -16.687  -0.600  0.00  0.00     0.019 A 
ATOM     13  C   UNL d   1      27.685 -17.826   0.182  0.00  0.00     0.003 A 
ATOM     14  C   UNL d   1      26.411 -18.286   0.476  0.00  0.00     0.026 A 
ATOM     15  C   UNL d   1      25.295 -17.692  -0.125  0.00  0.00     0.056 A 
ATOM     16 CL   UNL d   1      23.757 -18.407   0.230  0.00  0.00    -0.083 Cl
ATOM     17  C   UNL d   1      25.433 -16.564  -0.962  0.00  0.00     0.071 A 
ATOM     18 CL   UNL d   1      24.030 -15.953  -1.783  0.00  0.00    -0.081 Cl
ENDBRANCH   8  11
ENDBRANCH   6   7
BRANCH   1  19
ATOM     19  O   UNL d   1      25.836 -14.455  -4.970  0.00  0.00    -0.354 OA
ATOM     20  C   UNL d   1      27.021 -15.200  -5.219  0.00  0.00     0.210 C 
ENDBRANCH   1  19
BRANCH   4  21
ATOM     21  C   UNL d   1      26.018  -8.994  -3.426  0.00  0.00     0.249 C 
ATOM     22  N   UNL d   1      24.802  -8.364  -3.390  0.00  0.00    -0.366 N 
ATOM     23  H   UNL d   1      23.909  -8.794  -3.580  0.00  0.00     0.159 HD
ATOM     24  H   UNL d   1      24.780  -7.396  -3.092  0.00  0.00     0.159 HD
ATOM     25  O   UNL d   1      27.037  -8.369  -3.124  0.00  0.00    -0.268 OA
ENDBRANCH   4  21
TORSDOF 4
ENDMDL
MODEL 8
REMARK VINA RESULT:    -6.055      2.098      3.835
REMARK INTER + INTRA:          -7.995
REMARK INTER:                  -7.248
REMARK INTRA:                  -0.747
REMARK CONF_INDEPENDENT:        1.193
REMARK UNBOUND:                -0.747
REMARK  4 active torsions:
REMARK  status: ('A' for Active; 'I' for Inactive)
REMARK    1  A    between atoms: O_2  and  C_3 
REMARK    2  A    between atoms: C_6  and  C_7 
REMARK       I    between atoms: C_7  and  N_8 
REMARK    3  A    between atoms: C_11  and  N_12 
REMARK       I    between atoms: N_12  and  C_13 
REMARK    4  A    between atoms: C_13  and  C_15 
ROOT
ATOM      1  C   UNL d   1      25.531 -16.330  -1.208  0.00  0.00     0.095 A 
ATOM      2  C   UNL d   1      25.872 -17.325  -0.280  0.00  0.00     0.040 A 
ATOM      3  C   UNL d   1      27.200 -17.631   0.015  0.00  0.00     0.020 A 
ATOM      4  C   UNL d   1      28.230 -17.009  -0.689  0.00  0.00     0.034 A 
ATOM      5  C   UNL d   1      27.899 -15.976  -1.597  0.00  0.00     0.049 A 
ATOM      6  C   UNL d   1      26.555 -15.584  -1.821  0.00  0.00     0.069 A 
ENDROOT
BRANCH   6   7
ATOM      7  N   UNL d   1      26.333 -14.470  -2.679  0.00  0.00    -0.320 N 
ATOM      8  C   UNL d   1      26.056 -14.552  -4.030  0.00  0.00     0.258 C 
ATOM      9  O   UNL d   1      25.531 -15.534  -4.557  0.00  0.00    -0.267 OA
ATOM     10  H   UNL d   1      26.352 -13.551  -2.253  0.00  0.00     0.169 HD
BRANCH   8  11
ATOM     11  C   UNL d   1      26.461 -13.424  -4.937  0.00  0.00     0.055 A 
ATOM     12  C   UNL d   1      25.605 -12.298  -4.876  0.00  0.00     0.019 A 
ATOM     13  C   UNL d   1      25.857 -11.143  -5.606  0.00  0.00     0.003 A 
ATOM     14  C   UNL d   1      26.993 -11.082  -6.396  0.00  0.00     0.026 A 
ATOM     15  C   UNL d   1      27.793 -12.217  -6.563  0.00  0.00     0.056 A 
ATOM     16 CL   UNL d   1      29.133 -12.063  -7.652  0.00  0.00    -0.083 Cl
ATOM     17  C   UNL d   1      27.517 -13.412  -5.864  0.00  0.00     0.071 A 
ATOM     18 CL   UNL d   1      28.466 -14.824  -6.212  0.00  0.00    -0.081 Cl
ENDBRANCH   8  11
ENDBRANCH   6   7
BRANCH   1  19
ATOM     19  O   UNL d   1      24.178 -16.177  -1.332  0.00  0.00    -0.354 OA
ATOM     20  C   UNL d   1      23.315 -17.223  -0.903  0.00  0.00     0.210 C 
ENDBRANCH   1  19
BRANCH   4  21
ATOM     21  C   UNL d   1      29.653 -17.447  -0.524  0.00  0.00     0.249 C 
ATOM     22  N   UNL d   1      30.382 -16.964   0.531  0.00  0.00    -0.366 N 
ATOM     23  H   UNL d   1      30.045 -16.327   1.237  0.00  0.00     0.159 HD
ATOM     24  H   UNL d   1      31.325 -17.313   0.653  0.00  0.00     0.159 HD
ATOM     25  O   UNL d   1      30.165 -18.262  -1.296  0.00  0.00    -0.268 OA
ENDBRANCH   4  21
TORSDOF 4
ENDMDL
MODEL 9
REMARK VINA RESULT:    -6.014      3.212      7.189
REMARK INTER + INTRA:          -8.089
REMARK INTER:                  -7.207
REMARK INTRA:                  -0.882
REMARK CONF_INDEPENDENT:        1.193
REMARK UNBOUND:                -0.882
REMARK  4 active torsions:
REMARK  status: ('A' for Active; 'I' for Inactive)
REMARK    1  A    between atoms: O_2  and  C_3 
REMARK    2  A    between atoms: C_6  and  C_7 
REMARK       I    between atoms: C_7  and  N_8 
REMARK    3  A    between atoms: C_11  and  N_12 
REMARK       I    between atoms: N_12  and  C_13 
REMARK    4  A    between atoms: C_13  and  C_15 
ROOT
ATOM      1  C   UNL d   1      28.424 -14.341  -6.601  0.00  0.00     0.095 A 
ATOM      2  C   UNL d   1      28.732 -13.282  -7.467  0.00  0.00     0.040 A 
ATOM      3  C   UNL d   1      28.125 -12.032  -7.346  0.00  0.00     0.020 A 
ATOM      4  C   UNL d   1      27.115 -11.838  -6.405  0.00  0.00     0.034 A 
ATOM      5  C   UNL d   1      26.825 -12.885  -5.501  0.00  0.00     0.049 A 
ATOM      6  C   UNL d   1      27.516 -14.123  -5.548  0.00  0.00     0.069 A 
ENDROOT
BRANCH   6   7
ATOM      7  N   UNL d   1      27.220 -15.076  -4.534  0.00  0.00    -0.320 N 
ATOM      8  C   UNL d   1      26.050 -15.117  -3.800  0.00  0.00     0.258 C 
ATOM      9  O   UNL d   1      24.978 -14.665  -4.205  0.00  0.00    -0.267 OA
ATOM     10  H   UNL d   1      27.913 -15.796  -4.363  0.00  0.00     0.169 HD
BRANCH   8  11
ATOM     11  C   UNL d   1      26.071 -15.683  -2.407  0.00  0.00     0.055 A 
ATOM     12  C   UNL d   1      25.130 -16.717  -2.189  0.00  0.00     0.019 A 
ATOM     13  C   UNL d   1      25.045 -17.390  -0.977  0.00  0.00     0.003 A 
ATOM     14  C   UNL d   1      25.927 -17.059   0.039  0.00  0.00     0.026 A 
ATOM     15  C   UNL d   1      26.790 -15.967  -0.109  0.00  0.00     0.056 A 
ATOM     16 CL   UNL d   1      27.779 -15.575   1.258  0.00  0.00    -0.083 Cl
ATOM     17  C   UNL d   1      26.847 -15.244  -1.320  0.00  0.00     0.071 A 
ATOM     18 CL   UNL d   1      27.840 -13.822  -1.400  0.00  0.00    -0.081 Cl
ENDBRANCH   8  11
ENDBRANCH   6   7
BRANCH   1  19
ATOM     19  O   UNL d   1      29.144 -15.467  -6.882  0.00  0.00    -0.354 OA
ATOM     20  C   UNL d   1      30.116 -15.925  -5.950  0.00  0.00     0.210 C 
ENDBRANCH   1  19
BRANCH   4  21
ATOM     21  C   UNL d   1      26.322 -10.567  -6.375  0.00  0.00     0.249 C 
ATOM     22  N   UNL d   1      25.164 -10.521  -5.643  0.00  0.00    -0.366 N 
ATOM     23  H   UNL d   1      24.781 -11.278  -5.097  0.00  0.00     0.159 HD
ATOM     24  H   UNL d   1      24.671  -9.637  -5.593  0.00  0.00     0.159 HD
ATOM     25  O   UNL d   1      26.712  -9.556  -6.963  0.00  0.00    -0.268 OA
ENDBRANCH   4  21
TORSDOF 4
ENDMDL
