MODEL 1
REMARK VINA RESULT:    -8.467      0.000      0.000
REMARK INTER + INTRA:         -14.642
REMARK INTER:                 -10.853
REMARK INTRA:                  -3.789
REMARK CONF_INDEPENDENT:        2.386
REMARK UNBOUND:                -3.789
REMARK  8 active torsions:
REMARK  status: ('A' for Active; 'I' for Inactive)
REMARK    1  A    between atoms: C_8  and  N_9 
REMARK       I    between atoms: N_9  and  C_10 
REMARK    2  A    between atoms: C_10  and  C_12 
REMARK       I    between atoms: C_12  and  N_14 
REMARK    3  A    between atoms: N_14  and  C_15 
REMARK    4  A    between atoms: C_15  and  C_16 
REMARK    5  A    between atoms: C_20  and  C_21 
REMARK    6  A    between atoms: C_21  and  N_22 
REMARK       I    between atoms: N_22  and  C_23 
REMARK    7  A    between atoms: C_23  and  C_25 
REMARK       I    between atoms: C_25  and  N_27 
REMARK    8  A    between atoms: N_27  and  C_28 
ROOT
ATOM      1  C   UNL d   1      25.872  -8.282  -2.579  0.00  0.00    -0.040 A 
ATOM      2  C   UNL d   1      25.523  -7.315  -3.533  0.00  0.00     0.009 A 
ATOM      3  C   UNL d   1      25.240  -7.671  -4.838  0.00  0.00     0.001 A 
ATOM      4  C   UNL d   1      25.355  -8.996  -5.232  0.00  0.00     0.009 A 
ATOM      5  C   UNL d   1      25.759 -10.002  -4.343  0.00  0.00    -0.040 A 
ATOM      6  C   UNL d   1      26.010  -9.625  -3.001  0.00  0.00     0.017 A 
ENDROOT
BRANCH   1   7
ATOM      7  C   UNL d   1      26.067  -7.901  -1.127  0.00  0.00     0.161 C 
BRANCH   7   8
ATOM      8  N   UNL d   1      26.538  -8.988  -0.306  0.00  0.00    -0.349 N 
ATOM      9  C   UNL d   1      26.295  -9.105   1.063  0.00  0.00     0.309 C 
ATOM     10  O   UNL d   1      25.530  -8.441   1.746  0.00  0.00    -0.262 OA
ATOM     11  H   UNL d   1      27.333  -9.540  -0.642  0.00  0.00     0.163 HD
BRANCH   9  12
ATOM     12  C   UNL d   1      27.216 -10.155   1.683  0.00  0.00     0.314 C 
ATOM     13  N   UNL d   1      26.747 -10.961   2.727  0.00  0.00    -0.318 N 
ATOM     14  H   UNL d   1      25.811 -10.726   3.047  0.00  0.00     0.169 HD
ATOM     15  O   UNL d   1      28.314 -10.106   1.134  0.00  0.00    -0.262 OA
BRANCH  13  16
ATOM     16  C   UNL d   1      27.405 -12.072   3.392  0.00  0.00     0.047 A 
ATOM     17  C   UNL d   1      27.433 -13.363   2.778  0.00  0.00    -0.035 A 
ATOM     18  C   UNL d   1      28.107 -14.448   3.409  0.00  0.00     0.009 A 
ATOM     19  C   UNL d   1      26.792 -13.701   1.454  0.00  0.00     0.050 C 
ATOM     20  C   UNL d   1      28.745 -14.300   4.629  0.00  0.00     0.001 A 
ATOM     21  C   UNL d   1      28.718 -13.067   5.238  0.00  0.00     0.009 A 
ATOM     22  C   UNL d   1      28.066 -11.967   4.646  0.00  0.00    -0.035 A 
ATOM     23  C   UNL d   1      28.159 -10.729   5.473  0.00  0.00     0.050 C 
ENDBRANCH  13  16
ENDBRANCH   9  12
ENDBRANCH   7   8
ENDBRANCH   1   7
BRANCH   5  24
ATOM     24  C   UNL d   1      25.904 -11.455  -4.786  0.00  0.00     0.161 C 
BRANCH  24  25
ATOM     25  N   UNL d   1      26.075 -12.416  -3.705  0.00  0.00    -0.349 N 
ATOM     26  C   UNL d   1      25.513 -13.674  -3.657  0.00  0.00     0.309 C 
ATOM     27  O   UNL d   1      24.735 -14.150  -4.467  0.00  0.00    -0.262 OA
ATOM     28  H   UNL d   1      26.693 -12.221  -2.926  0.00  0.00     0.163 HD
BRANCH  26  29
ATOM     29  C   UNL d   1      25.974 -14.482  -2.410  0.00  0.00     0.314 C 
ATOM     30  O   UNL d   1      26.649 -13.886  -1.574  0.00  0.00    -0.262 OA
ATOM     31  N   UNL d   1      25.578 -15.818  -2.376  0.00  0.00    -0.318 N 
ATOM     32  H   UNL d   1      25.271 -16.216  -3.257  0.00  0.00     0.169 HD
BRANCH  31  33
ATOM     33  C   UNL d   1      25.820 -16.685  -1.272  0.00  0.00     0.047 A 
ATOM     34  C   UNL d   1      27.137 -16.987  -0.856  0.00  0.00    -0.035 A 
ATOM     35  C   UNL d   1      28.373 -16.352  -1.436  0.00  0.00     0.050 C 
ATOM     36  C   UNL d   1      27.347 -17.883   0.213  0.00  0.00     0.009 A 
ATOM     37  C   UNL d   1      26.280 -18.464   0.884  0.00  0.00     0.001 A 
ATOM     38  C   UNL d   1      24.982 -18.135   0.513  0.00  0.00     0.009 A 
ATOM     39  C   UNL d   1      24.734 -17.233  -0.545  0.00  0.00    -0.035 A 
ATOM     40  C   UNL d   1      23.294 -16.971  -0.896  0.00  0.00     0.050 C 
ENDBRANCH  31  33
ENDBRANCH  26  29
ENDBRANCH  24  25
ENDBRANCH   5  24
TORSDOF 8
ENDMDL
MODEL 2
REMARK VINA RESULT:    -8.453      0.114      1.461
REMARK INTER + INTRA:         -14.636
REMARK INTER:                 -10.840
REMARK INTRA:                  -3.796
REMARK CONF_INDEPENDENT:        2.386
REMARK UNBOUND:                -3.796
REMARK  8 active torsions:
REMARK  status: ('A' for Active; 'I' for Inactive)
REMARK    1  A    between atoms: C_8  and  N_9 
REMARK       I    between atoms: N_9  and  C_10 
REMARK    2  A    between atoms: C_10  and  C_12 
REMARK       I    between atoms: C_12  and  N_14 
REMARK    3  A    between atoms: N_14  and  C_15 
REMARK    4  A    between atoms: C_15  and  C_16 
REMARK    5  A    between atoms: C_20  and  C_21 
REMARK    6  A    between atoms: C_21  and  N_22 
REMARK       I    between atoms: N_22  and  C_23 
REMARK    7  A    between atoms: C_23  and  C_25 
REMARK       I    between atoms: C_25  and  N_27 
REMARK    8  A    between atoms: N_27  and  C_28 
ROOT
ATOM      1  C   UNL d   1      25.864  -8.220  -2.565  0.00  0.00    -0.040 A 
ATOM      2  C   UNL d   1      25.409  -7.271  -3.493  0.00  0.00     0.009 A 
ATOM      3  C   UNL d   1      25.037  -7.645  -4.769  0.00  0.00     0.001 A 
ATOM      4  C   UNL d   1      25.164  -8.969  -5.166  0.00  0.00     0.009 A 
ATOM      5  C   UNL d   1      25.670  -9.955  -4.306  0.00  0.00    -0.040 A 
ATOM      6  C   UNL d   1      26.013  -9.560  -2.991  0.00  0.00     0.017 A 
ENDROOT
BRANCH   1   7
ATOM      7  C   UNL d   1      26.160  -7.822  -1.134  0.00  0.00     0.161 C 
BRANCH   7   8
ATOM      8  N   UNL d   1      26.625  -8.916  -0.319  0.00  0.00    -0.349 N 
ATOM      9  C   UNL d   1      26.335  -9.067   1.037  0.00  0.00     0.309 C 
ATOM     10  O   UNL d   1      25.530  -8.435   1.705  0.00  0.00    -0.262 OA
ATOM     11  H   UNL d   1      27.445  -9.442  -0.636  0.00  0.00     0.163 HD
BRANCH   9  12
ATOM     12  C   UNL d   1      27.256 -10.109   1.670  0.00  0.00     0.314 C 
ATOM     13  N   UNL d   1      26.745 -11.007   2.613  0.00  0.00    -0.318 N 
ATOM     14  H   UNL d   1      25.772 -10.842   2.862  0.00  0.00     0.169 HD
ATOM     15  O   UNL d   1      28.393  -9.967   1.227  0.00  0.00    -0.262 OA
BRANCH  13  16
ATOM     16  C   UNL d   1      27.404 -12.127   3.263  0.00  0.00     0.047 A 
ATOM     17  C   UNL d   1      27.979 -11.968   4.563  0.00  0.00    -0.035 A 
ATOM     18  C   UNL d   1      28.595 -13.071   5.220  0.00  0.00     0.009 A 
ATOM     19  C   UNL d   1      27.988 -10.679   5.348  0.00  0.00     0.050 C 
ATOM     20  C   UNL d   1      28.669 -14.322   4.630  0.00  0.00     0.001 A 
ATOM     21  C   UNL d   1      28.130 -14.490   3.376  0.00  0.00     0.009 A 
ATOM     22  C   UNL d   1      27.509 -13.425   2.694  0.00  0.00    -0.035 A 
ATOM     23  C   UNL d   1      26.994 -13.824   1.351  0.00  0.00     0.050 C 
ENDBRANCH  13  16
ENDBRANCH   9  12
ENDBRANCH   7   8
ENDBRANCH   1   7
BRANCH   5  24
ATOM     24  C   UNL d   1      25.827 -11.405  -4.753  0.00  0.00     0.161 C 
BRANCH  24  25
ATOM     25  N   UNL d   1      25.994 -12.369  -3.674  0.00  0.00    -0.349 N 
ATOM     26  C   UNL d   1      25.493 -13.654  -3.665  0.00  0.00     0.309 C 
ATOM     27  O   UNL d   1      24.780 -14.159  -4.516  0.00  0.00    -0.262 OA
ATOM     28  H   UNL d   1      26.562 -12.153  -2.865  0.00  0.00     0.163 HD
BRANCH  26  29
ATOM     29  C   UNL d   1      25.934 -14.452  -2.404  0.00  0.00     0.314 C 
ATOM     30  O   UNL d   1      26.533 -13.833  -1.529  0.00  0.00    -0.262 OA
ATOM     31  N   UNL d   1      25.609 -15.808  -2.404  0.00  0.00    -0.318 N 
ATOM     32  H   UNL d   1      25.368 -16.210  -3.303  0.00  0.00     0.169 HD
BRANCH  31  33
ATOM     33  C   UNL d   1      25.841 -16.675  -1.298  0.00  0.00     0.047 A 
ATOM     34  C   UNL d   1      27.154 -17.007  -0.893  0.00  0.00    -0.035 A 
ATOM     35  C   UNL d   1      28.399 -16.404  -1.490  0.00  0.00     0.050 C 
ATOM     36  C   UNL d   1      27.353 -17.902   0.178  0.00  0.00     0.009 A 
ATOM     37  C   UNL d   1      26.280 -18.454   0.863  0.00  0.00     0.001 A 
ATOM     38  C   UNL d   1      24.987 -18.095   0.503  0.00  0.00     0.009 A 
ATOM     39  C   UNL d   1      24.749 -17.193  -0.558  0.00  0.00    -0.035 A 
ATOM     40  C   UNL d   1      23.313 -16.898  -0.895  0.00  0.00     0.050 C 
ENDBRANCH  31  33
ENDBRANCH  26  29
ENDBRANCH  24  25
ENDBRANCH   5  24
TORSDOF 8
ENDMDL
MODEL 3
REMARK VINA RESULT:    -7.962      0.449      5.903
REMARK INTER + INTRA:         -14.394
REMARK INTER:                 -10.349
REMARK INTRA:                  -4.045
REMARK CONF_INDEPENDENT:        2.386
REMARK UNBOUND:                -4.045
REMARK  8 active torsions:
REMARK  status: ('A' for Active; 'I' for Inactive)
REMARK    1  A    between atoms: C_8  and  N_9 
REMARK       I    between atoms: N_9  and  C_10 
REMARK    2  A    between atoms: C_10  and  C_12 
REMARK       I    between atoms: C_12  and  N_14 
REMARK    3  A    between atoms: N_14  and  C_15 
REMARK    4  A    between atoms: C_15  and  C_16 
REMARK    5  A    between atoms: C_20  and  C_21 
REMARK    6  A    between atoms: C_21  and  N_22 
REMARK       I    between atoms: N_22  and  C_23 
REMARK    7  A    between atoms: C_23  and  C_25 
REMARK       I    between atoms: C_25  and  N_27 
REMARK    8  A    between atoms: N_27  and  C_28 
ROOT
ATOM      1  C   UNL d   1      25.904 -10.272  -4.504  0.00  0.00    -0.040 A 
ATOM      2  C   UNL d   1      25.176  -9.355  -5.277  0.00  0.00     0.009 A 
ATOM      3  C   UNL d   1      24.912  -8.082  -4.811  0.00  0.00     0.001 A 
ATOM      4  C   UNL d   1      25.323  -7.714  -3.538  0.00  0.00     0.009 A 
ATOM      5  C   UNL d   1      26.000  -8.603  -2.691  0.00  0.00    -0.040 A 
ATOM      6  C   UNL d   1      26.293  -9.892  -3.199  0.00  0.00     0.017 A 
ENDROOT
BRANCH   1   7
ATOM      7  C   UNL d   1      26.289 -11.624  -5.067  0.00  0.00     0.161 C 
BRANCH   7   8
ATOM      8  N   UNL d   1      26.436 -12.644  -4.059  0.00  0.00    -0.349 N 
ATOM      9  C   UNL d   1      25.564 -13.720  -3.892  0.00  0.00     0.309 C 
ATOM     10  O   UNL d   1      24.667 -14.078  -4.640  0.00  0.00    -0.262 OA
ATOM     11  H   UNL d   1      27.006 -12.432  -3.234  0.00  0.00     0.163 HD
BRANCH   9  12
ATOM     12  C   UNL d   1      25.797 -14.394  -2.541  0.00  0.00     0.314 C 
ATOM     13  N   UNL d   1      25.619 -15.777  -2.414  0.00  0.00    -0.318 N 
ATOM     14  H   UNL d   1      25.269 -16.231  -3.254  0.00  0.00     0.169 HD
ATOM     15  O   UNL d   1      26.110 -13.544  -1.712  0.00  0.00    -0.262 OA
BRANCH  13  16
ATOM     16  C   UNL d   1      25.874 -16.632  -1.268  0.00  0.00     0.047 A 
ATOM     17  C   UNL d   1      24.785 -17.234  -0.564  0.00  0.00    -0.035 A 
ATOM     18  C   UNL d   1      25.030 -18.101   0.539  0.00  0.00     0.009 A 
ATOM     19  C   UNL d   1      23.327 -17.034  -0.900  0.00  0.00     0.050 C 
ATOM     20  C   UNL d   1      26.314 -18.385   0.973  0.00  0.00     0.001 A 
ATOM     21  C   UNL d   1      27.373 -17.806   0.313  0.00  0.00     0.009 A 
ATOM     22  C   UNL d   1      27.173 -16.945  -0.785  0.00  0.00    -0.035 A 
ATOM     23  C   UNL d   1      28.454 -16.429  -1.351  0.00  0.00     0.050 C 
ENDBRANCH  13  16
ENDBRANCH   9  12
ENDBRANCH   7   8
ENDBRANCH   1   7
BRANCH   5  24
ATOM     24  C   UNL d   1      26.431  -8.201  -1.284  0.00  0.00     0.161 C 
BRANCH  24  25
ATOM     25  N   UNL d   1      26.986  -9.279  -0.476  0.00  0.00    -0.349 N 
ATOM     26  C   UNL d   1      26.659  -9.546   0.836  0.00  0.00     0.309 C 
ATOM     27  O   UNL d   1      25.915  -8.887   1.545  0.00  0.00    -0.262 OA
ATOM     28  H   UNL d   1      27.626  -9.954  -0.877  0.00  0.00     0.163 HD
BRANCH  26  29
ATOM     29  C   UNL d   1      27.360 -10.827   1.374  0.00  0.00     0.314 C 
ATOM     30  O   UNL d   1      28.298 -11.270   0.716  0.00  0.00    -0.262 OA
ATOM     31  N   UNL d   1      26.835 -11.351   2.553  0.00  0.00    -0.318 N 
ATOM     32  H   UNL d   1      25.907 -11.034   2.811  0.00  0.00     0.169 HD
BRANCH  31  33
ATOM     33  C   UNL d   1      27.405 -12.457   3.247  0.00  0.00     0.047 A 
ATOM     34  C   UNL d   1      27.465 -13.739   2.654  0.00  0.00    -0.035 A 
ATOM     35  C   UNL d   1      27.058 -14.032   1.233  0.00  0.00     0.050 C 
ATOM     36  C   UNL d   1      27.995 -14.825   3.381  0.00  0.00     0.009 A 
ATOM     37  C   UNL d   1      28.483 -14.658   4.669  0.00  0.00     0.001 A 
ATOM     38  C   UNL d   1      28.473 -13.392   5.241  0.00  0.00     0.009 A 
ATOM     39  C   UNL d   1      27.960 -12.279   4.539  0.00  0.00    -0.035 A 
ATOM     40  C   UNL d   1      27.958 -10.958   5.260  0.00  0.00     0.050 C 
ENDBRANCH  31  33
ENDBRANCH  26  29
ENDBRANCH  24  25
ENDBRANCH   5  24
TORSDOF 8
ENDMDL
MODEL 4
REMARK VINA RESULT:    -7.936      0.446      5.917
REMARK INTER + INTRA:         -14.354
REMARK INTER:                 -10.323
REMARK INTRA:                  -4.031
REMARK CONF_INDEPENDENT:        2.386
REMARK UNBOUND:                -4.031
REMARK  8 active torsions:
REMARK  status: ('A' for Active; 'I' for Inactive)
REMARK    1  A    between atoms: C_8  and  N_9 
REMARK       I    between atoms: N_9  and  C_10 
REMARK    2  A    between atoms: C_10  and  C_12 
REMARK       I    between atoms: C_12  and  N_14 
REMARK    3  A    between atoms: N_14  and  C_15 
REMARK    4  A    between atoms: C_15  and  C_16 
REMARK    5  A    between atoms: C_20  and  C_21 
REMARK    6  A    between atoms: C_21  and  N_22 
REMARK       I    between atoms: N_22  and  C_23 
REMARK    7  A    between atoms: C_23  and  C_25 
REMARK       I    between atoms: C_25  and  N_27 
REMARK    8  A    between atoms: N_27  and  C_28 
ROOT
ATOM      1  C   UNL d   1      25.732 -10.139  -4.441  0.00  0.00    -0.040 A 
ATOM      2  C   UNL d   1      25.038  -9.175  -5.186  0.00  0.00     0.009 A 
ATOM      3  C   UNL d   1      24.836  -7.901  -4.690  0.00  0.00     0.001 A 
ATOM      4  C   UNL d   1      25.274  -7.580  -3.414  0.00  0.00     0.009 A 
ATOM      5  C   UNL d   1      25.919  -8.517  -2.593  0.00  0.00    -0.040 A 
ATOM      6  C   UNL d   1      26.149  -9.806  -3.131  0.00  0.00     0.017 A 
ENDROOT
BRANCH   1   7
ATOM      7  C   UNL d   1      26.050 -11.495  -5.036  0.00  0.00     0.161 C 
BRANCH   7   8
ATOM      8  N   UNL d   1      26.267 -12.520  -4.046  0.00  0.00    -0.349 N 
ATOM      9  C   UNL d   1      25.489 -13.670  -3.918  0.00  0.00     0.309 C 
ATOM     10  O   UNL d   1      24.639 -14.088  -4.690  0.00  0.00    -0.262 OA
ATOM     11  H   UNL d   1      26.802 -12.277  -3.207  0.00  0.00     0.163 HD
BRANCH   9  12
ATOM     12  C   UNL d   1      25.755 -14.351  -2.576  0.00  0.00     0.314 C 
ATOM     13  N   UNL d   1      25.516 -15.723  -2.434  0.00  0.00    -0.318 N 
ATOM     14  H   UNL d   1      25.103 -16.162  -3.253  0.00  0.00     0.169 HD
ATOM     15  O   UNL d   1      26.148 -13.514  -1.768  0.00  0.00    -0.262 OA
BRANCH  13  16
ATOM     16  C   UNL d   1      25.785 -16.586  -1.297  0.00  0.00     0.047 A 
ATOM     17  C   UNL d   1      27.128 -16.781  -0.844  0.00  0.00    -0.035 A 
ATOM     18  C   UNL d   1      27.394 -17.598   0.292  0.00  0.00     0.009 A 
ATOM     19  C   UNL d   1      28.350 -16.167  -1.482  0.00  0.00     0.050 C 
ATOM     20  C   UNL d   1      26.380 -18.234   0.988  0.00  0.00     0.001 A 
ATOM     21  C   UNL d   1      25.084 -18.065   0.559  0.00  0.00     0.009 A 
ATOM     22  C   UNL d   1      24.777 -17.262  -0.558  0.00  0.00    -0.035 A 
ATOM     23  C   UNL d   1      23.314 -17.216  -0.849  0.00  0.00     0.050 C 
ENDBRANCH  13  16
ENDBRANCH   9  12
ENDBRANCH   7   8
ENDBRANCH   1   7
BRANCH   5  24
ATOM     24  C   UNL d   1      26.381  -8.165  -1.182  0.00  0.00     0.161 C 
BRANCH  24  25
ATOM     25  N   UNL d   1      26.928  -9.277  -0.417  0.00  0.00    -0.349 N 
ATOM     26  C   UNL d   1      26.660  -9.544   0.910  0.00  0.00     0.309 C 
ATOM     27  O   UNL d   1      25.988  -8.859   1.664  0.00  0.00    -0.262 OA
ATOM     28  H   UNL d   1      27.512  -9.977  -0.857  0.00  0.00     0.163 HD
BRANCH  26  29
ATOM     29  C   UNL d   1      27.328 -10.862   1.396  0.00  0.00     0.314 C 
ATOM     30  O   UNL d   1      28.155 -11.379   0.649  0.00  0.00    -0.262 OA
ATOM     31  N   UNL d   1      26.904 -11.331   2.638  0.00  0.00    -0.318 N 
ATOM     32  H   UNL d   1      26.034 -10.946   2.988  0.00  0.00     0.169 HD
BRANCH  31  33
ATOM     33  C   UNL d   1      27.472 -12.463   3.290  0.00  0.00     0.047 A 
ATOM     34  C   UNL d   1      27.983 -12.368   4.604  0.00  0.00    -0.035 A 
ATOM     35  C   UNL d   1      27.874 -11.138   5.466  0.00  0.00     0.050 C 
ATOM     36  C   UNL d   1      28.579 -13.495   5.208  0.00  0.00     0.009 A 
ATOM     37  C   UNL d   1      28.657 -14.711   4.543  0.00  0.00     0.001 A 
ATOM     38  C   UNL d   1      28.113 -14.825   3.270  0.00  0.00     0.009 A 
ATOM     39  C   UNL d   1      27.499 -13.721   2.638  0.00  0.00    -0.035 A 
ATOM     40  C   UNL d   1      26.976 -13.936   1.244  0.00  0.00     0.050 C 
ENDBRANCH  31  33
ENDBRANCH  26  29
ENDBRANCH  24  25
ENDBRANCH   5  24
TORSDOF 8
ENDMDL
MODEL 5
REMARK VINA RESULT:    -7.583      4.580      7.508
REMARK INTER + INTRA:         -14.266
REMARK INTER:                  -9.970
REMARK INTRA:                  -4.296
REMARK CONF_INDEPENDENT:        2.386
REMARK UNBOUND:                -4.296
REMARK  8 active torsions:
REMARK  status: ('A' for Active; 'I' for Inactive)
REMARK    1  A    between atoms: C_8  and  N_9 
REMARK       I    between atoms: N_9  and  C_10 
REMARK    2  A    between atoms: C_10  and  C_12 
REMARK       I    between atoms: C_12  and  N_14 
REMARK    3  A    between atoms: N_14  and  C_15 
REMARK    4  A    between atoms: C_15  and  C_16 
REMARK    5  A    between atoms: C_20  and  C_21 
REMARK    6  A    between atoms: C_21  and  N_22 
REMARK       I    between atoms: N_22  and  C_23 
REMARK    7  A    between atoms: C_23  and  C_25 
REMARK       I    between atoms: C_25  and  N_27 
REMARK    8  A    between atoms: N_27  and  C_28 
ROOT
ATOM      1  C   UNL d   1      25.710 -17.485  -0.165  0.00  0.00    -0.040 A 
ATOM      2  C   UNL d   1      24.479 -17.904   0.361  0.00  0.00     0.009 A 
ATOM      3  C   UNL d   1      23.287 -17.424  -0.145  0.00  0.00     0.001 A 
ATOM      4  C   UNL d   1      23.299 -16.469  -1.151  0.00  0.00     0.009 A 
ATOM      5  C   UNL d   1      24.496 -15.962  -1.678  0.00  0.00    -0.040 A 
ATOM      6  C   UNL d   1      25.708 -16.492  -1.172  0.00  0.00     0.017 A 
ENDROOT
BRANCH   1   7
ATOM      7  C   UNL d   1      27.007 -18.101   0.315  0.00  0.00     0.161 C 
BRANCH   7   8
ATOM      8  N   UNL d   1      28.139 -17.215   0.206  0.00  0.00    -0.349 N 
ATOM      9  C   UNL d   1      28.748 -16.859  -0.998  0.00  0.00     0.309 C 
ATOM     10  O   UNL d   1      28.347 -17.075  -2.131  0.00  0.00    -0.262 OA
ATOM     11  H   UNL d   1      28.726 -17.075   1.033  0.00  0.00     0.163 HD
BRANCH   9  12
ATOM     12  C   UNL d   1      30.108 -16.213  -0.739  0.00  0.00     0.314 C 
ATOM     13  N   UNL d   1      30.724 -16.364   0.508  0.00  0.00    -0.318 N 
ATOM     14  H   UNL d   1      30.160 -16.859   1.195  0.00  0.00     0.169 HD
ATOM     15  O   UNL d   1      30.462 -15.598  -1.742  0.00  0.00    -0.262 OA
BRANCH  13  16
ATOM     16  C   UNL d   1      32.040 -15.925   0.939  0.00  0.00     0.047 A 
ATOM     17  C   UNL d   1      32.172 -15.010   2.030  0.00  0.00    -0.035 A 
ATOM     18  C   UNL d   1      33.461 -14.604   2.480  0.00  0.00     0.009 A 
ATOM     19  C   UNL d   1      31.017 -14.410   2.794  0.00  0.00     0.050 C 
ATOM     20  C   UNL d   1      34.621 -15.066   1.882  0.00  0.00     0.001 A 
ATOM     21  C   UNL d   1      34.512 -15.938   0.824  0.00  0.00     0.009 A 
ATOM     22  C   UNL d   1      33.256 -16.368   0.351  0.00  0.00    -0.035 A 
ATOM     23  C   UNL d   1      33.366 -17.311  -0.800  0.00  0.00     0.050 C 
ENDBRANCH  13  16
ENDBRANCH   9  12
ENDBRANCH   7   8
ENDBRANCH   1   7
BRANCH   5  24
ATOM     24  C   UNL d   1      24.505 -14.896  -2.770  0.00  0.00     0.161 C 
BRANCH  24  25
ATOM     25  N   UNL d   1      25.551 -15.049  -3.772  0.00  0.00    -0.349 N 
ATOM     26  C   UNL d   1      26.902 -14.887  -3.549  0.00  0.00     0.309 C 
ATOM     27  O   UNL d   1      27.426 -14.525  -2.508  0.00  0.00    -0.262 OA
ATOM     28  H   UNL d   1      25.332 -15.354  -4.713  0.00  0.00     0.163 HD
BRANCH  26  29
ATOM     29  C   UNL d   1      27.754 -15.217  -4.809  0.00  0.00     0.314 C 
ATOM     30  O   UNL d   1      27.180 -15.200  -5.894  0.00  0.00    -0.262 OA
ATOM     31  N   UNL d   1      29.094 -15.514  -4.569  0.00  0.00    -0.318 N 
ATOM     32  H   UNL d   1      29.336 -15.752  -3.614  0.00  0.00     0.169 HD
BRANCH  31  33
ATOM     33  C   UNL d   1      30.049 -15.743  -5.602  0.00  0.00     0.047 A 
ATOM     34  C   UNL d   1      30.709 -16.987  -5.723  0.00  0.00    -0.035 A 
ATOM     35  C   UNL d   1      30.396 -18.195  -4.880  0.00  0.00     0.050 C 
ATOM     36  C   UNL d   1      31.681 -17.170  -6.729  0.00  0.00     0.009 A 
ATOM     37  C   UNL d   1      31.991 -16.155  -7.623  0.00  0.00     0.001 A 
ATOM     38  C   UNL d   1      31.312 -14.946  -7.541  0.00  0.00     0.009 A 
ATOM     39  C   UNL d   1      30.325 -14.730  -6.554  0.00  0.00    -0.035 A 
ATOM     40  C   UNL d   1      29.674 -13.374  -6.525  0.00  0.00     0.050 C 
ENDBRANCH  31  33
ENDBRANCH  26  29
ENDBRANCH  24  25
ENDBRANCH   5  24
TORSDOF 8
ENDMDL
MODEL 6
REMARK VINA RESULT:    -7.448      3.892      5.922
REMARK INTER + INTRA:         -14.290
REMARK INTER:                  -9.835
REMARK INTRA:                  -4.456
REMARK CONF_INDEPENDENT:        2.386
REMARK UNBOUND:                -4.456
REMARK  8 active torsions:
REMARK  status: ('A' for Active; 'I' for Inactive)
REMARK    1  A    between atoms: C_8  and  N_9 
REMARK       I    between atoms: N_9  and  C_10 
REMARK    2  A    between atoms: C_10  and  C_12 
REMARK       I    between atoms: C_12  and  N_14 
REMARK    3  A    between atoms: N_14  and  C_15 
REMARK    4  A    between atoms: C_15  and  C_16 
REMARK    5  A    between atoms: C_20  and  C_21 
REMARK    6  A    between atoms: C_21  and  N_22 
REMARK       I    between atoms: N_22  and  C_23 
REMARK    7  A    between atoms: C_23  and  C_25 
REMARK       I    between atoms: C_25  and  N_27 
REMARK    8  A    between atoms: N_27  and  C_28 
ROOT
ATOM      1  C   UNL d   1      26.560 -11.175  -5.883  0.00  0.00    -0.040 A 
ATOM      2  C   UNL d   1      26.355  -9.947  -6.528  0.00  0.00     0.009 A 
ATOM      3  C   UNL d   1      26.870  -9.709  -7.788  0.00  0.00     0.001 A 
ATOM      4  C   UNL d   1      27.650 -10.674  -8.408  0.00  0.00     0.009 A 
ATOM      5  C   UNL d   1      27.945 -11.899  -7.791  0.00  0.00    -0.040 A 
ATOM      6  C   UNL d   1      27.379 -12.139  -6.516  0.00  0.00     0.017 A 
ENDROOT
BRANCH   1   7
ATOM      7  C   UNL d   1      25.898 -11.471  -4.554  0.00  0.00     0.161 C 
BRANCH   7   8
ATOM      8  N   UNL d   1      26.241 -12.764  -4.016  0.00  0.00    -0.349 N 
ATOM      9  C   UNL d   1      25.334 -13.807  -3.832  0.00  0.00     0.309 C 
ATOM     10  O   UNL d   1      24.183 -13.878  -4.237  0.00  0.00    -0.262 OA
ATOM     11  H   UNL d   1      27.096 -12.845  -3.458  0.00  0.00     0.163 HD
BRANCH   9  12
ATOM     12  C   UNL d   1      25.932 -14.885  -2.930  0.00  0.00     0.314 C 
ATOM     13  N   UNL d   1      25.201 -15.359  -1.835  0.00  0.00    -0.318 N 
ATOM     14  H   UNL d   1      24.317 -14.878  -1.683  0.00  0.00     0.169 HD
ATOM     15  O   UNL d   1      27.057 -15.171  -3.331  0.00  0.00    -0.262 OA
BRANCH  13  16
ATOM     16  C   UNL d   1      25.526 -16.433  -0.912  0.00  0.00     0.047 A 
ATOM     17  C   UNL d   1      26.724 -16.373  -0.132  0.00  0.00    -0.035 A 
ATOM     18  C   UNL d   1      27.030 -17.406   0.800  0.00  0.00     0.009 A 
ATOM     19  C   UNL d   1      27.741 -15.260  -0.200  0.00  0.00     0.050 C 
ATOM     20  C   UNL d   1      26.197 -18.497   0.979  0.00  0.00     0.001 A 
ATOM     21  C   UNL d   1      25.047 -18.576   0.230  0.00  0.00     0.009 A 
ATOM     22  C   UNL d   1      24.705 -17.574  -0.701  0.00  0.00    -0.035 A 
ATOM     23  C   UNL d   1      23.420 -17.855  -1.404  0.00  0.00     0.050 C 
ENDBRANCH  13  16
ENDBRANCH   9  12
ENDBRANCH   7   8
ENDBRANCH   1   7
BRANCH   5  24
ATOM     24  C   UNL d   1      28.821 -12.948  -8.468  0.00  0.00     0.161 C 
BRANCH  24  25
ATOM     25  N   UNL d   1      29.488 -13.873  -7.562  0.00  0.00    -0.349 N 
ATOM     26  C   UNL d   1      28.856 -14.749  -6.704  0.00  0.00     0.309 C 
ATOM     27  O   UNL d   1      27.654 -14.838  -6.517  0.00  0.00    -0.262 OA
ATOM     28  H   UNL d   1      30.497 -13.965  -7.560  0.00  0.00     0.163 HD
BRANCH  26  29
ATOM     29  C   UNL d   1      29.861 -15.664  -5.946  0.00  0.00     0.314 C 
ATOM     30  O   UNL d   1      30.979 -15.797  -6.437  0.00  0.00    -0.262 OA
ATOM     31  N   UNL d   1      29.378 -16.254  -4.780  0.00  0.00    -0.318 N 
ATOM     32  H   UNL d   1      28.370 -16.264  -4.668  0.00  0.00     0.169 HD
BRANCH  31  33
ATOM     33  C   UNL d   1      30.179 -17.040  -3.902  0.00  0.00     0.047 A 
ATOM     34  C   UNL d   1      30.623 -18.329  -4.277  0.00  0.00    -0.035 A 
ATOM     35  C   UNL d   1      30.406 -18.934  -5.639  0.00  0.00     0.050 C 
ATOM     36  C   UNL d   1      31.378 -19.102  -3.371  0.00  0.00     0.009 A 
ATOM     37  C   UNL d   1      31.716 -18.613  -2.117  0.00  0.00     0.001 A 
ATOM     38  C   UNL d   1      31.325 -17.329  -1.759  0.00  0.00     0.009 A 
ATOM     39  C   UNL d   1      30.577 -16.522  -2.645  0.00  0.00    -0.035 A 
ATOM     40  C   UNL d   1      30.169 -15.161  -2.150  0.00  0.00     0.050 C 
ENDBRANCH  31  33
ENDBRANCH  26  29
ENDBRANCH  24  25
ENDBRANCH   5  24
TORSDOF 8
ENDMDL
MODEL 7
REMARK VINA RESULT:    -7.125      5.012      9.784
REMARK INTER + INTRA:         -14.313
REMARK INTER:                  -9.511
REMARK INTRA:                  -4.802
REMARK CONF_INDEPENDENT:        2.386
REMARK UNBOUND:                -4.802
REMARK  8 active torsions:
REMARK  status: ('A' for Active; 'I' for Inactive)
REMARK    1  A    between atoms: C_8  and  N_9 
REMARK       I    between atoms: N_9  and  C_10 
REMARK    2  A    between atoms: C_10  and  C_12 
REMARK       I    between atoms: C_12  and  N_14 
REMARK    3  A    between atoms: N_14  and  C_15 
REMARK    4  A    between atoms: C_15  and  C_16 
REMARK    5  A    between atoms: C_20  and  C_21 
REMARK    6  A    between atoms: C_21  and  N_22 
REMARK       I    between atoms: N_22  and  C_23 
REMARK    7  A    between atoms: C_23  and  C_25 
REMARK       I    between atoms: C_25  and  N_27 
REMARK    8  A    between atoms: N_27  and  C_28 
ROOT
ATOM      1  C   UNL d   1      27.522 -17.004  -0.454  0.00  0.00    -0.040 A 
ATOM      2  C   UNL d   1      26.592 -17.628   0.391  0.00  0.00     0.009 A 
ATOM      3  C   UNL d   1      25.247 -17.647   0.079  0.00  0.00     0.001 A 
ATOM      4  C   UNL d   1      24.792 -16.993  -1.056  0.00  0.00     0.009 A 
ATOM      5  C   UNL d   1      25.661 -16.297  -1.910  0.00  0.00    -0.040 A 
ATOM      6  C   UNL d   1      27.041 -16.319  -1.594  0.00  0.00     0.017 A 
ENDROOT
BRANCH   1   7
ATOM      7  C   UNL d   1      29.006 -17.087  -0.166  0.00  0.00     0.161 C 
BRANCH   7   8
ATOM      8  N   UNL d   1      29.784 -17.546  -1.289  0.00  0.00    -0.349 N 
ATOM      9  C   UNL d   1      29.902 -16.862  -2.499  0.00  0.00     0.309 C 
ATOM     10  O   UNL d   1      29.538 -15.724  -2.753  0.00  0.00    -0.262 OA
ATOM     11  H   UNL d   1      30.013 -18.544  -1.344  0.00  0.00     0.163 HD
BRANCH   9  12
ATOM     12  C   UNL d   1      30.487 -17.774  -3.575  0.00  0.00     0.314 C 
ATOM     13  N   UNL d   1      30.141 -17.577  -4.917  0.00  0.00    -0.318 N 
ATOM     14  H   UNL d   1      29.444 -16.851  -5.065  0.00  0.00     0.169 HD
ATOM     15  O   UNL d   1      31.211 -18.614  -3.046  0.00  0.00    -0.262 OA
BRANCH  13  16
ATOM     16  C   UNL d   1      30.643 -18.251  -6.101  0.00  0.00     0.047 A 
ATOM     17  C   UNL d   1      30.687 -19.680  -6.152  0.00  0.00    -0.035 A 
ATOM     18  C   UNL d   1      31.146 -20.347  -7.324  0.00  0.00     0.009 A 
ATOM     19  C   UNL d   1      30.265 -20.594  -5.028  0.00  0.00     0.050 C 
ATOM     20  C   UNL d   1      31.569 -19.648  -8.442  0.00  0.00     0.001 A 
ATOM     21  C   UNL d   1      31.544 -18.274  -8.407  0.00  0.00     0.009 A 
ATOM     22  C   UNL d   1      31.094 -17.575  -7.268  0.00  0.00    -0.035 A 
ATOM     23  C   UNL d   1      31.149 -16.095  -7.442  0.00  0.00     0.050 C 
ENDBRANCH  13  16
ENDBRANCH   9  12
ENDBRANCH   7   8
ENDBRANCH   1   7
BRANCH   5  24
ATOM     24  C   UNL d   1      25.154 -15.562  -3.146  0.00  0.00     0.161 C 
BRANCH  24  25
ATOM     25  N   UNL d   1      26.164 -15.292  -4.161  0.00  0.00    -0.349 N 
ATOM     26  C   UNL d   1      26.514 -14.043  -4.629  0.00  0.00     0.309 C 
ATOM     27  O   UNL d   1      25.992 -12.983  -4.324  0.00  0.00    -0.262 OA
ATOM     28  H   UNL d   1      26.726 -16.039  -4.549  0.00  0.00     0.163 HD
BRANCH  26  29
ATOM     29  C   UNL d   1      27.695 -14.099  -5.641  0.00  0.00     0.314 C 
ATOM     30  O   UNL d   1      28.169 -15.205  -5.888  0.00  0.00    -0.262 OA
ATOM     31  N   UNL d   1      28.105 -12.872  -6.157  0.00  0.00    -0.318 N 
ATOM     32  H   UNL d   1      27.802 -12.048  -5.650  0.00  0.00     0.169 HD
BRANCH  31  33
ATOM     33  C   UNL d   1      29.101 -12.734  -7.168  0.00  0.00     0.047 A 
ATOM     34  C   UNL d   1      28.765 -12.290  -8.467  0.00  0.00    -0.035 A 
ATOM     35  C   UNL d   1      27.393 -11.818  -8.870  0.00  0.00     0.050 C 
ATOM     36  C   UNL d   1      29.764 -12.204  -9.459  0.00  0.00     0.009 A 
ATOM     37  C   UNL d   1      31.084 -12.529  -9.180  0.00  0.00     0.001 A 
ATOM     38  C   UNL d   1      31.430 -12.919  -7.892  0.00  0.00     0.009 A 
ATOM     39  C   UNL d   1      30.459 -13.006  -6.871  0.00  0.00    -0.035 A 
ATOM     40  C   UNL d   1      30.928 -13.475  -5.520  0.00  0.00     0.050 C 
ENDBRANCH  31  33
ENDBRANCH  26  29
ENDBRANCH  24  25
ENDBRANCH   5  24
TORSDOF 8
ENDMDL
MODEL 8
REMARK VINA RESULT:    -5.922      5.007      7.984
REMARK INTER + INTRA:         -14.734
REMARK INTER:                  -8.309
REMARK INTRA:                  -6.425
REMARK CONF_INDEPENDENT:        2.386
REMARK UNBOUND:                -6.425
REMARK  8 active torsions:
REMARK  status: ('A' for Active; 'I' for Inactive)
REMARK    1  A    between atoms: C_8  and  N_9 
REMARK       I    between atoms: N_9  and  C_10 
REMARK    2  A    between atoms: C_10  and  C_12 
REMARK       I    between atoms: C_12  and  N_14 
REMARK    3  A    between atoms: N_14  and  C_15 
REMARK    4  A    between atoms: C_15  and  C_16 
REMARK    5  A    between atoms: C_20  and  C_21 
REMARK    6  A    between atoms: C_21  and  N_22 
REMARK       I    between atoms: N_22  and  C_23 
REMARK    7  A    between atoms: C_23  and  C_25 
REMARK       I    between atoms: C_25  and  N_27 
REMARK    8  A    between atoms: N_27  and  C_28 
ROOT
ATOM      1  C   UNL d   1      25.628 -17.730   0.038  0.00  0.00    -0.040 A 
ATOM      2  C   UNL d   1      24.370 -18.200   0.444  0.00  0.00     0.009 A 
ATOM      3  C   UNL d   1      23.211 -17.732  -0.145  0.00  0.00     0.001 A 
ATOM      4  C   UNL d   1      23.280 -16.742  -1.114  0.00  0.00     0.009 A 
ATOM      5  C   UNL d   1      24.502 -16.185  -1.520  0.00  0.00    -0.040 A 
ATOM      6  C   UNL d   1      25.681 -16.702  -0.932  0.00  0.00     0.017 A 
ENDROOT
BRANCH   1   7
ATOM      7  C   UNL d   1      26.897 -18.330   0.605  0.00  0.00     0.161 C 
BRANCH   7   8
ATOM      8  N   UNL d   1      28.081 -17.974  -0.137  0.00  0.00    -0.349 N 
ATOM      9  C   UNL d   1      28.640 -16.697  -0.165  0.00  0.00     0.309 C 
ATOM     10  O   UNL d   1      28.352 -15.739   0.536  0.00  0.00    -0.262 OA
ATOM     11  H   UNL d   1      28.362 -18.575  -0.918  0.00  0.00     0.163 HD
BRANCH   9  12
ATOM     12  C   UNL d   1      29.651 -16.579  -1.304  0.00  0.00     0.314 C 
ATOM     13  N   UNL d   1      30.330 -15.373  -1.509  0.00  0.00    -0.318 N 
ATOM     14  H   UNL d   1      30.033 -14.617  -0.896  0.00  0.00     0.169 HD
ATOM     15  O   UNL d   1      29.695 -17.642  -1.919  0.00  0.00    -0.262 OA
BRANCH  13  16
ATOM     16  C   UNL d   1      31.389 -15.067  -2.455  0.00  0.00     0.047 A 
ATOM     17  C   UNL d   1      31.366 -13.839  -3.189  0.00  0.00    -0.035 A 
ATOM     18  C   UNL d   1      32.420 -13.518  -4.092  0.00  0.00     0.009 A 
ATOM     19  C   UNL d   1      30.281 -12.796  -3.087  0.00  0.00     0.050 C 
ATOM     20  C   UNL d   1      33.489 -14.373  -4.299  0.00  0.00     0.001 A 
ATOM     21  C   UNL d   1      33.522 -15.563  -3.609  0.00  0.00     0.009 A 
ATOM     22  C   UNL d   1      32.501 -15.917  -2.704  0.00  0.00    -0.035 A 
ATOM     23  C   UNL d   1      32.733 -17.245  -2.066  0.00  0.00     0.050 C 
ENDBRANCH  13  16
ENDBRANCH   9  12
ENDBRANCH   7   8
ENDBRANCH   1   7
BRANCH   5  24
ATOM     24  C   UNL d   1      24.571 -15.082  -2.571  0.00  0.00     0.161 C 
BRANCH  24  25
ATOM     25  N   UNL d   1      25.589 -15.269  -3.596  0.00  0.00    -0.349 N 
ATOM     26  C   UNL d   1      26.951 -15.198  -3.394  0.00  0.00     0.309 C 
ATOM     27  O   UNL d   1      27.513 -14.901  -2.352  0.00  0.00    -0.262 OA
ATOM     28  H   UNL d   1      25.336 -15.532  -4.541  0.00  0.00     0.163 HD
BRANCH  26  29
ATOM     29  C   UNL d   1      27.760 -15.544  -4.677  0.00  0.00     0.314 C 
ATOM     30  O   UNL d   1      27.171 -15.455  -5.751  0.00  0.00    -0.262 OA
ATOM     31  N   UNL d   1      29.082 -15.934  -4.471  0.00  0.00    -0.318 N 
ATOM     32  H   UNL d   1      29.323 -16.217  -3.527  0.00  0.00     0.169 HD
BRANCH  31  33
ATOM     33  C   UNL d   1      30.003 -16.191  -5.527  0.00  0.00     0.047 A 
ATOM     34  C   UNL d   1      30.314 -15.198  -6.483  0.00  0.00    -0.035 A 
ATOM     35  C   UNL d   1      29.817 -13.778  -6.417  0.00  0.00     0.050 C 
ATOM     36  C   UNL d   1      31.196 -15.495  -7.542  0.00  0.00     0.009 A 
ATOM     37  C   UNL d   1      31.787 -16.745  -7.656  0.00  0.00     0.001 A 
ATOM     38  C   UNL d   1      31.524 -17.712  -6.694  0.00  0.00     0.009 A 
ATOM     39  C   UNL d   1      30.655 -17.447  -5.613  0.00  0.00    -0.035 A 
ATOM     40  C   UNL d   1      30.405 -18.571  -4.645  0.00  0.00     0.050 C 
ENDBRANCH  31  33
ENDBRANCH  26  29
ENDBRANCH  24  25
ENDBRANCH   5  24
TORSDOF 8
ENDMDL
MODEL 9
REMARK VINA RESULT:    -5.899      4.930      7.967
REMARK INTER + INTRA:         -14.733
REMARK INTER:                  -8.286
REMARK INTRA:                  -6.447
REMARK CONF_INDEPENDENT:        2.386
REMARK UNBOUND:                -6.447
REMARK  8 active torsions:
REMARK  status: ('A' for Active; 'I' for Inactive)
REMARK    1  A    between atoms: C_8  and  N_9 
REMARK       I    between atoms: N_9  and  C_10 
REMARK    2  A    between atoms: C_10  and  C_12 
REMARK       I    between atoms: C_12  and  N_14 
REMARK    3  A    between atoms: N_14  and  C_15 
REMARK    4  A    between atoms: C_15  and  C_16 
REMARK    5  A    between atoms: C_20  and  C_21 
REMARK    6  A    between atoms: C_21  and  N_22 
REMARK       I    between atoms: N_22  and  C_23 
REMARK    7  A    between atoms: C_23  and  C_25 
REMARK       I    between atoms: C_25  and  N_27 
REMARK    8  A    between atoms: N_27  and  C_28 
ROOT
ATOM      1  C   UNL d   1      25.677 -17.673   0.041  0.00  0.00    -0.040 A 
ATOM      2  C   UNL d   1      24.441 -18.200   0.442  0.00  0.00     0.009 A 
ATOM      3  C   UNL d   1      23.263 -17.779  -0.145  0.00  0.00     0.001 A 
ATOM      4  C   UNL d   1      23.289 -16.780  -1.107  0.00  0.00     0.009 A 
ATOM      5  C   UNL d   1      24.486 -16.167  -1.507  0.00  0.00    -0.040 A 
ATOM      6  C   UNL d   1      25.687 -16.637  -0.922  0.00  0.00     0.017 A 
ENDROOT
BRANCH   1   7
ATOM      7  C   UNL d   1      26.971 -18.220   0.605  0.00  0.00     0.161 C 
BRANCH   7   8
ATOM      8  N   UNL d   1      28.135 -17.842  -0.156  0.00  0.00    -0.349 N 
ATOM      9  C   UNL d   1      28.667 -16.553  -0.196  0.00  0.00     0.309 C 
ATOM     10  O   UNL d   1      28.371 -15.600   0.509  0.00  0.00    -0.262 OA
ATOM     11  H   UNL d   1      28.415 -18.438  -0.941  0.00  0.00     0.163 HD
BRANCH   9  12
ATOM     12  C   UNL d   1      29.656 -16.417  -1.352  0.00  0.00     0.314 C 
ATOM     13  N   UNL d   1      30.374 -15.226  -1.516  0.00  0.00    -0.318 N 
ATOM     14  H   UNL d   1      30.116 -14.491  -0.861  0.00  0.00     0.169 HD
ATOM     15  O   UNL d   1      29.649 -17.450  -2.016  0.00  0.00    -0.262 OA
BRANCH  13  16
ATOM     16  C   UNL d   1      31.422 -14.913  -2.471  0.00  0.00     0.047 A 
ATOM     17  C   UNL d   1      31.379 -13.689  -3.210  0.00  0.00    -0.035 A 
ATOM     18  C   UNL d   1      32.422 -13.360  -4.123  0.00  0.00     0.009 A 
ATOM     19  C   UNL d   1      30.282 -12.658  -3.105  0.00  0.00     0.050 C 
ATOM     20  C   UNL d   1      33.500 -14.204  -4.333  0.00  0.00     0.001 A 
ATOM     21  C   UNL d   1      33.552 -15.389  -3.638  0.00  0.00     0.009 A 
ATOM     22  C   UNL d   1      32.542 -15.751  -2.724  0.00  0.00    -0.035 A 
ATOM     23  C   UNL d   1      32.794 -17.073  -2.081  0.00  0.00     0.050 C 
ENDBRANCH  13  16
ENDBRANCH   9  12
ENDBRANCH   7   8
ENDBRANCH   1   7
BRANCH   5  24
ATOM     24  C   UNL d   1      24.508 -15.054  -2.550  0.00  0.00     0.161 C 
BRANCH  24  25
ATOM     25  N   UNL d   1      25.525 -15.197  -3.584  0.00  0.00    -0.349 N 
ATOM     26  C   UNL d   1      26.884 -15.066  -3.392  0.00  0.00     0.309 C 
ATOM     27  O   UNL d   1      27.441 -14.743  -2.356  0.00  0.00    -0.262 OA
ATOM     28  H   UNL d   1      25.276 -15.471  -4.526  0.00  0.00     0.163 HD
BRANCH  26  29
ATOM     29  C   UNL d   1      27.697 -15.376  -4.682  0.00  0.00     0.314 C 
ATOM     30  O   UNL d   1      27.090 -15.341  -5.749  0.00  0.00    -0.262 OA
ATOM     31  N   UNL d   1      29.044 -15.676  -4.489  0.00  0.00    -0.318 N 
ATOM     32  H   UNL d   1      29.315 -15.929  -3.545  0.00  0.00     0.169 HD
BRANCH  31  33
ATOM     33  C   UNL d   1      29.966 -15.888  -5.554  0.00  0.00     0.047 A 
ATOM     34  C   UNL d   1      30.636 -17.123  -5.704  0.00  0.00    -0.035 A 
ATOM     35  C   UNL d   1      30.365 -18.340  -4.858  0.00  0.00     0.050 C 
ATOM     36  C   UNL d   1      31.576 -17.290  -6.742  0.00  0.00     0.009 A 
ATOM     37  C   UNL d   1      31.845 -16.267  -7.640  0.00  0.00     0.001 A 
ATOM     38  C   UNL d   1      31.155 -15.066  -7.529  0.00  0.00     0.009 A 
ATOM     39  C   UNL d   1      30.199 -14.867  -6.509  0.00  0.00    -0.035 A 
ATOM     40  C   UNL d   1      29.534 -13.518  -6.450  0.00  0.00     0.050 C 
ENDBRANCH  31  33
ENDBRANCH  26  29
ENDBRANCH  24  25
ENDBRANCH   5  24
TORSDOF 8
ENDMDL
