MODEL 1
REMARK VINA RESULT:   -10.175      0.000      0.000
REMARK INTER + INTRA:         -13.958
REMARK INTER:                 -12.561
REMARK INTRA:                  -1.397
REMARK CONF_INDEPENDENT:        2.386
REMARK UNBOUND:                -1.397
REMARK  8 active torsions:
REMARK  status: ('A' for Active; 'I' for Inactive)
REMARK    1  A    between atoms: C_4  and  N_5 
REMARK    2  A    between atoms: N_8  and  C_9 
REMARK    3  A    between atoms: C_9  and  C_10 
REMARK       I    between atoms: C_10  and  N_12 
REMARK    4  A    between atoms: N_12  and  C_13 
REMARK    5  A    between atoms: C_13  and  C_14 
REMARK    6  A    between atoms: C_19  and  O_20 
REMARK    7  A    between atoms: O_20  and  C_21 
REMARK    8  A    between atoms: C_28  and  C_29 
ROOT
ATOM      1  N   UNL d   1      28.590 -13.638   5.675  0.00  0.00    -0.362 N 
ATOM      2  C   UNL d   1      29.720 -14.553   5.464  0.00  0.00     0.152 C 
ATOM      3  C   UNL d   1      30.245 -14.358   4.021  0.00  0.00     0.255 C 
ATOM      4  N   UNL d   1      29.139 -14.574   2.981  0.00  0.00    -0.060 N 
ATOM      5  C   UNL d   1      27.832 -13.805   3.344  0.00  0.00     0.255 C 
ATOM      6  C   UNL d   1      27.426 -13.998   4.849  0.00  0.00     0.152 C 
ATOM      7  H   UNL d   1      28.880 -15.574   2.958  0.00  0.00     0.280 HD
ENDROOT
BRANCH   4   8
ATOM      8  C   UNL d   1      29.643 -14.268   1.532  0.00  0.00     0.337 C 
BRANCH   8   9
ATOM      9  C   UNL d   1      28.792 -14.932   0.440  0.00  0.00     0.243 C 
ATOM     10  O   UNL d   1      28.006 -14.258  -0.212  0.00  0.00    -0.272 OA
ATOM     11  N   UNL d   1      28.993 -16.288   0.230  0.00  0.00    -0.355 N 
ATOM     12  H   UNL d   1      29.313 -16.879   0.990  0.00  0.00     0.162 HD
BRANCH  11  13
ATOM     13  C   UNL d   1      28.196 -16.942  -0.793  0.00  0.00     0.164 C 
BRANCH  13  14
ATOM     14  C   UNL d   1      26.706 -16.900  -0.569  0.00  0.00    -0.007 C 
ATOM     15  C   UNL d   1      26.201 -17.950   0.237  0.00  0.00     0.011 C 
ATOM     16  C   UNL d   1      24.836 -18.209   0.341  0.00  0.00     0.001 C 
ATOM     17  C   UNL d   1      23.934 -17.336  -0.244  0.00  0.00     0.003 C 
ATOM     18  C   UNL d   1      24.408 -16.208  -0.919  0.00  0.00     0.037 C 
ATOM     19  C   UNL d   1      25.788 -15.999  -1.148  0.00  0.00     0.086 C 
BRANCH  19  20
ATOM     20  O   UNL d   1      25.997 -14.910  -1.954  0.00  0.00    -0.255 OA
BRANCH  20  21
ATOM     21  C   UNL d   1      25.393 -14.786  -3.226  0.00  0.00     0.530 C 
ATOM     22  F   UNL d   1      25.531 -15.937  -3.928  0.00  0.00    -0.144 F 
ATOM     23  F   UNL d   1      24.091 -14.446  -3.120  0.00  0.00    -0.144 F 
ATOM     24  F   UNL d   1      26.001 -13.820  -3.944  0.00  0.00    -0.144 F 
ENDBRANCH  20  21
ENDBRANCH  19  20
ENDBRANCH  13  14
ENDBRANCH  11  13
ENDBRANCH   8   9
ENDBRANCH   4   8
BRANCH   1  25
ATOM     25  C   UNL d   1      28.595 -12.816   6.787  0.00  0.00     0.129 A 
ATOM     26  C   UNL d   1      28.977 -11.487   6.622  0.00  0.00     0.075 A 
ATOM     27  C   UNL d   1      29.077 -10.632   7.720  0.00  0.00     0.010 A 
ATOM     28  C   UNL d   1      29.472  -9.197   7.569  0.00  0.00     0.068 C 
ATOM     29  N   UNL d   1      28.814 -11.118   8.941  0.00  0.00    -0.348 N 
ATOM     30  C   UNL d   1      28.420 -12.398   9.084  0.00  0.00     0.110 A 
ATOM     31  H   UNL d   1      28.899 -10.519   9.763  0.00  0.00     0.167 HD
ATOM     32  N   UNL d   1      28.282 -13.257   8.014  0.00  0.00    -0.218 NA
BRANCH  30  33
ATOM     33  C   UNL d   1      28.145 -12.881  10.500  0.00  0.00     0.047 C 
ATOM     34  C   UNL d   1      28.155 -14.412  10.577  0.00  0.00     0.017 C 
ATOM     35  C   UNL d   1      29.161 -12.312  11.487  0.00  0.00     0.017 C 
ENDBRANCH  30  33
ENDBRANCH   1  25
TORSDOF 8
ENDMDL
MODEL 2
REMARK VINA RESULT:    -9.919      1.698      2.412
REMARK INTER + INTRA:         -13.690
REMARK INTER:                 -12.306
REMARK INTRA:                  -1.384
REMARK CONF_INDEPENDENT:        2.386
REMARK UNBOUND:                -1.384
REMARK  8 active torsions:
REMARK  status: ('A' for Active; 'I' for Inactive)
REMARK    1  A    between atoms: C_4  and  N_5 
REMARK    2  A    between atoms: N_8  and  C_9 
REMARK    3  A    between atoms: C_9  and  C_10 
REMARK       I    between atoms: C_10  and  N_12 
REMARK    4  A    between atoms: N_12  and  C_13 
REMARK    5  A    between atoms: C_13  and  C_14 
REMARK    6  A    between atoms: C_19  and  O_20 
REMARK    7  A    between atoms: O_20  and  C_21 
REMARK    8  A    between atoms: C_28  and  C_29 
ROOT
ATOM      1  N   UNL d   1      28.985 -13.719   5.954  0.00  0.00    -0.362 N 
ATOM      2  C   UNL d   1      30.310 -13.969   5.369  0.00  0.00     0.152 C 
ATOM      3  C   UNL d   1      30.226 -13.720   3.844  0.00  0.00     0.255 C 
ATOM      4  N   UNL d   1      29.144 -14.583   3.186  0.00  0.00    -0.060 N 
ATOM      5  C   UNL d   1      27.793 -14.527   3.964  0.00  0.00     0.255 C 
ATOM      6  C   UNL d   1      27.989 -14.708   5.512  0.00  0.00     0.152 C 
ATOM      7  H   UNL d   1      29.437 -15.574   3.203  0.00  0.00     0.280 HD
ENDROOT
BRANCH   4   8
ATOM      8  C   UNL d   1      28.984 -14.249   1.666  0.00  0.00     0.337 C 
BRANCH   8   9
ATOM      9  C   UNL d   1      27.892 -15.077   0.973  0.00  0.00     0.243 C 
ATOM     10  O   UNL d   1      26.774 -14.602   0.822  0.00  0.00    -0.272 OA
ATOM     11  N   UNL d   1      28.256 -16.335   0.520  0.00  0.00    -0.355 N 
ATOM     12  H   UNL d   1      29.002 -16.847   0.979  0.00  0.00     0.162 HD
BRANCH  11  13
ATOM     13  C   UNL d   1      27.239 -17.141  -0.134  0.00  0.00     0.164 C 
BRANCH  13  14
ATOM     14  C   UNL d   1      26.503 -16.457  -1.257  0.00  0.00    -0.007 C 
ATOM     15  C   UNL d   1      27.332 -15.981  -2.303  0.00  0.00     0.011 C 
ATOM     16  C   UNL d   1      26.856 -15.115  -3.285  0.00  0.00     0.001 C 
ATOM     17  C   UNL d   1      25.505 -14.818  -3.330  0.00  0.00     0.003 C 
ATOM     18  C   UNL d   1      24.642 -15.397  -2.395  0.00  0.00     0.037 C 
ATOM     19  C   UNL d   1      25.122 -16.170  -1.313  0.00  0.00     0.086 C 
BRANCH  19  20
ATOM     20  O   UNL d   1      24.109 -16.504  -0.454  0.00  0.00    -0.255 OA
BRANCH  20  21
ATOM     21  C   UNL d   1      23.446 -17.751  -0.516  0.00  0.00     0.530 C 
ATOM     22  F   UNL d   1      23.640 -18.328  -1.727  0.00  0.00    -0.144 F 
ATOM     23  F   UNL d   1      23.853 -18.573   0.473  0.00  0.00    -0.144 F 
ATOM     24  F   UNL d   1      22.115 -17.586  -0.376  0.00  0.00    -0.144 F 
ENDBRANCH  20  21
ENDBRANCH  19  20
ENDBRANCH  13  14
ENDBRANCH  11  13
ENDBRANCH   8   9
ENDBRANCH   4   8
BRANCH   1  25
ATOM     25  C   UNL d   1      28.885 -12.873   7.043  0.00  0.00     0.129 A 
ATOM     26  C   UNL d   1      29.259 -11.542   6.879  0.00  0.00     0.075 A 
ATOM     27  C   UNL d   1      29.255 -10.660   7.962  0.00  0.00     0.010 A 
ATOM     28  C   UNL d   1      29.639  -9.223   7.810  0.00  0.00     0.068 C 
ATOM     29  N   UNL d   1      28.900 -11.124   9.168  0.00  0.00    -0.348 N 
ATOM     30  C   UNL d   1      28.514 -12.407   9.308  0.00  0.00     0.110 A 
ATOM     31  H   UNL d   1      28.907 -10.506   9.980  0.00  0.00     0.167 HD
ATOM     32  N   UNL d   1      28.479 -13.291   8.250  0.00  0.00    -0.218 NA
BRANCH  30  33
ATOM     33  C   UNL d   1      28.131 -12.863  10.707  0.00  0.00     0.047 C 
ATOM     34  C   UNL d   1      27.812 -14.363  10.735  0.00  0.00     0.017 C 
ATOM     35  C   UNL d   1      29.237 -12.557  11.714  0.00  0.00     0.017 C 
ENDBRANCH  30  33
ENDBRANCH   1  25
TORSDOF 8
ENDMDL
MODEL 3
REMARK VINA RESULT:    -9.095      1.047      2.402
REMARK INTER + INTRA:         -13.357
REMARK INTER:                 -11.481
REMARK INTRA:                  -1.876
REMARK CONF_INDEPENDENT:        2.386
REMARK UNBOUND:                -1.876
REMARK  8 active torsions:
REMARK  status: ('A' for Active; 'I' for Inactive)
REMARK    1  A    between atoms: C_4  and  N_5 
REMARK    2  A    between atoms: N_8  and  C_9 
REMARK    3  A    between atoms: C_9  and  C_10 
REMARK       I    between atoms: C_10  and  N_12 
REMARK    4  A    between atoms: N_12  and  C_13 
REMARK    5  A    between atoms: C_13  and  C_14 
REMARK    6  A    between atoms: C_19  and  O_20 
REMARK    7  A    between atoms: O_20  and  C_21 
REMARK    8  A    between atoms: C_28  and  C_29 
ROOT
ATOM      1  N   UNL d   1      28.677 -13.665   5.784  0.00  0.00    -0.362 N 
ATOM      2  C   UNL d   1      29.814 -14.500   5.371  0.00  0.00     0.152 C 
ATOM      3  C   UNL d   1      29.954 -14.410   3.833  0.00  0.00     0.255 C 
ATOM      4  N   UNL d   1      28.661 -14.822   3.120  0.00  0.00    -0.060 N 
ATOM      5  C   UNL d   1      27.405 -14.130   3.735  0.00  0.00     0.255 C 
ATOM      6  C   UNL d   1      27.394 -14.202   5.304  0.00  0.00     0.152 C 
ATOM      7  H   UNL d   1      28.510 -15.837   3.240  0.00  0.00     0.280 HD
ENDROOT
BRANCH   4   8
ATOM      8  C   UNL d   1      28.768 -14.623   1.572  0.00  0.00     0.337 C 
BRANCH   8   9
ATOM      9  C   UNL d   1      28.036 -15.709   0.768  0.00  0.00     0.243 C 
ATOM     10  O   UNL d   1      27.407 -16.578   1.356  0.00  0.00    -0.272 OA
ATOM     11  N   UNL d   1      28.108 -15.617  -0.613  0.00  0.00    -0.355 N 
ATOM     12  H   UNL d   1      28.909 -15.178  -1.055  0.00  0.00     0.162 HD
BRANCH  11  13
ATOM     13  C   UNL d   1      27.428 -16.636  -1.396  0.00  0.00     0.164 C 
BRANCH  13  14
ATOM     14  C   UNL d   1      25.958 -16.791  -1.107  0.00  0.00    -0.007 C 
ATOM     15  C   UNL d   1      25.613 -17.983  -0.423  0.00  0.00     0.011 C 
ATOM     16  C   UNL d   1      24.292 -18.406  -0.298  0.00  0.00     0.001 C 
ATOM     17  C   UNL d   1      23.271 -17.575  -0.726  0.00  0.00     0.003 C 
ATOM     18  C   UNL d   1      23.583 -16.326  -1.269  0.00  0.00     0.037 C 
ATOM     19  C   UNL d   1      24.917 -15.935  -1.525  0.00  0.00     0.086 C 
BRANCH  19  20
ATOM     20  O   UNL d   1      24.964 -14.738  -2.191  0.00  0.00    -0.255 OA
BRANCH  20  21
ATOM     21  C   UNL d   1      25.407 -14.635  -3.530  0.00  0.00     0.530 C 
ATOM     22  F   UNL d   1      24.451 -14.060  -4.299  0.00  0.00    -0.144 F 
ATOM     23  F   UNL d   1      26.563 -13.945  -3.612  0.00  0.00    -0.144 F 
ATOM     24  F   UNL d   1      25.634 -15.860  -4.047  0.00  0.00    -0.144 F 
ENDBRANCH  20  21
ENDBRANCH  19  20
ENDBRANCH  13  14
ENDBRANCH  11  13
ENDBRANCH   8   9
ENDBRANCH   4   8
BRANCH   1  25
ATOM     25  C   UNL d   1      28.862 -12.737   6.792  0.00  0.00     0.129 A 
ATOM     26  C   UNL d   1      28.532 -13.104   8.094  0.00  0.00     0.075 A 
ATOM     27  C   UNL d   1      28.623 -12.185   9.140  0.00  0.00     0.010 A 
ATOM     28  C   UNL d   1      28.288 -12.557  10.549  0.00  0.00     0.068 C 
ATOM     29  N   UNL d   1      29.019 -10.934   8.865  0.00  0.00    -0.348 N 
ATOM     30  C   UNL d   1      29.361 -10.599   7.607  0.00  0.00     0.110 A 
ATOM     31  H   UNL d   1      29.074 -10.237   9.608  0.00  0.00     0.167 HD
ATOM     32  N   UNL d   1      29.310 -11.495   6.559  0.00  0.00    -0.218 NA
BRANCH  30  33
ATOM     33  C   UNL d   1      29.794  -9.160   7.369  0.00  0.00     0.047 C 
ATOM     34  C   UNL d   1      28.909  -8.479   6.318  0.00  0.00     0.017 C 
ATOM     35  C   UNL d   1      29.766  -8.351   8.663  0.00  0.00     0.017 C 
ENDBRANCH  30  33
ENDBRANCH   1  25
TORSDOF 8
ENDMDL
MODEL 4
REMARK VINA RESULT:    -9.078      1.869      2.524
REMARK INTER + INTRA:         -13.088
REMARK INTER:                 -11.465
REMARK INTRA:                  -1.623
REMARK CONF_INDEPENDENT:        2.386
REMARK UNBOUND:                -1.623
REMARK  8 active torsions:
REMARK  status: ('A' for Active; 'I' for Inactive)
REMARK    1  A    between atoms: C_4  and  N_5 
REMARK    2  A    between atoms: N_8  and  C_9 
REMARK    3  A    between atoms: C_9  and  C_10 
REMARK       I    between atoms: C_10  and  N_12 
REMARK    4  A    between atoms: N_12  and  C_13 
REMARK    5  A    between atoms: C_13  and  C_14 
REMARK    6  A    between atoms: C_19  and  O_20 
REMARK    7  A    between atoms: O_20  and  C_21 
REMARK    8  A    between atoms: C_28  and  C_29 
ROOT
ATOM      1  N   UNL d   1      28.777 -13.685   5.764  0.00  0.00    -0.362 N 
ATOM      2  C   UNL d   1      30.029 -14.146   5.150  0.00  0.00     0.152 C 
ATOM      3  C   UNL d   1      30.029 -13.723   3.662  0.00  0.00     0.255 C 
ATOM      4  N   UNL d   1      28.801 -14.262   2.919  0.00  0.00    -0.060 N 
ATOM      5  C   UNL d   1      27.478 -14.004   3.704  0.00  0.00     0.255 C 
ATOM      6  C   UNL d   1      27.603 -14.388   5.222  0.00  0.00     0.152 C 
ATOM      7  H   UNL d   1      28.878 -15.288   2.826  0.00  0.00     0.280 HD
ENDROOT
BRANCH   4   8
ATOM      8  C   UNL d   1      28.745 -13.740   1.444  0.00  0.00     0.337 C 
BRANCH   8   9
ATOM      9  C   UNL d   1      27.400 -14.015   0.754  0.00  0.00     0.243 C 
ATOM     10  O   UNL d   1      26.356 -13.729   1.324  0.00  0.00    -0.272 OA
ATOM     11  N   UNL d   1      27.453 -14.556  -0.521  0.00  0.00    -0.355 N 
ATOM     12  H   UNL d   1      28.240 -15.132  -0.799  0.00  0.00     0.162 HD
BRANCH  11  13
ATOM     13  C   UNL d   1      26.194 -14.831  -1.194  0.00  0.00     0.164 C 
BRANCH  13  14
ATOM     14  C   UNL d   1      25.589 -16.178  -0.895  0.00  0.00    -0.007 C 
ATOM     15  C   UNL d   1      24.240 -16.324  -1.302  0.00  0.00     0.011 C 
ATOM     16  C   UNL d   1      23.456 -17.398  -0.886  0.00  0.00     0.001 C 
ATOM     17  C   UNL d   1      24.042 -18.429  -0.173  0.00  0.00     0.003 C 
ATOM     18  C   UNL d   1      25.410 -18.377   0.112  0.00  0.00     0.037 C 
ATOM     19  C   UNL d   1      26.192 -17.238  -0.184  0.00  0.00     0.086 C 
BRANCH  19  20
ATOM     20  O   UNL d   1      27.461 -17.364   0.318  0.00  0.00    -0.255 OA
BRANCH  20  21
ATOM     21  C   UNL d   1      28.605 -17.366  -0.513  0.00  0.00     0.530 C 
ATOM     22  F   UNL d   1      29.476 -16.406  -0.117  0.00  0.00    -0.144 F 
ATOM     23  F   UNL d   1      29.202 -18.575  -0.522  0.00  0.00    -0.144 F 
ATOM     24  F   UNL d   1      28.265 -17.078  -1.785  0.00  0.00    -0.144 F 
ENDBRANCH  20  21
ENDBRANCH  19  20
ENDBRANCH  13  14
ENDBRANCH  11  13
ENDBRANCH   8   9
ENDBRANCH   4   8
BRANCH   1  25
ATOM     25  C   UNL d   1      28.838 -12.959   6.939  0.00  0.00     0.129 A 
ATOM     26  C   UNL d   1      28.988 -11.577   6.853  0.00  0.00     0.075 A 
ATOM     27  C   UNL d   1      29.134 -10.801   8.004  0.00  0.00     0.010 A 
ATOM     28  C   UNL d   1      29.283  -9.314   7.939  0.00  0.00     0.068 C 
ATOM     29  N   UNL d   1      29.145 -11.414   9.196  0.00  0.00    -0.348 N 
ATOM     30  C   UNL d   1      28.972 -12.747   9.268  0.00  0.00     0.110 A 
ATOM     31  H   UNL d   1      29.271 -10.872  10.052  0.00  0.00     0.167 HD
ATOM     32  N   UNL d   1      28.794 -13.535   8.149  0.00  0.00    -0.218 NA
BRANCH  30  33
ATOM     33  C   UNL d   1      29.002 -13.373  10.654  0.00  0.00     0.047 C 
ATOM     34  C   UNL d   1      28.144 -12.576  11.643  0.00  0.00     0.017 C 
ATOM     35  C   UNL d   1      28.528 -14.824  10.618  0.00  0.00     0.017 C 
ENDBRANCH  30  33
ENDBRANCH   1  25
TORSDOF 8
ENDMDL
MODEL 5
REMARK VINA RESULT:    -8.536      2.273      2.780
REMARK INTER + INTRA:         -12.700
REMARK INTER:                 -10.922
REMARK INTRA:                  -1.778
REMARK CONF_INDEPENDENT:        2.386
REMARK UNBOUND:                -1.778
REMARK  8 active torsions:
REMARK  status: ('A' for Active; 'I' for Inactive)
REMARK    1  A    between atoms: C_4  and  N_5 
REMARK    2  A    between atoms: N_8  and  C_9 
REMARK    3  A    between atoms: C_9  and  C_10 
REMARK       I    between atoms: C_10  and  N_12 
REMARK    4  A    between atoms: N_12  and  C_13 
REMARK    5  A    between atoms: C_13  and  C_14 
REMARK    6  A    between atoms: C_19  and  O_20 
REMARK    7  A    between atoms: O_20  and  C_21 
REMARK    8  A    between atoms: C_28  and  C_29 
ROOT
ATOM      1  N   UNL d   1      28.593 -13.682   5.801  0.00  0.00    -0.362 N 
ATOM      2  C   UNL d   1      29.794 -14.458   5.462  0.00  0.00     0.152 C 
ATOM      3  C   UNL d   1      30.136 -14.205   3.975  0.00  0.00     0.255 C 
ATOM      4  N   UNL d   1      28.959 -14.551   3.055  0.00  0.00    -0.060 N 
ATOM      5  C   UNL d   1      27.616 -13.941   3.562  0.00  0.00     0.255 C 
ATOM      6  C   UNL d   1      27.398 -14.178   5.099  0.00  0.00     0.152 C 
ATOM      7  H   UNL d   1      28.818 -15.575   3.048  0.00  0.00     0.280 HD
ENDROOT
BRANCH   4   8
ATOM      8  C   UNL d   1      29.267 -14.190   1.564  0.00  0.00     0.337 C 
BRANCH   8   9
ATOM      9  C   UNL d   1      28.632 -15.163   0.559  0.00  0.00     0.243 C 
ATOM     10  O   UNL d   1      28.159 -16.219   0.954  0.00  0.00    -0.272 OA
ATOM     11  N   UNL d   1      28.603 -14.759  -0.767  0.00  0.00    -0.355 N 
ATOM     12  H   UNL d   1      29.310 -14.126  -1.123  0.00  0.00     0.162 HD
BRANCH  11  13
ATOM     13  C   UNL d   1      28.012 -15.665  -1.738  0.00  0.00     0.164 C 
BRANCH  13  14
ATOM     14  C   UNL d   1      27.152 -15.008  -2.786  0.00  0.00    -0.007 C 
ATOM     15  C   UNL d   1      26.098 -14.213  -2.273  0.00  0.00     0.011 C 
ATOM     16  C   UNL d   1      25.068 -13.741  -3.083  0.00  0.00     0.001 C 
ATOM     17  C   UNL d   1      25.141 -13.930  -4.452  0.00  0.00     0.003 C 
ATOM     18  C   UNL d   1      26.250 -14.583  -4.997  0.00  0.00     0.037 C 
ATOM     19  C   UNL d   1      27.238 -15.184  -4.184  0.00  0.00     0.086 C 
BRANCH  19  20
ATOM     20  O   UNL d   1      28.141 -15.886  -4.939  0.00  0.00    -0.255 OA
BRANCH  20  21
ATOM     21  C   UNL d   1      29.083 -15.248  -5.778  0.00  0.00     0.530 C 
ATOM     22  F   UNL d   1      30.140 -16.064  -6.007  0.00  0.00    -0.144 F 
ATOM     23  F   UNL d   1      28.520 -14.860  -6.941  0.00  0.00    -0.144 F 
ATOM     24  F   UNL d   1      29.572 -14.141  -5.182  0.00  0.00    -0.144 F 
ENDBRANCH  20  21
ENDBRANCH  19  20
ENDBRANCH  13  14
ENDBRANCH  11  13
ENDBRANCH   8   9
ENDBRANCH   4   8
BRANCH   1  25
ATOM     25  C   UNL d   1      28.619 -12.864   6.915  0.00  0.00     0.129 A 
ATOM     26  C   UNL d   1      29.066 -11.554   6.760  0.00  0.00     0.075 A 
ATOM     27  C   UNL d   1      29.189 -10.706   7.862  0.00  0.00     0.010 A 
ATOM     28  C   UNL d   1      29.653  -9.292   7.721  0.00  0.00     0.068 C 
ATOM     29  N   UNL d   1      28.885 -11.182   9.078  0.00  0.00    -0.348 N 
ATOM     30  C   UNL d   1      28.428 -12.442   9.211  0.00  0.00     0.110 A 
ATOM     31  H   UNL d   1      28.985 -10.590   9.902  0.00  0.00     0.167 HD
ATOM     32  N   UNL d   1      28.267 -13.291   8.136  0.00  0.00    -0.218 NA
BRANCH  30  33
ATOM     33  C   UNL d   1      28.109 -12.915  10.621  0.00  0.00     0.047 C 
ATOM     34  C   UNL d   1      28.158 -14.444  10.720  0.00  0.00     0.017 C 
ATOM     35  C   UNL d   1      29.068 -12.305  11.641  0.00  0.00     0.017 C 
ENDBRANCH  30  33
ENDBRANCH   1  25
TORSDOF 8
ENDMDL
MODEL 6
REMARK VINA RESULT:    -8.405      1.705      2.674
REMARK INTER + INTRA:         -12.541
REMARK INTER:                 -10.792
REMARK INTRA:                  -1.749
REMARK CONF_INDEPENDENT:        2.386
REMARK UNBOUND:                -1.749
REMARK  8 active torsions:
REMARK  status: ('A' for Active; 'I' for Inactive)
REMARK    1  A    between atoms: C_4  and  N_5 
REMARK    2  A    between atoms: N_8  and  C_9 
REMARK    3  A    between atoms: C_9  and  C_10 
REMARK       I    between atoms: C_10  and  N_12 
REMARK    4  A    between atoms: N_12  and  C_13 
REMARK    5  A    between atoms: C_13  and  C_14 
REMARK    6  A    between atoms: C_19  and  O_20 
REMARK    7  A    between atoms: O_20  and  C_21 
REMARK    8  A    between atoms: C_28  and  C_29 
ROOT
ATOM      1  N   UNL d   1      28.408 -13.671   5.720  0.00  0.00    -0.362 N 
ATOM      2  C   UNL d   1      29.577 -14.498   5.390  0.00  0.00     0.152 C 
ATOM      3  C   UNL d   1      29.895 -14.317   3.886  0.00  0.00     0.255 C 
ATOM      4  N   UNL d   1      28.689 -14.661   3.005  0.00  0.00    -0.060 N 
ATOM      5  C   UNL d   1      27.377 -13.987   3.514  0.00  0.00     0.255 C 
ATOM      6  C   UNL d   1      27.184 -14.155   5.063  0.00  0.00     0.152 C 
ATOM      7  H   UNL d   1      28.514 -15.679   3.043  0.00  0.00     0.280 HD
ENDROOT
BRANCH   4   8
ATOM      8  C   UNL d   1      28.976 -14.370   1.495  0.00  0.00     0.337 C 
BRANCH   8   9
ATOM      9  C   UNL d   1      28.258 -15.337   0.542  0.00  0.00     0.243 C 
ATOM     10  O   UNL d   1      27.560 -16.232   0.999  0.00  0.00    -0.272 OA
ATOM     11  N   UNL d   1      28.423 -15.113  -0.816  0.00  0.00    -0.355 N 
ATOM     12  H   UNL d   1      29.267 -14.668  -1.161  0.00  0.00     0.162 HD
BRANCH  11  13
ATOM     13  C   UNL d   1      27.759 -16.019  -1.738  0.00  0.00     0.164 C 
BRANCH  13  14
ATOM     14  C   UNL d   1      27.902 -15.667  -3.196  0.00  0.00    -0.007 C 
ATOM     15  C   UNL d   1      29.236 -15.647  -3.672  0.00  0.00     0.011 C 
ATOM     16  C   UNL d   1      29.569 -15.104  -4.911  0.00  0.00     0.001 C 
ATOM     17  C   UNL d   1      28.560 -14.700  -5.767  0.00  0.00     0.003 C 
ATOM     18  C   UNL d   1      27.227 -14.849  -5.378  0.00  0.00     0.037 C 
ATOM     19  C   UNL d   1      26.871 -15.273  -4.077  0.00  0.00     0.086 C 
BRANCH  19  20
ATOM     20  O   UNL d   1      25.516 -15.201  -3.885  0.00  0.00    -0.255 OA
BRANCH  20  21
ATOM     21  C   UNL d   1      24.862 -13.989  -3.567  0.00  0.00     0.530 C 
ATOM     22  F   UNL d   1      23.583 -14.229  -3.187  0.00  0.00    -0.144 F 
ATOM     23  F   UNL d   1      25.524 -13.311  -2.607  0.00  0.00    -0.144 F 
ATOM     24  F   UNL d   1      24.799 -13.188  -4.651  0.00  0.00    -0.144 F 
ENDBRANCH  20  21
ENDBRANCH  19  20
ENDBRANCH  13  14
ENDBRANCH  11  13
ENDBRANCH   8   9
ENDBRANCH   4   8
BRANCH   1  25
ATOM     25  C   UNL d   1      28.485 -12.810   6.800  0.00  0.00     0.129 A 
ATOM     26  C   UNL d   1      28.950 -11.516   6.578  0.00  0.00     0.075 A 
ATOM     27  C   UNL d   1      29.123 -10.627   7.641  0.00  0.00     0.010 A 
ATOM     28  C   UNL d   1      29.608  -9.229   7.429  0.00  0.00     0.068 C 
ATOM     29  N   UNL d   1      28.849 -11.049   8.883  0.00  0.00    -0.348 N 
ATOM     30  C   UNL d   1      28.374 -12.293   9.082  0.00  0.00     0.110 A 
ATOM     31  H   UNL d   1      28.986 -10.427   9.680  0.00  0.00     0.167 HD
ATOM     32  N   UNL d   1      28.164 -13.182   8.047  0.00  0.00    -0.218 NA
BRANCH  30  33
ATOM     33  C   UNL d   1      28.091 -12.704  10.519  0.00  0.00     0.047 C 
ATOM     34  C   UNL d   1      27.779 -14.202  10.618  0.00  0.00     0.017 C 
ATOM     35  C   UNL d   1      29.264 -12.363  11.434  0.00  0.00     0.017 C 
ENDBRANCH  30  33
ENDBRANCH   1  25
TORSDOF 8
ENDMDL
MODEL 7
REMARK VINA RESULT:    -8.317      2.028      3.202
REMARK INTER + INTRA:         -12.391
REMARK INTER:                 -10.703
REMARK INTRA:                  -1.688
REMARK CONF_INDEPENDENT:        2.386
REMARK UNBOUND:                -1.688
REMARK  8 active torsions:
REMARK  status: ('A' for Active; 'I' for Inactive)
REMARK    1  A    between atoms: C_4  and  N_5 
REMARK    2  A    between atoms: N_8  and  C_9 
REMARK    3  A    between atoms: C_9  and  C_10 
REMARK       I    between atoms: C_10  and  N_12 
REMARK    4  A    between atoms: N_12  and  C_13 
REMARK    5  A    between atoms: C_13  and  C_14 
REMARK    6  A    between atoms: C_19  and  O_20 
REMARK    7  A    between atoms: O_20  and  C_21 
REMARK    8  A    between atoms: C_28  and  C_29 
ROOT
ATOM      1  N   UNL d   1      28.908 -13.660   5.955  0.00  0.00    -0.362 N 
ATOM      2  C   UNL d   1      30.030 -14.467   5.456  0.00  0.00     0.152 C 
ATOM      3  C   UNL d   1      30.210 -14.173   3.947  0.00  0.00     0.255 C 
ATOM      4  N   UNL d   1      28.924 -14.441   3.159  0.00  0.00    -0.060 N 
ATOM      5  C   UNL d   1      27.673 -13.800   3.836  0.00  0.00     0.255 C 
ATOM      6  C   UNL d   1      27.621 -14.085   5.380  0.00  0.00     0.152 C 
ATOM      7  H   UNL d   1      28.740 -15.458   3.135  0.00  0.00     0.280 HD
ENDROOT
BRANCH   4   8
ATOM      8  C   UNL d   1      29.074 -14.037   1.654  0.00  0.00     0.337 C 
BRANCH   8   9
ATOM      9  C   UNL d   1      27.820 -14.332   0.818  0.00  0.00     0.243 C 
ATOM     10  O   UNL d   1      26.719 -14.317   1.350  0.00  0.00    -0.272 OA
ATOM     11  N   UNL d   1      28.014 -14.571  -0.534  0.00  0.00    -0.355 N 
ATOM     12  H   UNL d   1      28.890 -14.964  -0.862  0.00  0.00     0.162 HD
BRANCH  11  13
ATOM     13  C   UNL d   1      26.844 -14.858  -1.347  0.00  0.00     0.164 C 
BRANCH  13  14
ATOM     14  C   UNL d   1      26.107 -16.122  -0.985  0.00  0.00    -0.007 C 
ATOM     15  C   UNL d   1      24.751 -16.153  -1.392  0.00  0.00     0.011 C 
ATOM     16  C   UNL d   1      23.864 -17.122  -0.929  0.00  0.00     0.001 C 
ATOM     17  C   UNL d   1      24.343 -18.169  -0.161  0.00  0.00     0.003 C 
ATOM     18  C   UNL d   1      25.708 -18.239   0.130  0.00  0.00     0.037 C 
ATOM     19  C   UNL d   1      26.601 -17.200  -0.218  0.00  0.00     0.086 C 
BRANCH  19  20
ATOM     20  O   UNL d   1      27.850 -17.426   0.298  0.00  0.00    -0.255 OA
BRANCH  20  21
ATOM     21  C   UNL d   1      29.008 -17.461  -0.514  0.00  0.00     0.530 C 
ATOM     22  F   UNL d   1      29.902 -16.531  -0.099  0.00  0.00    -0.144 F 
ATOM     23  F   UNL d   1      29.566 -18.689  -0.520  0.00  0.00    -0.144 F 
ATOM     24  F   UNL d   1      28.698 -17.156  -1.790  0.00  0.00    -0.144 F 
ENDBRANCH  20  21
ENDBRANCH  19  20
ENDBRANCH  13  14
ENDBRANCH  11  13
ENDBRANCH   8   9
ENDBRANCH   4   8
BRANCH   1  25
ATOM     25  C   UNL d   1      29.095 -12.884   7.084  0.00  0.00     0.129 A 
ATOM     26  C   UNL d   1      28.502 -13.300   8.274  0.00  0.00     0.075 A 
ATOM     27  C   UNL d   1      28.590 -12.518   9.427  0.00  0.00     0.010 A 
ATOM     28  C   UNL d   1      27.975 -12.947  10.721  0.00  0.00     0.068 C 
ATOM     29  N   UNL d   1      29.243 -11.349   9.363  0.00  0.00    -0.348 N 
ATOM     30  C   UNL d   1      29.835 -10.971   8.214  0.00  0.00     0.110 A 
ATOM     31  H   UNL d   1      29.306 -10.748  10.186  0.00  0.00     0.167 HD
ATOM     32  N   UNL d   1      29.790 -11.738   7.069  0.00  0.00    -0.218 NA
BRANCH  30  33
ATOM     33  C   UNL d   1      30.552  -9.629   8.215  0.00  0.00     0.047 C 
ATOM     34  C   UNL d   1      29.555  -8.465   8.240  0.00  0.00     0.017 C 
ATOM     35  C   UNL d   1      31.506  -9.512   9.401  0.00  0.00     0.017 C 
ENDBRANCH  30  33
ENDBRANCH   1  25
TORSDOF 8
ENDMDL
MODEL 8
REMARK VINA RESULT:    -8.291      1.638      3.271
REMARK INTER + INTRA:         -12.605
REMARK INTER:                 -10.678
REMARK INTRA:                  -1.928
REMARK CONF_INDEPENDENT:        2.386
REMARK UNBOUND:                -1.928
REMARK  8 active torsions:
REMARK  status: ('A' for Active; 'I' for Inactive)
REMARK    1  A    between atoms: C_4  and  N_5 
REMARK    2  A    between atoms: N_8  and  C_9 
REMARK    3  A    between atoms: C_9  and  C_10 
REMARK       I    between atoms: C_10  and  N_12 
REMARK    4  A    between atoms: N_12  and  C_13 
REMARK    5  A    between atoms: C_13  and  C_14 
REMARK    6  A    between atoms: C_19  and  O_20 
REMARK    7  A    between atoms: O_20  and  C_21 
REMARK    8  A    between atoms: C_28  and  C_29 
ROOT
ATOM      1  N   UNL d   1      28.695 -13.614   5.735  0.00  0.00    -0.362 N 
ATOM      2  C   UNL d   1      29.835 -14.452   5.340  0.00  0.00     0.152 C 
ATOM      3  C   UNL d   1      30.091 -14.248   3.828  0.00  0.00     0.255 C 
ATOM      4  N   UNL d   1      28.843 -14.559   2.994  0.00  0.00    -0.060 N 
ATOM      5  C   UNL d   1      27.565 -13.875   3.570  0.00  0.00     0.255 C 
ATOM      6  C   UNL d   1      27.436 -14.068   5.123  0.00  0.00     0.152 C 
ATOM      7  H   UNL d   1      28.655 -15.575   3.021  0.00  0.00     0.280 HD
ENDROOT
BRANCH   4   8
ATOM      8  C   UNL d   1      29.070 -14.245   1.477  0.00  0.00     0.337 C 
BRANCH   8   9
ATOM      9  C   UNL d   1      28.360 -15.233   0.540  0.00  0.00     0.243 C 
ATOM     10  O   UNL d   1      27.542 -16.020   0.995  0.00  0.00    -0.272 OA
ATOM     11  N   UNL d   1      28.674 -15.149  -0.808  0.00  0.00    -0.355 N 
ATOM     12  H   UNL d   1      29.584 -14.809  -1.100  0.00  0.00     0.162 HD
BRANCH  11  13
ATOM     13  C   UNL d   1      28.019 -16.076  -1.716  0.00  0.00     0.164 C 
BRANCH  13  14
ATOM     14  C   UNL d   1      26.832 -15.517  -2.457  0.00  0.00    -0.007 C 
ATOM     15  C   UNL d   1      27.129 -14.995  -3.740  0.00  0.00     0.011 C 
ATOM     16  C   UNL d   1      26.214 -14.223  -4.451  0.00  0.00     0.001 C 
ATOM     17  C   UNL d   1      24.928 -14.074  -3.963  0.00  0.00     0.003 C 
ATOM     18  C   UNL d   1      24.568 -14.706  -2.770  0.00  0.00     0.037 C 
ATOM     19  C   UNL d   1      25.515 -15.383  -1.967  0.00  0.00     0.086 C 
BRANCH  19  20
ATOM     20  O   UNL d   1      24.960 -15.791  -0.783  0.00  0.00    -0.255 OA
BRANCH  20  21
ATOM     21  C   UNL d   1      24.506 -17.114  -0.578  0.00  0.00     0.530 C 
ATOM     22  F   UNL d   1      24.592 -17.825  -1.729  0.00  0.00    -0.144 F 
ATOM     23  F   UNL d   1      25.194 -17.722   0.410  0.00  0.00    -0.144 F 
ATOM     24  F   UNL d   1      23.206 -17.116  -0.220  0.00  0.00    -0.144 F 
ENDBRANCH  20  21
ENDBRANCH  19  20
ENDBRANCH  13  14
ENDBRANCH  11  13
ENDBRANCH   8   9
ENDBRANCH   4   8
BRANCH   1  25
ATOM     25  C   UNL d   1      28.831 -12.774   6.825  0.00  0.00     0.129 A 
ATOM     26  C   UNL d   1      28.532 -13.279   8.088  0.00  0.00     0.075 A 
ATOM     27  C   UNL d   1      28.575 -12.457   9.215  0.00  0.00     0.010 A 
ATOM     28  C   UNL d   1      28.272 -12.978  10.583  0.00  0.00     0.068 C 
ATOM     29  N   UNL d   1      28.894 -11.164   9.056  0.00  0.00    -0.348 N 
ATOM     30  C   UNL d   1      29.206 -10.694   7.834  0.00  0.00     0.110 A 
ATOM     31  H   UNL d   1      28.913 -10.537   9.861  0.00  0.00     0.167 HD
ATOM     32  N   UNL d   1      29.202 -11.491   6.708  0.00  0.00    -0.218 NA
BRANCH  30  33
ATOM     33  C   UNL d   1      29.551  -9.216   7.730  0.00  0.00     0.047 C 
ATOM     34  C   UNL d   1      30.067  -8.670   9.067  0.00  0.00     0.017 C 
ATOM     35  C   UNL d   1      30.588  -8.963   6.639  0.00  0.00     0.017 C 
ENDBRANCH  30  33
ENDBRANCH   1  25
TORSDOF 8
ENDMDL
MODEL 9
REMARK VINA RESULT:    -7.822      2.038      2.732
REMARK INTER + INTRA:         -12.314
REMARK INTER:                 -10.208
REMARK INTRA:                  -2.106
REMARK CONF_INDEPENDENT:        2.386
REMARK UNBOUND:                -2.106
REMARK  8 active torsions:
REMARK  status: ('A' for Active; 'I' for Inactive)
REMARK    1  A    between atoms: C_4  and  N_5 
REMARK    2  A    between atoms: N_8  and  C_9 
REMARK    3  A    between atoms: C_9  and  C_10 
REMARK       I    between atoms: C_10  and  N_12 
REMARK    4  A    between atoms: N_12  and  C_13 
REMARK    5  A    between atoms: C_13  and  C_14 
REMARK    6  A    between atoms: C_19  and  O_20 
REMARK    7  A    between atoms: O_20  and  C_21 
REMARK    8  A    between atoms: C_28  and  C_29 
ROOT
ATOM      1  N   UNL d   1      28.689 -13.726   5.831  0.00  0.00    -0.362 N 
ATOM      2  C   UNL d   1      29.923 -14.459   5.515  0.00  0.00     0.152 C 
ATOM      3  C   UNL d   1      30.295 -14.176   4.040  0.00  0.00     0.255 C 
ATOM      4  N   UNL d   1      29.155 -14.546   3.085  0.00  0.00    -0.060 N 
ATOM      5  C   UNL d   1      27.781 -13.985   3.564  0.00  0.00     0.255 C 
ATOM      6  C   UNL d   1      27.529 -14.249   5.092  0.00  0.00     0.152 C 
ATOM      7  H   UNL d   1      29.046 -15.574   3.062  0.00  0.00     0.280 HD
ENDROOT
BRANCH   4   8
ATOM      8  C   UNL d   1      29.490 -14.156   1.607  0.00  0.00     0.337 C 
BRANCH   8   9
ATOM      9  C   UNL d   1      28.815 -15.066   0.570  0.00  0.00     0.243 C 
ATOM     10  O   UNL d   1      29.400 -16.060   0.164  0.00  0.00    -0.272 OA
ATOM     11  N   UNL d   1      27.535 -14.714   0.170  0.00  0.00    -0.355 N 
ATOM     12  H   UNL d   1      27.243 -13.742   0.191  0.00  0.00     0.162 HD
BRANCH  11  13
ATOM     13  C   UNL d   1      26.877 -15.556  -0.814  0.00  0.00     0.164 C 
BRANCH  13  14
ATOM     14  C   UNL d   1      26.404 -14.841  -2.054  0.00  0.00    -0.007 C 
ATOM     15  C   UNL d   1      26.078 -15.693  -3.139  0.00  0.00     0.011 C 
ATOM     16  C   UNL d   1      25.868 -15.201  -4.425  0.00  0.00     0.001 C 
ATOM     17  C   UNL d   1      25.834 -13.832  -4.630  0.00  0.00     0.003 C 
ATOM     18  C   UNL d   1      26.005 -12.970  -3.544  0.00  0.00     0.037 C 
ATOM     19  C   UNL d   1      26.351 -13.446  -2.258  0.00  0.00     0.086 C 
BRANCH  19  20
ATOM     20  O   UNL d   1      26.607 -12.410  -1.399  0.00  0.00    -0.255 OA
BRANCH  20  21
ATOM     21  C   UNL d   1      27.683 -11.514  -1.595  0.00  0.00     0.530 C 
ATOM     22  F   UNL d   1      28.714 -12.145  -2.209  0.00  0.00    -0.144 F 
ATOM     23  F   UNL d   1      27.298 -10.432  -2.302  0.00  0.00    -0.144 F 
ATOM     24  F   UNL d   1      28.151 -11.072  -0.410  0.00  0.00    -0.144 F 
ENDBRANCH  20  21
ENDBRANCH  19  20
ENDBRANCH  13  14
ENDBRANCH  11  13
ENDBRANCH   8   9
ENDBRANCH   4   8
BRANCH   1  25
ATOM     25  C   UNL d   1      28.661 -12.922   6.956  0.00  0.00     0.129 A 
ATOM     26  C   UNL d   1      28.936 -11.565   6.803  0.00  0.00     0.075 A 
ATOM     27  C   UNL d   1      28.999 -10.720   7.912  0.00  0.00     0.010 A 
ATOM     28  C   UNL d   1      29.280  -9.258   7.774  0.00  0.00     0.068 C 
ATOM     29  N   UNL d   1      28.806 -11.243   9.131  0.00  0.00    -0.348 N 
ATOM     30  C   UNL d   1      28.514 -12.550   9.264  0.00  0.00     0.110 A 
ATOM     31  H   UNL d   1      28.866 -10.651   9.960  0.00  0.00     0.167 HD
ATOM     32  N   UNL d   1      28.414 -13.402   8.183  0.00  0.00    -0.218 NA
BRANCH  30  33
ATOM     33  C   UNL d   1      28.313 -13.073  10.678  0.00  0.00     0.047 C 
ATOM     34  C   UNL d   1      28.767 -14.532  10.801  0.00  0.00     0.017 C 
ATOM     35  C   UNL d   1      29.061 -12.217  11.697  0.00  0.00     0.017 C 
ENDBRANCH  30  33
ENDBRANCH   1  25
TORSDOF 8
ENDMDL
