MODEL 1
REMARK VINA RESULT:    -9.811      0.000      0.000
REMARK INTER + INTRA:         -12.070
REMARK INTER:                 -11.303
REMARK INTRA:                  -0.767
REMARK CONF_INDEPENDENT:        1.492
REMARK UNBOUND:                -0.767
REMARK  5 active torsions:
REMARK  status: ('A' for Active; 'I' for Inactive)
REMARK       I    between atoms: N_1  and  C_2 
REMARK    1  A    between atoms: C_2  and  C_4 
REMARK    2  A    between atoms: C_4  and  C_5 
REMARK    3  A    between atoms: C_5  and  C_6 
REMARK    4  A    between atoms: N_22  and  C_23 
REMARK    5  A    between atoms: C_23  and  C_24 
ROOT
ATOM      1  C   UNL d   1      24.331 -16.320  -1.344  0.00  0.00     0.237 C 
ATOM      2  N   UNL d   1      25.199 -16.179  -0.161  0.00  0.00     0.113 N 
ATOM      3  C   UNL d   1      26.588 -16.034  -0.600  0.00  0.00     0.279 C 
ATOM      4  C   UNL d   1      27.508 -17.165  -0.025  0.00  0.00     0.267 C 
ATOM      5  O   UNL d   1      27.374 -18.372  -0.144  0.00  0.00    -0.270 OA
ATOM      6  N   UNL d   1      28.574 -16.548   0.605  0.00  0.00    -0.324 N 
ATOM      7  C   UNL d   1      28.432 -15.170   0.595  0.00  0.00     0.044 A 
ATOM      8  C   UNL d   1      29.337 -14.235   1.038  0.00  0.00     0.032 A 
ATOM      9  C   UNL d   1      29.022 -12.887   0.829  0.00  0.00     0.026 A 
ATOM     10  C   UNL d   1      27.815 -12.512   0.211  0.00  0.00     0.034 A 
ATOM     11 CL   UNL d   1      27.515 -10.853  -0.135  0.00  0.00    -0.084 Cl
ATOM     12  C   UNL d   1      26.890 -13.471  -0.192  0.00  0.00     0.036 A 
ATOM     13  C   UNL d   1      27.230 -14.808  -0.015  0.00  0.00     0.019 A 
ATOM     14  C   UNL d   1      26.631 -16.154  -2.113  0.00  0.00     0.147 C 
ATOM     15  C   UNL d   1      27.227 -14.992  -2.857  0.00  0.00     0.235 C 
ATOM     16  O   UNL d   1      28.211 -14.378  -2.535  0.00  0.00    -0.272 OA
ATOM     17  N   UNL d   1      26.444 -14.705  -3.940  0.00  0.00    -0.283 N 
ATOM     18  C   UNL d   1      25.155 -14.948  -3.494  0.00  0.00     0.234 C 
ATOM     19  O   UNL d   1      24.110 -14.360  -3.720  0.00  0.00    -0.272 OA
ATOM     20  C   UNL d   1      25.207 -16.169  -2.593  0.00  0.00     0.128 C 
ATOM     21  H   UNL d   1      25.096 -16.950   0.504  0.00  0.00     0.318 HD
ATOM     22  H   UNL d   1      29.344 -17.071   0.994  0.00  0.00     0.169 HD
ENDROOT
BRANCH   1  23
ATOM     23  C   UNL d   1      23.628 -17.703  -1.294  0.00  0.00     0.045 C 
BRANCH  23  24
ATOM     24  C   UNL d   1      22.624 -17.857  -0.142  0.00  0.00     0.105 C 
BRANCH  24  25
ATOM     25  C   UNL d   1      21.365 -18.576  -0.529  0.00  0.00     0.215 C 
ATOM     26  N   UNL d   1      21.283 -19.841  -0.019  0.00  0.00    -0.370 N 
ATOM     27  H   UNL d   1      20.461 -20.383  -0.246  0.00  0.00     0.159 HD
ATOM     28  H   UNL d   1      21.979 -20.242   0.595  0.00  0.00     0.159 HD
ATOM     29  O   UNL d   1      20.494 -18.113  -1.251  0.00  0.00    -0.274 OA
ENDBRANCH  24  25
ENDBRANCH  23  24
ENDBRANCH   1  23
BRANCH  17  30
ATOM     30  C   UNL d   1      27.050 -13.684  -4.847  0.00  0.00     0.175 C 
BRANCH  30  31
ATOM     31  C   UNL d   1      28.141 -14.016  -5.868  0.00  0.00    -0.018 C 
ATOM     32  C   UNL d   1      28.886 -15.238  -5.745  0.00  0.00     0.010 C 
ATOM     33  C   UNL d   1      30.123 -15.414  -6.400  0.00  0.00     0.001 C 
ATOM     34  C   UNL d   1      30.585 -14.439  -7.268  0.00  0.00     0.002 C 
ATOM     35  C   UNL d   1      29.785 -13.342  -7.529  0.00  0.00     0.024 C 
ATOM     36  C   UNL d   1      28.607 -13.113  -6.821  0.00  0.00     0.042 C 
ATOM     37 CL   UNL d   1      27.866 -11.632  -7.247  0.00  0.00    -0.084 Cl
ENDBRANCH  30  31
ENDBRANCH  17  30
TORSDOF 5
ENDMDL
MODEL 2
REMARK VINA RESULT:    -9.770      1.474      2.387
REMARK INTER + INTRA:         -12.493
REMARK INTER:                 -11.262
REMARK INTRA:                  -1.231
REMARK CONF_INDEPENDENT:        1.492
REMARK UNBOUND:                -1.231
REMARK  5 active torsions:
REMARK  status: ('A' for Active; 'I' for Inactive)
REMARK       I    between atoms: N_1  and  C_2 
REMARK    1  A    between atoms: C_2  and  C_4 
REMARK    2  A    between atoms: C_4  and  C_5 
REMARK    3  A    between atoms: C_5  and  C_6 
REMARK    4  A    between atoms: N_22  and  C_23 
REMARK    5  A    between atoms: C_23  and  C_24 
ROOT
ATOM      1  C   UNL d   1      24.371 -16.245  -1.397  0.00  0.00     0.237 C 
ATOM      2  N   UNL d   1      25.220 -16.101  -0.200  0.00  0.00     0.113 N 
ATOM      3  C   UNL d   1      26.611 -15.916  -0.618  0.00  0.00     0.279 C 
ATOM      4  C   UNL d   1      27.550 -17.033  -0.048  0.00  0.00     0.267 C 
ATOM      5  O   UNL d   1      27.448 -18.241  -0.187  0.00  0.00    -0.270 OA
ATOM      6  N   UNL d   1      28.592 -16.400   0.605  0.00  0.00    -0.324 N 
ATOM      7  C   UNL d   1      28.417 -15.026   0.613  0.00  0.00     0.044 A 
ATOM      8  C   UNL d   1      29.294 -14.076   1.082  0.00  0.00     0.032 A 
ATOM      9  C   UNL d   1      28.949 -12.733   0.889  0.00  0.00     0.026 A 
ATOM     10  C   UNL d   1      27.741 -12.378   0.261  0.00  0.00     0.034 A 
ATOM     11 CL   UNL d   1      27.405 -10.721  -0.065  0.00  0.00    -0.084 Cl
ATOM     12  C   UNL d   1      26.844 -13.353  -0.169  0.00  0.00     0.036 A 
ATOM     13  C   UNL d   1      27.215 -14.684  -0.007  0.00  0.00     0.019 A 
ATOM     14  C   UNL d   1      26.676 -16.011  -2.133  0.00  0.00     0.147 C 
ATOM     15  C   UNL d   1      27.253 -14.825  -2.851  0.00  0.00     0.235 C 
ATOM     16  O   UNL d   1      28.217 -14.192  -2.507  0.00  0.00    -0.272 OA
ATOM     17  N   UNL d   1      26.477 -14.540  -3.940  0.00  0.00    -0.283 N 
ATOM     18  C   UNL d   1      25.189 -14.821  -3.514  0.00  0.00     0.234 C 
ATOM     19  O   UNL d   1      24.133 -14.255  -3.746  0.00  0.00    -0.272 OA
ATOM     20  C   UNL d   1      25.259 -16.054  -2.632  0.00  0.00     0.128 C 
ATOM     21  H   UNL d   1      25.127 -16.885   0.451  0.00  0.00     0.318 HD
ATOM     22  H   UNL d   1      29.370 -16.910   0.996  0.00  0.00     0.169 HD
ENDROOT
BRANCH   1  23
ATOM     23  C   UNL d   1      23.701 -17.645  -1.377  0.00  0.00     0.045 C 
BRANCH  23  24
ATOM     24  C   UNL d   1      22.775 -17.883  -0.174  0.00  0.00     0.105 C 
BRANCH  24  25
ATOM     25  C   UNL d   1      21.440 -18.458  -0.544  0.00  0.00     0.215 C 
ATOM     26  N   UNL d   1      21.216 -19.696  -0.013  0.00  0.00    -0.370 N 
ATOM     27  H   UNL d   1      20.335 -20.143  -0.227  0.00  0.00     0.159 HD
ATOM     28  H   UNL d   1      21.864 -20.165   0.605  0.00  0.00     0.159 HD
ATOM     29  O   UNL d   1      20.623 -17.910  -1.270  0.00  0.00    -0.274 OA
ENDBRANCH  24  25
ENDBRANCH  23  24
ENDBRANCH   1  23
BRANCH  17  30
ATOM     30  C   UNL d   1      27.069 -13.491  -4.823  0.00  0.00     0.175 C 
BRANCH  30  31
ATOM     31  C   UNL d   1      26.719 -12.005  -4.706  0.00  0.00    -0.018 C 
ATOM     32  C   UNL d   1      26.215 -11.486  -3.465  0.00  0.00     0.010 C 
ATOM     33  C   UNL d   1      25.530 -10.255  -3.408  0.00  0.00     0.001 C 
ATOM     34  C   UNL d   1      25.430  -9.470  -4.545  0.00  0.00     0.002 C 
ATOM     35  C   UNL d   1      26.070  -9.881  -5.699  0.00  0.00     0.024 C 
ATOM     36  C   UNL d   1      26.670 -11.135  -5.794  0.00  0.00     0.042 C 
ATOM     37 CL   UNL d   1      27.284 -11.449  -7.358  0.00  0.00    -0.084 Cl
ENDBRANCH  30  31
ENDBRANCH  17  30
TORSDOF 5
ENDMDL
MODEL 3
REMARK VINA RESULT:    -9.589      1.315      1.930
REMARK INTER + INTRA:         -12.207
REMARK INTER:                 -11.081
REMARK INTRA:                  -1.126
REMARK CONF_INDEPENDENT:        1.492
REMARK UNBOUND:                -1.126
REMARK  5 active torsions:
REMARK  status: ('A' for Active; 'I' for Inactive)
REMARK       I    between atoms: N_1  and  C_2 
REMARK    1  A    between atoms: C_2  and  C_4 
REMARK    2  A    between atoms: C_4  and  C_5 
REMARK    3  A    between atoms: C_5  and  C_6 
REMARK    4  A    between atoms: N_22  and  C_23 
REMARK    5  A    between atoms: C_23  and  C_24 
ROOT
ATOM      1  C   UNL d   1      24.506 -16.166  -1.753  0.00  0.00     0.237 C 
ATOM      2  N   UNL d   1      25.092 -15.785  -0.454  0.00  0.00     0.113 N 
ATOM      3  C   UNL d   1      26.545 -15.681  -0.595  0.00  0.00     0.279 C 
ATOM      4  C   UNL d   1      27.301 -16.659   0.367  0.00  0.00     0.267 C 
ATOM      5  O   UNL d   1      27.184 -17.871   0.448  0.00  0.00    -0.270 OA
ATOM      6  N   UNL d   1      28.208 -15.905   1.091  0.00  0.00    -0.324 N 
ATOM      7  C   UNL d   1      28.087 -14.558   0.794  0.00  0.00     0.044 A 
ATOM      8  C   UNL d   1      28.883 -13.530   1.245  0.00  0.00     0.032 A 
ATOM      9  C   UNL d   1      28.637 -12.254   0.725  0.00  0.00     0.026 A 
ATOM     10  C   UNL d   1      27.602 -12.035  -0.202  0.00  0.00     0.034 A 
ATOM     11 CL   UNL d   1      27.406 -10.477  -0.908  0.00  0.00    -0.084 Cl
ATOM     12  C   UNL d   1      26.778 -13.079  -0.614  0.00  0.00     0.036 A 
ATOM     13  C   UNL d   1      27.055 -14.350  -0.122  0.00  0.00     0.019 A 
ATOM     14  C   UNL d   1      26.922 -16.075  -2.013  0.00  0.00     0.147 C 
ATOM     15  C   UNL d   1      27.681 -15.052  -2.810  0.00  0.00     0.235 C 
ATOM     16  O   UNL d   1      28.576 -14.360  -2.398  0.00  0.00    -0.272 OA
ATOM     17  N   UNL d   1      27.161 -14.992  -4.073  0.00  0.00    -0.283 N 
ATOM     18  C   UNL d   1      25.803 -15.188  -3.884  0.00  0.00     0.234 C 
ATOM     19  O   UNL d   1      24.841 -14.683  -4.440  0.00  0.00    -0.272 OA
ATOM     20  C   UNL d   1      25.640 -16.221  -2.784  0.00  0.00     0.128 C 
ATOM     21  H   UNL d   1      24.835 -16.424   0.302  0.00  0.00     0.318 HD
ATOM     22  H   UNL d   1      28.866 -16.325   1.730  0.00  0.00     0.169 HD
ENDROOT
BRANCH   1  23
ATOM     23  C   UNL d   1      23.794 -17.537  -1.603  0.00  0.00     0.045 C 
BRANCH  23  24
ATOM     24  C   UNL d   1      22.902 -17.650  -0.358  0.00  0.00     0.105 C 
BRANCH  24  25
ATOM     25  C   UNL d   1      21.615 -18.382  -0.600  0.00  0.00     0.215 C 
ATOM     26  N   UNL d   1      21.629 -19.671  -0.150  0.00  0.00    -0.370 N 
ATOM     27  H   UNL d   1      20.794 -20.223  -0.287  0.00  0.00     0.159 HD
ATOM     28  H   UNL d   1      22.412 -20.084   0.339  0.00  0.00     0.159 HD
ATOM     29  O   UNL d   1      20.641 -17.907  -1.168  0.00  0.00    -0.274 OA
ENDBRANCH  24  25
ENDBRANCH  23  24
ENDBRANCH   1  23
BRANCH  17  30
ATOM     30  C   UNL d   1      27.965 -14.137  -4.997  0.00  0.00     0.175 C 
BRANCH  30  31
ATOM     31  C   UNL d   1      27.375 -12.947  -5.759  0.00  0.00    -0.018 C 
ATOM     32  C   UNL d   1      27.780 -12.697  -7.115  0.00  0.00     0.010 C 
ATOM     33  C   UNL d   1      27.579 -11.439  -7.721  0.00  0.00     0.001 C 
ATOM     34  C   UNL d   1      26.882 -10.453  -7.043  0.00  0.00     0.002 C 
ATOM     35  C   UNL d   1      26.334 -10.749  -5.809  0.00  0.00     0.024 C 
ATOM     36  C   UNL d   1      26.603 -11.954  -5.162  0.00  0.00     0.042 C 
ATOM     37 CL   UNL d   1      25.906 -12.026  -3.602  0.00  0.00    -0.084 Cl
ENDBRANCH  30  31
ENDBRANCH  17  30
TORSDOF 5
ENDMDL
MODEL 4
REMARK VINA RESULT:    -9.588      2.203      6.192
REMARK INTER + INTRA:         -11.954
REMARK INTER:                 -11.080
REMARK INTRA:                  -0.874
REMARK CONF_INDEPENDENT:        1.492
REMARK UNBOUND:                -0.874
REMARK  5 active torsions:
REMARK  status: ('A' for Active; 'I' for Inactive)
REMARK       I    between atoms: N_1  and  C_2 
REMARK    1  A    between atoms: C_2  and  C_4 
REMARK    2  A    between atoms: C_4  and  C_5 
REMARK    3  A    between atoms: C_5  and  C_6 
REMARK    4  A    between atoms: N_22  and  C_23 
REMARK    5  A    between atoms: C_23  and  C_24 
ROOT
ATOM      1  C   UNL d   1      24.975 -17.129  -1.235  0.00  0.00     0.237 C 
ATOM      2  N   UNL d   1      25.274 -16.791  -2.638  0.00  0.00     0.113 N 
ATOM      3  C   UNL d   1      25.954 -15.495  -2.685  0.00  0.00     0.279 C 
ATOM      4  C   UNL d   1      25.164 -14.446  -3.540  0.00  0.00     0.267 C 
ATOM      5  O   UNL d   1      24.011 -14.075  -3.393  0.00  0.00    -0.270 OA
ATOM      6  N   UNL d   1      26.040 -13.942  -4.484  0.00  0.00    -0.324 N 
ATOM      7  C   UNL d   1      27.269 -14.579  -4.418  0.00  0.00     0.044 A 
ATOM      8  C   UNL d   1      28.405 -14.275  -5.130  0.00  0.00     0.032 A 
ATOM      9  C   UNL d   1      29.567 -14.990  -4.819  0.00  0.00     0.026 A 
ATOM     10  C   UNL d   1      29.559 -15.993  -3.833  0.00  0.00     0.034 A 
ATOM     11 CL   UNL d   1      31.033 -16.769  -3.395  0.00  0.00    -0.084 Cl
ATOM     12  C   UNL d   1      28.389 -16.318  -3.152  0.00  0.00     0.036 A 
ATOM     13  C   UNL d   1      27.249 -15.575  -3.441  0.00  0.00     0.019 A 
ATOM     14  C   UNL d   1      26.037 -14.943  -1.273  0.00  0.00     0.147 C 
ATOM     15  C   UNL d   1      27.414 -14.626  -0.761  0.00  0.00     0.235 C 
ATOM     16  O   UNL d   1      28.295 -14.097  -1.387  0.00  0.00    -0.272 OA
ATOM     17  N   UNL d   1      27.530 -15.082   0.523  0.00  0.00    -0.283 N 
ATOM     18  C   UNL d   1      26.794 -16.256   0.528  0.00  0.00     0.234 C 
ATOM     19  O   UNL d   1      26.995 -17.318   1.093  0.00  0.00    -0.272 OA
ATOM     20  C   UNL d   1      25.573 -16.032  -0.347  0.00  0.00     0.128 C 
ATOM     21  H   UNL d   1      24.444 -16.798  -3.236  0.00  0.00     0.318 HD
ATOM     22  H   UNL d   1      25.783 -13.194  -5.111  0.00  0.00     0.169 HD
ENDROOT
BRANCH   1  23
ATOM     23  C   UNL d   1      23.437 -17.241  -1.058  0.00  0.00     0.045 C 
BRANCH  23  24
ATOM     24  C   UNL d   1      22.946 -18.650  -0.692  0.00  0.00     0.105 C 
BRANCH  24  25
ATOM     25  C   UNL d   1      21.455 -18.756  -0.561  0.00  0.00     0.215 C 
ATOM     26  N   UNL d   1      21.052 -19.793   0.231  0.00  0.00    -0.370 N 
ATOM     27  H   UNL d   1      20.058 -19.924   0.357  0.00  0.00     0.159 HD
ATOM     28  H   UNL d   1      21.691 -20.405   0.719  0.00  0.00     0.159 HD
ATOM     29  O   UNL d   1      20.654 -18.020  -1.119  0.00  0.00    -0.274 OA
ENDBRANCH  24  25
ENDBRANCH  23  24
ENDBRANCH   1  23
BRANCH  17  30
ATOM     30  C   UNL d   1      28.799 -14.653   1.184  0.00  0.00     0.175 C 
BRANCH  30  31
ATOM     31  C   UNL d   1      28.842 -14.006   2.571  0.00  0.00    -0.018 C 
ATOM     32  C   UNL d   1      29.808 -14.450   3.536  0.00  0.00     0.010 C 
ATOM     33  C   UNL d   1      29.652 -14.179   4.911  0.00  0.00     0.001 C 
ATOM     34  C   UNL d   1      28.606 -13.376   5.339  0.00  0.00     0.002 C 
ATOM     35  C   UNL d   1      27.778 -12.798   4.395  0.00  0.00     0.024 C 
ATOM     36  C   UNL d   1      27.866 -13.131   3.045  0.00  0.00     0.042 C 
ATOM     37 CL   UNL d   1      26.656 -12.373   2.104  0.00  0.00    -0.084 Cl
ENDBRANCH  30  31
ENDBRANCH  17  30
TORSDOF 5
ENDMDL
MODEL 5
REMARK VINA RESULT:    -8.586      7.064      9.403
REMARK INTER + INTRA:         -11.621
REMARK INTER:                 -10.078
REMARK INTRA:                  -1.543
REMARK CONF_INDEPENDENT:        1.492
REMARK UNBOUND:                -1.543
REMARK  5 active torsions:
REMARK  status: ('A' for Active; 'I' for Inactive)
REMARK       I    between atoms: N_1  and  C_2 
REMARK    1  A    between atoms: C_2  and  C_4 
REMARK    2  A    between atoms: C_4  and  C_5 
REMARK    3  A    between atoms: C_5  and  C_6 
REMARK    4  A    between atoms: N_22  and  C_23 
REMARK    5  A    between atoms: C_23  and  C_24 
ROOT
ATOM      1  C   UNL d   1      32.509 -20.890   2.112  0.00  0.00     0.237 C 
ATOM      2  N   UNL d   1      32.055 -22.282   1.938  0.00  0.00     0.113 N 
ATOM      3  C   UNL d   1      31.267 -22.379   0.707  0.00  0.00     0.279 C 
ATOM      4  C   UNL d   1      29.809 -22.885   0.980  0.00  0.00     0.267 C 
ATOM      5  O   UNL d   1      28.975 -22.399   1.726  0.00  0.00    -0.270 OA
ATOM      6  N   UNL d   1      29.591 -23.973   0.154  0.00  0.00    -0.324 N 
ATOM      7  C   UNL d   1      30.734 -24.299  -0.558  0.00  0.00     0.044 A 
ATOM      8  C   UNL d   1      30.861 -25.254  -1.539  0.00  0.00     0.032 A 
ATOM      9  C   UNL d   1      32.093 -25.336  -2.198  0.00  0.00     0.026 A 
ATOM     10  C   UNL d   1      33.160 -24.488  -1.850  0.00  0.00     0.034 A 
ATOM     11 CL   UNL d   1      34.619 -24.536  -2.761  0.00  0.00    -0.084 Cl
ATOM     12  C   UNL d   1      33.027 -23.556  -0.824  0.00  0.00     0.036 A 
ATOM     13  C   UNL d   1      31.787 -23.456  -0.202  0.00  0.00     0.019 A 
ATOM     14  C   UNL d   1      31.149 -20.992   0.100  0.00  0.00     0.147 C 
ATOM     15  C   UNL d   1      31.650 -20.835  -1.308  0.00  0.00     0.235 C 
ATOM     16  O   UNL d   1      31.482 -21.618  -2.207  0.00  0.00    -0.272 OA
ATOM     17  N   UNL d   1      32.376 -19.681  -1.400  0.00  0.00    -0.283 N 
ATOM     18  C   UNL d   1      33.024 -19.597  -0.178  0.00  0.00     0.234 C 
ATOM     19  O   UNL d   1      34.148 -19.214   0.102  0.00  0.00    -0.272 OA
ATOM     20  C   UNL d   1      32.058 -20.089   0.885  0.00  0.00     0.128 C 
ATOM     21  H   UNL d   1      31.533 -22.635   2.743  0.00  0.00     0.318 HD
ATOM     22  H   UNL d   1      28.694 -24.430   0.095  0.00  0.00     0.169 HD
ENDROOT
BRANCH   1  23
ATOM     23  C   UNL d   1      31.909 -20.323   3.426  0.00  0.00     0.045 C 
BRANCH  23  24
ATOM     24  C   UNL d   1      32.159 -21.200   4.662  0.00  0.00     0.105 C 
BRANCH  24  25
ATOM     25  C   UNL d   1      30.909 -21.574   5.402  0.00  0.00     0.215 C 
ATOM     26  N   UNL d   1      29.884 -21.949   4.581  0.00  0.00    -0.370 N 
ATOM     27  H   UNL d   1      29.009 -22.210   5.015  0.00  0.00     0.159 HD
ATOM     28  H   UNL d   1      29.967 -22.012   3.575  0.00  0.00     0.159 HD
ATOM     29  O   UNL d   1      30.780 -21.532   6.617  0.00  0.00    -0.274 OA
ENDBRANCH  24  25
ENDBRANCH  23  24
ENDBRANCH   1  23
BRANCH  17  30
ATOM     30  C   UNL d   1      32.763 -19.342  -2.802  0.00  0.00     0.175 C 
BRANCH  30  31
ATOM     31  C   UNL d   1      31.777 -19.376  -3.973  0.00  0.00    -0.018 C 
ATOM     32  C   UNL d   1      31.710 -20.537  -4.816  0.00  0.00     0.010 C 
ATOM     33  C   UNL d   1      31.124 -20.481  -6.098  0.00  0.00     0.001 C 
ATOM     34  C   UNL d   1      30.500 -19.318  -6.518  0.00  0.00     0.002 C 
ATOM     35  C   UNL d   1      30.404 -18.256  -5.639  0.00  0.00     0.024 C 
ATOM     36  C   UNL d   1      31.057 -18.266  -4.408  0.00  0.00     0.042 C 
ATOM     37 CL   UNL d   1      30.880 -16.790  -3.562  0.00  0.00    -0.084 Cl
ENDBRANCH  30  31
ENDBRANCH  17  30
TORSDOF 5
ENDMDL
MODEL 6
REMARK VINA RESULT:    -8.433      3.051      6.928
REMARK INTER + INTRA:         -11.393
REMARK INTER:                  -9.924
REMARK INTRA:                  -1.468
REMARK CONF_INDEPENDENT:        1.492
REMARK UNBOUND:                -1.468
REMARK  5 active torsions:
REMARK  status: ('A' for Active; 'I' for Inactive)
REMARK       I    between atoms: N_1  and  C_2 
REMARK    1  A    between atoms: C_2  and  C_4 
REMARK    2  A    between atoms: C_4  and  C_5 
REMARK    3  A    between atoms: C_5  and  C_6 
REMARK    4  A    between atoms: N_22  and  C_23 
REMARK    5  A    between atoms: C_23  and  C_24 
ROOT
ATOM      1  C   UNL d   1      29.632 -13.839   0.615  0.00  0.00     0.237 C 
ATOM      2  N   UNL d   1      30.365 -13.720  -0.659  0.00  0.00     0.113 N 
ATOM      3  C   UNL d   1      30.487 -15.045  -1.268  0.00  0.00     0.279 C 
ATOM      4  C   UNL d   1      31.983 -15.459  -1.482  0.00  0.00     0.267 C 
ATOM      5  O   UNL d   1      32.868 -15.530  -0.644  0.00  0.00    -0.270 OA
ATOM      6  N   UNL d   1      32.127 -15.811  -2.812  0.00  0.00    -0.324 N 
ATOM      7  C   UNL d   1      30.952 -15.601  -3.515  0.00  0.00     0.044 A 
ATOM      8  C   UNL d   1      30.695 -15.927  -4.826  0.00  0.00     0.032 A 
ATOM      9  C   UNL d   1      29.393 -15.717  -5.295  0.00  0.00     0.026 A 
ATOM     10  C   UNL d   1      28.400 -15.173  -4.461  0.00  0.00     0.034 A 
ATOM     11 CL   UNL d   1      26.783 -15.040  -5.036  0.00  0.00    -0.084 Cl
ATOM     12  C   UNL d   1      28.689 -14.808  -3.149  0.00  0.00     0.036 A 
ATOM     13  C   UNL d   1      29.975 -15.057  -2.680  0.00  0.00     0.019 A 
ATOM     14  C   UNL d   1      29.874 -16.067  -0.326  0.00  0.00     0.147 C 
ATOM     15  C   UNL d   1      28.764 -16.909  -0.888  0.00  0.00     0.235 C 
ATOM     16  O   UNL d   1      28.736 -17.398  -1.988  0.00  0.00    -0.272 OA
ATOM     17  N   UNL d   1      27.757 -16.994   0.033  0.00  0.00    -0.283 N 
ATOM     18  C   UNL d   1      27.751 -15.747   0.637  0.00  0.00     0.234 C 
ATOM     19  O   UNL d   1      26.824 -15.056   1.026  0.00  0.00    -0.272 OA
ATOM     20  C   UNL d   1      29.195 -15.300   0.773  0.00  0.00     0.128 C 
ATOM     21  H   UNL d   1      31.279 -13.272  -0.553  0.00  0.00     0.318 HD
ATOM     22  H   UNL d   1      32.990 -16.183  -3.179  0.00  0.00     0.169 HD
ENDROOT
BRANCH   1  23
ATOM     23  C   UNL d   1      30.556 -13.383   1.775  0.00  0.00     0.045 C 
BRANCH  23  24
ATOM     24  C   UNL d   1      29.824 -13.132   3.102  0.00  0.00     0.105 C 
BRANCH  24  25
ATOM     25  C   UNL d   1      29.382 -14.387   3.795  0.00  0.00     0.215 C 
ATOM     26  N   UNL d   1      30.409 -15.084   4.365  0.00  0.00    -0.370 N 
ATOM     27  H   UNL d   1      30.180 -15.943   4.845  0.00  0.00     0.159 HD
ATOM     28  H   UNL d   1      31.369 -14.768   4.361  0.00  0.00     0.159 HD
ATOM     29  O   UNL d   1      28.227 -14.788   3.838  0.00  0.00    -0.274 OA
ENDBRANCH  24  25
ENDBRANCH  23  24
ENDBRANCH   1  23
BRANCH  17  30
ATOM     30  C   UNL d   1      26.686 -17.960  -0.358  0.00  0.00     0.175 C 
BRANCH  30  31
ATOM     31  C   UNL d   1      25.197 -17.606  -0.347  0.00  0.00    -0.018 C 
ATOM     32  C   UNL d   1      24.249 -18.520   0.226  0.00  0.00     0.010 C 
ATOM     33  C   UNL d   1      22.873 -18.436  -0.072  0.00  0.00     0.001 C 
ATOM     34  C   UNL d   1      22.400 -17.388  -0.845  0.00  0.00     0.002 C 
ATOM     35  C   UNL d   1      23.284 -16.404  -1.249  0.00  0.00     0.024 C 
ATOM     36  C   UNL d   1      24.656 -16.524  -1.040  0.00  0.00     0.042 C 
ATOM     37 CL   UNL d   1      25.539 -15.237  -1.737  0.00  0.00    -0.084 Cl
ENDBRANCH  30  31
ENDBRANCH  17  30
TORSDOF 5
ENDMDL
MODEL 7
REMARK VINA RESULT:    -8.317      3.201      7.622
REMARK INTER + INTRA:         -11.757
REMARK INTER:                  -9.808
REMARK INTRA:                  -1.949
REMARK CONF_INDEPENDENT:        1.492
REMARK UNBOUND:                -1.949
REMARK  5 active torsions:
REMARK  status: ('A' for Active; 'I' for Inactive)
REMARK       I    between atoms: N_1  and  C_2 
REMARK    1  A    between atoms: C_2  and  C_4 
REMARK    2  A    between atoms: C_4  and  C_5 
REMARK    3  A    between atoms: C_5  and  C_6 
REMARK    4  A    between atoms: N_22  and  C_23 
REMARK    5  A    between atoms: C_23  and  C_24 
ROOT
ATOM      1  C   UNL d   1      28.529 -13.968  -5.543  0.00  0.00     0.237 C 
ATOM      2  N   UNL d   1      28.459 -12.497  -5.483  0.00  0.00     0.113 N 
ATOM      3  C   UNL d   1      27.094 -12.095  -5.138  0.00  0.00     0.279 C 
ATOM      4  C   UNL d   1      26.451 -11.184  -6.239  0.00  0.00     0.267 C 
ATOM      5  O   UNL d   1      26.305 -11.432  -7.425  0.00  0.00    -0.270 OA
ATOM      6  N   UNL d   1      25.999 -10.037  -5.612  0.00  0.00    -0.324 N 
ATOM      7  C   UNL d   1      26.335 -10.037  -4.268  0.00  0.00     0.044 A 
ATOM      8  C   UNL d   1      25.968  -9.113  -3.317  0.00  0.00     0.032 A 
ATOM      9  C   UNL d   1      26.336  -9.375  -1.993  0.00  0.00     0.026 A 
ATOM     10  C   UNL d   1      27.072 -10.526  -1.659  0.00  0.00     0.034 A 
ATOM     11 CL   UNL d   1      27.405 -10.875  -0.006  0.00  0.00    -0.084 Cl
ATOM     12  C   UNL d   1      27.473 -11.429  -2.640  0.00  0.00     0.036 A 
ATOM     13  C   UNL d   1      27.068 -11.180  -3.947  0.00  0.00     0.019 A 
ATOM     14  C   UNL d   1      26.235 -13.344  -5.038  0.00  0.00     0.147 C 
ATOM     15  C   UNL d   1      25.531 -13.567  -3.730  0.00  0.00     0.235 C 
ATOM     16  O   UNL d   1      24.983 -12.722  -3.070  0.00  0.00    -0.272 OA
ATOM     17  N   UNL d   1      25.653 -14.881  -3.374  0.00  0.00    -0.283 N 
ATOM     18  C   UNL d   1      26.923 -15.227  -3.807  0.00  0.00     0.234 C 
ATOM     19  O   UNL d   1      27.767 -15.950  -3.302  0.00  0.00    -0.272 OA
ATOM     20  C   UNL d   1      27.161 -14.524  -5.131  0.00  0.00     0.128 C 
ATOM     21  H   UNL d   1      28.773 -12.046  -6.346  0.00  0.00     0.318 HD
ATOM     22  H   UNL d   1      25.481  -9.325  -6.104  0.00  0.00     0.169 HD
ENDROOT
BRANCH   1  23
ATOM     23  C   UNL d   1      28.917 -14.397  -6.983  0.00  0.00     0.045 C 
BRANCH  23  24
ATOM     24  C   UNL d   1      30.200 -13.738  -7.513  0.00  0.00     0.105 C 
BRANCH  24  25
ATOM     25  C   UNL d   1      29.958 -12.468  -8.274  0.00  0.00     0.215 C 
ATOM     26  N   UNL d   1      30.229 -12.574  -9.608  0.00  0.00    -0.370 N 
ATOM     27  H   UNL d   1      30.092 -11.752 -10.179  0.00  0.00     0.159 HD
ATOM     28  H   UNL d   1      30.523 -13.434 -10.053  0.00  0.00     0.159 HD
ATOM     29  O   UNL d   1      29.582 -11.418  -7.773  0.00  0.00    -0.274 OA
ENDBRANCH  24  25
ENDBRANCH  23  24
ENDBRANCH   1  23
BRANCH  17  30
ATOM     30  C   UNL d   1      24.833 -15.243  -2.179  0.00  0.00     0.175 C 
BRANCH  30  31
ATOM     31  C   UNL d   1      25.351 -16.138  -1.050  0.00  0.00    -0.018 C 
ATOM     32  C   UNL d   1      26.694 -15.975  -0.569  0.00  0.00     0.010 C 
ATOM     33  C   UNL d   1      27.338 -16.987   0.172  0.00  0.00     0.001 C 
ATOM     34  C   UNL d   1      26.633 -18.121   0.543  0.00  0.00     0.002 C 
ATOM     35  C   UNL d   1      25.287 -18.201   0.238  0.00  0.00     0.024 C 
ATOM     36  C   UNL d   1      24.665 -17.252  -0.571  0.00  0.00     0.042 C 
ATOM     37 CL   UNL d   1      23.032 -17.641  -0.896  0.00  0.00    -0.084 Cl
ENDBRANCH  30  31
ENDBRANCH  17  30
TORSDOF 5
ENDMDL
MODEL 8
REMARK VINA RESULT:    -8.282      3.309      7.267
REMARK INTER + INTRA:         -11.513
REMARK INTER:                  -9.774
REMARK INTRA:                  -1.740
REMARK CONF_INDEPENDENT:        1.492
REMARK UNBOUND:                -1.740
REMARK  5 active torsions:
REMARK  status: ('A' for Active; 'I' for Inactive)
REMARK       I    between atoms: N_1  and  C_2 
REMARK    1  A    between atoms: C_2  and  C_4 
REMARK    2  A    between atoms: C_4  and  C_5 
REMARK    3  A    between atoms: C_5  and  C_6 
REMARK    4  A    between atoms: N_22  and  C_23 
REMARK    5  A    between atoms: C_23  and  C_24 
ROOT
ATOM      1  C   UNL d   1      28.402 -14.039  -3.089  0.00  0.00     0.237 C 
ATOM      2  N   UNL d   1      28.182 -15.490  -2.960  0.00  0.00     0.113 N 
ATOM      3  C   UNL d   1      28.151 -15.846  -1.540  0.00  0.00     0.279 C 
ATOM      4  C   UNL d   1      29.260 -16.890  -1.170  0.00  0.00     0.267 C 
ATOM      5  O   UNL d   1      30.465 -16.794  -1.337  0.00  0.00    -0.270 OA
ATOM      6  N   UNL d   1      28.634 -17.949  -0.538  0.00  0.00    -0.324 N 
ATOM      7  C   UNL d   1      27.259 -17.779  -0.520  0.00  0.00     0.044 A 
ATOM      8  C   UNL d   1      26.328 -18.575   0.105  0.00  0.00     0.032 A 
ATOM      9  C   UNL d   1      24.996 -18.147   0.077  0.00  0.00     0.026 A 
ATOM     10  C   UNL d   1      24.628 -16.962  -0.585  0.00  0.00     0.034 A 
ATOM     11 CL   UNL d   1      23.001 -16.406  -0.498  0.00  0.00    -0.084 Cl
ATOM     12  C   UNL d   1      25.577 -16.191  -1.251  0.00  0.00     0.036 A 
ATOM     13  C   UNL d   1      26.904 -16.604  -1.184  0.00  0.00     0.019 A 
ATOM     14  C   UNL d   1      28.429 -14.596  -0.723  0.00  0.00     0.147 C 
ATOM     15  C   UNL d   1      27.382 -14.209   0.282  0.00  0.00     0.235 C 
ATOM     16  O   UNL d   1      26.786 -14.965   1.006  0.00  0.00    -0.272 OA
ATOM     17  N   UNL d   1      27.170 -12.861   0.213  0.00  0.00    -0.283 N 
ATOM     18  C   UNL d   1      27.303 -12.571  -1.135  0.00  0.00     0.234 C 
ATOM     19  O   UNL d   1      26.691 -11.789  -1.845  0.00  0.00    -0.272 OA
ATOM     20  C   UNL d   1      28.425 -13.436  -1.680  0.00  0.00     0.128 C 
ATOM     21  H   UNL d   1      28.874 -16.046  -3.468  0.00  0.00     0.318 HD
ATOM     22  H   UNL d   1      29.150 -18.718  -0.139  0.00  0.00     0.169 HD
ENDROOT
BRANCH   1  23
ATOM     23  C   UNL d   1      29.736 -13.795  -3.844  0.00  0.00     0.045 C 
BRANCH  23  24
ATOM     24  C   UNL d   1      29.569 -13.516  -5.345  0.00  0.00     0.105 C 
BRANCH  24  25
ATOM     25  C   UNL d   1      28.902 -14.631  -6.097  0.00  0.00     0.215 C 
ATOM     26  N   UNL d   1      28.964 -14.485  -7.453  0.00  0.00    -0.370 N 
ATOM     27  H   UNL d   1      28.530 -15.200  -8.020  0.00  0.00     0.159 HD
ATOM     28  H   UNL d   1      29.449 -13.725  -7.912  0.00  0.00     0.159 HD
ATOM     29  O   UNL d   1      28.327 -15.575  -5.575  0.00  0.00    -0.274 OA
ENDBRANCH  24  25
ENDBRANCH  23  24
ENDBRANCH   1  23
BRANCH  17  30
ATOM     30  C   UNL d   1      26.280 -12.351   1.299  0.00  0.00     0.175 C 
BRANCH  30  31
ATOM     31  C   UNL d   1      26.807 -11.628   2.541  0.00  0.00    -0.018 C 
ATOM     32  C   UNL d   1      26.707 -10.198   2.631  0.00  0.00     0.010 C 
ATOM     33  C   UNL d   1      27.496  -9.461   3.539  0.00  0.00     0.001 C 
ATOM     34  C   UNL d   1      28.308 -10.127   4.442  0.00  0.00     0.002 C 
ATOM     35  C   UNL d   1      28.271 -11.509   4.480  0.00  0.00     0.024 C 
ATOM     36  C   UNL d   1      27.568 -12.247   3.530  0.00  0.00     0.042 C 
ATOM     37 CL   UNL d   1      27.779 -13.933   3.726  0.00  0.00    -0.084 Cl
ENDBRANCH  30  31
ENDBRANCH  17  30
TORSDOF 5
ENDMDL
MODEL 9
REMARK VINA RESULT:    -8.004      3.303      6.762
REMARK INTER + INTRA:         -11.675
REMARK INTER:                  -9.495
REMARK INTRA:                  -2.180
REMARK CONF_INDEPENDENT:        1.492
REMARK UNBOUND:                -2.180
REMARK  5 active torsions:
REMARK  status: ('A' for Active; 'I' for Inactive)
REMARK       I    between atoms: N_1  and  C_2 
REMARK    1  A    between atoms: C_2  and  C_4 
REMARK    2  A    between atoms: C_4  and  C_5 
REMARK    3  A    between atoms: C_5  and  C_6 
REMARK    4  A    between atoms: N_22  and  C_23 
REMARK    5  A    between atoms: C_23  and  C_24 
ROOT
ATOM      1  C   UNL d   1      28.349 -12.924  -5.232  0.00  0.00     0.237 C 
ATOM      2  N   UNL d   1      28.624 -11.959  -4.153  0.00  0.00     0.113 N 
ATOM      3  C   UNL d   1      27.474 -11.909  -3.248  0.00  0.00     0.279 C 
ATOM      4  C   UNL d   1      26.860 -10.471  -3.156  0.00  0.00     0.267 C 
ATOM      5  O   UNL d   1      26.442  -9.774  -4.066  0.00  0.00    -0.270 OA
ATOM      6  N   UNL d   1      26.804 -10.133  -1.815  0.00  0.00    -0.324 N 
ATOM      7  C   UNL d   1      27.375 -11.118  -1.026  0.00  0.00     0.044 A 
ATOM      8  C   UNL d   1      27.411 -11.170   0.347  0.00  0.00     0.032 A 
ATOM      9  C   UNL d   1      27.952 -12.321   0.932  0.00  0.00     0.026 A 
ATOM     10  C   UNL d   1      28.458 -13.367   0.139  0.00  0.00     0.034 A 
ATOM     11 CL   UNL d   1      29.006 -14.816   0.890  0.00  0.00    -0.084 Cl
ATOM     12  C   UNL d   1      28.454 -13.279  -1.250  0.00  0.00     0.036 A 
ATOM     13  C   UNL d   1      27.879 -12.148  -1.821  0.00  0.00     0.019 A 
ATOM     14  C   UNL d   1      26.390 -12.820  -3.796  0.00  0.00     0.147 C 
ATOM     15  C   UNL d   1      25.912 -13.912  -2.882  0.00  0.00     0.235 C 
ATOM     16  O   UNL d   1      25.702 -13.803  -1.702  0.00  0.00    -0.272 OA
ATOM     17  N   UNL d   1      25.798 -15.074  -3.593  0.00  0.00    -0.283 N 
ATOM     18  C   UNL d   1      26.854 -15.021  -4.490  0.00  0.00     0.234 C 
ATOM     19  O   UNL d   1      27.591 -15.900  -4.904  0.00  0.00    -0.272 OA
ATOM     20  C   UNL d   1      26.992 -13.579  -4.945  0.00  0.00     0.128 C 
ATOM     21  H   UNL d   1      28.865 -11.028  -4.501  0.00  0.00     0.318 HD
ATOM     22  H   UNL d   1      26.377  -9.277  -1.495  0.00  0.00     0.169 HD
ENDROOT
BRANCH   1  23
ATOM     23  C   UNL d   1      28.354 -12.177  -6.592  0.00  0.00     0.045 C 
BRANCH  23  24
ATOM     24  C   UNL d   1      27.536 -10.877  -6.599  0.00  0.00     0.105 C 
BRANCH  24  25
ATOM     25  C   UNL d   1      26.200 -11.006  -7.270  0.00  0.00     0.215 C 
ATOM     26  N   UNL d   1      25.155 -11.075  -6.393  0.00  0.00    -0.370 N 
ATOM     27  H   UNL d   1      24.226 -11.168  -6.780  0.00  0.00     0.159 HD
ATOM     28  H   UNL d   1      25.261 -11.002  -5.390  0.00  0.00     0.159 HD
ATOM     29  O   UNL d   1      26.033 -11.075  -8.480  0.00  0.00    -0.274 OA
ENDBRANCH  24  25
ENDBRANCH  23  24
ENDBRANCH   1  23
BRANCH  17  30
ATOM     30  C   UNL d   1      25.155 -16.176  -2.817  0.00  0.00     0.175 C 
BRANCH  30  31
ATOM     31  C   UNL d   1      25.725 -16.714  -1.501  0.00  0.00    -0.018 C 
ATOM     32  C   UNL d   1      27.144 -16.700  -1.279  0.00  0.00     0.010 C 
ATOM     33  C   UNL d   1      27.741 -17.508  -0.290  0.00  0.00     0.001 C 
ATOM     34  C   UNL d   1      26.944 -18.254   0.562  0.00  0.00     0.002 C 
ATOM     35  C   UNL d   1      25.569 -18.132   0.469  0.00  0.00     0.024 C 
ATOM     36  C   UNL d   1      24.969 -17.410  -0.560  0.00  0.00     0.042 C 
ATOM     37 CL   UNL d   1      23.263 -17.512  -0.520  0.00  0.00    -0.084 Cl
ENDBRANCH  30  31
ENDBRANCH  17  30
TORSDOF 5
ENDMDL
