MODEL 1
REMARK VINA RESULT:    -9.526      0.000      0.000
REMARK INTER + INTRA:         -13.709
REMARK INTER:                 -11.316
REMARK INTRA:                  -2.393
REMARK CONF_INDEPENDENT:        1.790
REMARK UNBOUND:                -2.393
REMARK  6 active torsions:
REMARK  status: ('A' for Active; 'I' for Inactive)
REMARK    1  A    between atoms: O_2  and  C_3 
REMARK    2  A    between atoms: C_6  and  N_7 
REMARK       I    between atoms: N_7  and  C_8 
REMARK    3  A    between atoms: C_12  and  N_13 
REMARK       I    between atoms: N_13  and  C_14 
REMARK    4  A    between atoms: C_14  and  C_16 
REMARK    5  A    between atoms: C_16  and  N_17 
REMARK    6  A    between atoms: C_21  and  C_23 
ROOT
ATOM      1  N   UNL d   1      25.705 -15.408  -1.840  0.00  0.00    -0.323 N 
ATOM      2  C   UNL d   1      24.871 -14.726  -2.700  0.00  0.00     0.240 C 
ATOM      3  O   UNL d   1      23.657 -14.787  -2.541  0.00  0.00    -0.271 OA
ATOM      4  H   UNL d   1      26.501 -14.910  -1.461  0.00  0.00     0.169 HD
ENDROOT
BRANCH   2   5
ATOM      5  C   UNL d   1      25.508 -13.932  -3.859  0.00  0.00     0.240 C 
BRANCH   5   6
ATOM      6  N   UNL d   1      26.903 -14.325  -4.181  0.00  0.00    -0.259 N 
ATOM      7  C   UNL d   1      28.007 -13.826  -3.560  0.00  0.00     0.326 C 
ATOM      8  O   UNL d   1      28.135 -13.529  -2.371  0.00  0.00    -0.247 OA
ATOM      9  N   UNL d   1      29.031 -13.739  -4.479  0.00  0.00    -0.321 N 
ATOM     10  C   UNL d   1      28.779 -14.567  -5.640  0.00  0.00     0.141 C 
ATOM     11  H   UNL d   1      29.902 -13.256  -4.295  0.00  0.00     0.165 HD
ATOM     12  C   UNL d   1      27.314 -14.905  -5.358  0.00  0.00     0.261 C 
ATOM     13  C   UNL d   1      28.746 -13.729  -6.905  0.00  0.00     0.055 C 
ATOM     14  O   UNL d   1      26.659 -15.574  -6.146  0.00  0.00    -0.270 OA
BRANCH  10  15
ATOM     15  C   UNL d   1      29.715 -15.785  -5.694  0.00  0.00    -0.004 A 
ATOM     16  C   UNL d   1      30.390 -16.037  -6.919  0.00  0.00     0.011 A 
ATOM     17  C   UNL d   1      31.132 -17.204  -7.130  0.00  0.00     0.001 A 
ATOM     18  C   UNL d   1      31.302 -18.113  -6.100  0.00  0.00     0.001 A 
ATOM     19  C   UNL d   1      30.710 -17.873  -4.874  0.00  0.00     0.020 A 
ATOM     20  C   UNL d   1      29.934 -16.728  -4.652  0.00  0.00     0.020 A 
ATOM     21 BR   UNL d   1      29.330 -16.700  -2.835  0.00  0.00    -0.050 Br
ENDBRANCH  10  15
ENDBRANCH   5   6
ENDBRANCH   2   5
BRANCH   1  22
ATOM     22  C   UNL d   1      25.235 -16.555  -1.124  0.00  0.00     0.070 C 
ATOM     23  C   UNL d   1      24.159 -17.238  -1.698  0.00  0.00     0.062 C 
ATOM     24  C   UNL d   1      23.469 -18.285  -1.085  0.00  0.00     0.037 C 
ATOM     25  C   UNL d   1      24.052 -18.841   0.051  0.00  0.00     0.032 C 
ATOM     26  C   UNL d   1      25.184 -18.229   0.617  0.00  0.00     0.041 C 
ATOM     27  C   UNL d   1      25.748 -17.057   0.073  0.00  0.00     0.095 C 
BRANCH  24  28
ATOM     28  N   UNL d   1      22.230 -18.786  -1.552  0.00  0.00    -0.327 N 
ATOM     29  C   UNL d   1      21.133 -19.283  -0.897  0.00  0.00     0.218 C 
ATOM     30  C   UNL d   1      21.009 -19.322   0.606  0.00  0.00     0.117 C 
ATOM     31  O   UNL d   1      20.195 -19.722  -1.573  0.00  0.00    -0.274 OA
ATOM     32  H   UNL d   1      22.139 -18.922  -2.557  0.00  0.00     0.169 HD
ENDBRANCH  24  28
BRANCH  27  33
ATOM     33  O   UNL d   1      26.839 -16.604   0.758  0.00  0.00    -0.354 OA
ATOM     34  C   UNL d   1      28.132 -16.900   0.249  0.00  0.00     0.210 C 
ENDBRANCH  27  33
ENDBRANCH   1  22
TORSDOF 6
ENDMDL
MODEL 2
REMARK VINA RESULT:    -9.016      3.285      5.008
REMARK INTER + INTRA:         -12.624
REMARK INTER:                 -10.806
REMARK INTRA:                  -1.818
REMARK CONF_INDEPENDENT:        1.790
REMARK UNBOUND:                -1.818
REMARK  6 active torsions:
REMARK  status: ('A' for Active; 'I' for Inactive)
REMARK    1  A    between atoms: O_2  and  C_3 
REMARK    2  A    between atoms: C_6  and  N_7 
REMARK       I    between atoms: N_7  and  C_8 
REMARK    3  A    between atoms: C_12  and  N_13 
REMARK       I    between atoms: N_13  and  C_14 
REMARK    4  A    between atoms: C_14  and  C_16 
REMARK    5  A    between atoms: C_16  and  N_17 
REMARK    6  A    between atoms: C_21  and  C_23 
ROOT
ATOM      1  N   UNL d   1      24.845 -15.475  -1.466  0.00  0.00    -0.323 N 
ATOM      2  C   UNL d   1      26.174 -15.452  -1.832  0.00  0.00     0.240 C 
ATOM      3  O   UNL d   1      26.759 -16.506  -2.053  0.00  0.00    -0.271 OA
ATOM      4  H   UNL d   1      24.215 -14.838  -1.938  0.00  0.00     0.169 HD
ENDROOT
BRANCH   2   5
ATOM      5  C   UNL d   1      26.885 -14.085  -1.918  0.00  0.00     0.240 C 
BRANCH   5   6
ATOM      6  N   UNL d   1      26.361 -13.185  -2.977  0.00  0.00    -0.259 N 
ATOM      7  C   UNL d   1      25.251 -13.436  -3.724  0.00  0.00     0.326 C 
ATOM      8  O   UNL d   1      24.204 -13.977  -3.362  0.00  0.00    -0.247 OA
ATOM      9  N   UNL d   1      25.448 -12.937  -4.993  0.00  0.00    -0.321 N 
ATOM     10  C   UNL d   1      26.520 -11.963  -5.023  0.00  0.00     0.141 C 
ATOM     11  H   UNL d   1      24.831 -13.136  -5.770  0.00  0.00     0.165 HD
ATOM     12  C   UNL d   1      27.087 -12.213  -3.625  0.00  0.00     0.261 C 
ATOM     13  C   UNL d   1      27.622 -12.400  -5.970  0.00  0.00     0.055 C 
ATOM     14  O   UNL d   1      28.079 -11.615  -3.230  0.00  0.00    -0.270 OA
BRANCH  10  15
ATOM     15  C   UNL d   1      25.996 -10.536  -5.253  0.00  0.00    -0.004 A 
ATOM     16  C   UNL d   1      25.458  -9.849  -4.130  0.00  0.00     0.011 A 
ATOM     17  C   UNL d   1      24.808  -8.618  -4.257  0.00  0.00     0.001 A 
ATOM     18  C   UNL d   1      24.750  -7.987  -5.488  0.00  0.00     0.001 A 
ATOM     19  C   UNL d   1      25.315  -8.597  -6.593  0.00  0.00     0.020 A 
ATOM     20  C   UNL d   1      25.941  -9.846  -6.495  0.00  0.00     0.020 A 
ATOM     21 BR   UNL d   1      26.655 -10.346  -8.200  0.00  0.00    -0.050 Br
ENDBRANCH  10  15
ENDBRANCH   5   6
ENDBRANCH   2   5
BRANCH   1  22
ATOM     22  C   UNL d   1      24.279 -16.635  -0.847  0.00  0.00     0.070 C 
ATOM     23  C   UNL d   1      22.996 -16.990  -1.269  0.00  0.00     0.062 C 
ATOM     24  C   UNL d   1      22.220 -17.994  -0.687  0.00  0.00     0.037 C 
ATOM     25  C   UNL d   1      22.868 -18.853   0.197  0.00  0.00     0.032 C 
ATOM     26  C   UNL d   1      24.189 -18.574   0.590  0.00  0.00     0.041 C 
ATOM     27  C   UNL d   1      24.882 -17.440   0.120  0.00  0.00     0.095 C 
BRANCH  24  28
ATOM     28  N   UNL d   1      20.839 -18.165  -0.943  0.00  0.00    -0.327 N 
ATOM     29  C   UNL d   1      19.938 -19.114  -0.534  0.00  0.00     0.218 C 
ATOM     30  C   UNL d   1      20.280 -20.226   0.426  0.00  0.00     0.117 C 
ATOM     31  O   UNL d   1      18.783 -19.056  -0.973  0.00  0.00    -0.274 OA
ATOM     32  H   UNL d   1      20.422 -17.556  -1.645  0.00  0.00     0.169 HD
ENDBRANCH  24  28
BRANCH  27  33
ATOM     33  O   UNL d   1      26.152 -17.331   0.611  0.00  0.00    -0.354 OA
ATOM     34  C   UNL d   1      27.104 -18.324   0.259  0.00  0.00     0.210 C 
ENDBRANCH  27  33
ENDBRANCH   1  22
TORSDOF 6
ENDMDL
MODEL 3
REMARK VINA RESULT:    -8.583      2.159      3.592
REMARK INTER + INTRA:         -12.560
REMARK INTER:                 -10.372
REMARK INTRA:                  -2.188
REMARK CONF_INDEPENDENT:        1.790
REMARK UNBOUND:                -2.188
REMARK  6 active torsions:
REMARK  status: ('A' for Active; 'I' for Inactive)
REMARK    1  A    between atoms: O_2  and  C_3 
REMARK    2  A    between atoms: C_6  and  N_7 
REMARK       I    between atoms: N_7  and  C_8 
REMARK    3  A    between atoms: C_12  and  N_13 
REMARK       I    between atoms: N_13  and  C_14 
REMARK    4  A    between atoms: C_14  and  C_16 
REMARK    5  A    between atoms: C_16  and  N_17 
REMARK    6  A    between atoms: C_21  and  C_23 
ROOT
ATOM      1  N   UNL d   1      25.379 -15.732  -2.109  0.00  0.00    -0.323 N 
ATOM      2  C   UNL d   1      26.737 -15.523  -2.216  0.00  0.00     0.240 C 
ATOM      3  O   UNL d   1      27.512 -16.440  -1.965  0.00  0.00    -0.271 OA
ATOM      4  H   UNL d   1      24.792 -15.415  -2.871  0.00  0.00     0.169 HD
ENDROOT
BRANCH   2   5
ATOM      5  C   UNL d   1      27.231 -14.118  -2.620  0.00  0.00     0.240 C 
BRANCH   5   6
ATOM      6  N   UNL d   1      27.295 -13.887  -4.086  0.00  0.00    -0.259 N 
ATOM      7  C   UNL d   1      26.629 -14.628  -5.013  0.00  0.00     0.326 C 
ATOM      8  O   UNL d   1      25.501 -15.116  -4.920  0.00  0.00    -0.247 OA
ATOM      9  N   UNL d   1      27.406 -14.722  -6.147  0.00  0.00    -0.321 N 
ATOM     10  C   UNL d   1      28.432 -13.701  -6.179  0.00  0.00     0.141 C 
ATOM     11  H   UNL d   1      27.194 -15.348  -6.915  0.00  0.00     0.165 HD
ATOM     12  C   UNL d   1      28.292 -13.201  -4.740  0.00  0.00     0.261 C 
ATOM     13  C   UNL d   1      29.814 -14.324  -6.238  0.00  0.00     0.055 C 
ATOM     14  O   UNL d   1      29.034 -12.334  -4.299  0.00  0.00    -0.270 OA
BRANCH  10  15
ATOM     15  C   UNL d   1      28.154 -12.637  -7.253  0.00  0.00    -0.004 A 
ATOM     16  C   UNL d   1      28.907 -12.711  -8.457  0.00  0.00     0.011 A 
ATOM     17  C   UNL d   1      28.854 -11.705  -9.426  0.00  0.00     0.001 A 
ATOM     18  C   UNL d   1      27.984 -10.638  -9.273  0.00  0.00     0.001 A 
ATOM     19  C   UNL d   1      27.191 -10.563  -8.143  0.00  0.00     0.020 A 
ATOM     20  C   UNL d   1      27.253 -11.542  -7.143  0.00  0.00     0.020 A 
ATOM     21 BR   UNL d   1      25.980 -11.143  -5.769  0.00  0.00    -0.050 Br
ENDBRANCH  10  15
ENDBRANCH   5   6
ENDBRANCH   2   5
BRANCH   1  22
ATOM     22  C   UNL d   1      24.863 -16.757  -1.253  0.00  0.00     0.070 C 
ATOM     23  C   UNL d   1      23.746 -17.448  -1.729  0.00  0.00     0.062 C 
ATOM     24  C   UNL d   1      23.013 -18.375  -0.986  0.00  0.00     0.037 C 
ATOM     25  C   UNL d   1      23.585 -18.817   0.204  0.00  0.00     0.032 C 
ATOM     26  C   UNL d   1      24.755 -18.200   0.681  0.00  0.00     0.041 C 
ATOM     27  C   UNL d   1      25.368 -17.134  -0.008  0.00  0.00     0.095 C 
BRANCH  24  28
ATOM     28  N   UNL d   1      21.744 -18.865  -1.377  0.00  0.00    -0.327 N 
ATOM     29  C   UNL d   1      20.673 -19.326  -0.655  0.00  0.00     0.218 C 
ATOM     30  C   UNL d   1      20.626 -19.325   0.853  0.00  0.00     0.117 C 
ATOM     31  O   UNL d   1      19.695 -19.763  -1.271  0.00  0.00    -0.274 OA
ATOM     32  H   UNL d   1      21.599 -19.024  -2.372  0.00  0.00     0.169 HD
ENDBRANCH  24  28
BRANCH  27  33
ATOM     33  O   UNL d   1      26.491 -16.658   0.606  0.00  0.00    -0.354 OA
ATOM     34  C   UNL d   1      27.661 -17.464   0.603  0.00  0.00     0.210 C 
ENDBRANCH  27  33
ENDBRANCH   1  22
TORSDOF 6
ENDMDL
MODEL 4
REMARK VINA RESULT:    -8.503      2.647      8.537
REMARK INTER + INTRA:         -12.636
REMARK INTER:                 -10.292
REMARK INTRA:                  -2.344
REMARK CONF_INDEPENDENT:        1.790
REMARK UNBOUND:                -2.344
REMARK  6 active torsions:
REMARK  status: ('A' for Active; 'I' for Inactive)
REMARK    1  A    between atoms: O_2  and  C_3 
REMARK    2  A    between atoms: C_6  and  N_7 
REMARK       I    between atoms: N_7  and  C_8 
REMARK    3  A    between atoms: C_12  and  N_13 
REMARK       I    between atoms: N_13  and  C_14 
REMARK    4  A    between atoms: C_14  and  C_16 
REMARK    5  A    between atoms: C_16  and  N_17 
REMARK    6  A    between atoms: C_21  and  C_23 
ROOT
ATOM      1  N   UNL d   1      29.123 -15.846  -5.156  0.00  0.00    -0.323 N 
ATOM      2  C   UNL d   1      28.132 -15.065  -5.710  0.00  0.00     0.240 C 
ATOM      3  O   UNL d   1      27.843 -15.203  -6.893  0.00  0.00    -0.271 OA
ATOM      4  H   UNL d   1      28.931 -16.290  -4.266  0.00  0.00     0.169 HD
ENDROOT
BRANCH   2   5
ATOM      5  C   UNL d   1      27.442 -14.014  -4.814  0.00  0.00     0.240 C 
BRANCH   5   6
ATOM      6  N   UNL d   1      26.484 -14.579  -3.830  0.00  0.00    -0.259 N 
ATOM      7  C   UNL d   1      25.182 -14.201  -3.717  0.00  0.00     0.326 C 
ATOM      8  O   UNL d   1      24.404 -13.893  -4.623  0.00  0.00    -0.247 OA
ATOM      9  N   UNL d   1      24.816 -14.259  -2.390  0.00  0.00    -0.321 N 
ATOM     10  C   UNL d   1      25.728 -15.078  -1.620  0.00  0.00     0.141 C 
ATOM     11  H   UNL d   1      23.947 -13.879  -2.037  0.00  0.00     0.165 HD
ATOM     12  C   UNL d   1      26.830 -15.232  -2.670  0.00  0.00     0.261 C 
ATOM     13  C   UNL d   1      26.368 -14.273  -0.504  0.00  0.00     0.055 C 
ATOM     14  O   UNL d   1      27.863 -15.837  -2.416  0.00  0.00    -0.270 OA
BRANCH  10  15
ATOM     15  C   UNL d   1      25.081 -16.401  -1.176  0.00  0.00    -0.004 A 
ATOM     16  C   UNL d   1      23.685 -16.552  -1.399  0.00  0.00     0.011 A 
ATOM     17  C   UNL d   1      22.968 -17.639  -0.889  0.00  0.00     0.001 A 
ATOM     18  C   UNL d   1      23.629 -18.655  -0.221  0.00  0.00     0.001 A 
ATOM     19  C   UNL d   1      24.997 -18.573  -0.038  0.00  0.00     0.020 A 
ATOM     20  C   UNL d   1      25.730 -17.476  -0.510  0.00  0.00     0.020 A 
ATOM     21 BR   UNL d   1      27.590 -17.732  -0.131  0.00  0.00    -0.050 Br
ENDBRANCH  10  15
ENDBRANCH   5   6
ENDBRANCH   2   5
BRANCH   1  22
ATOM     22  C   UNL d   1      30.147 -16.417  -5.977  0.00  0.00     0.070 C 
ATOM     23  C   UNL d   1      30.842 -15.525  -6.797  0.00  0.00     0.062 C 
ATOM     24  C   UNL d   1      31.770 -15.903  -7.770  0.00  0.00     0.037 C 
ATOM     25  C   UNL d   1      32.209 -17.224  -7.738  0.00  0.00     0.032 C 
ATOM     26  C   UNL d   1      31.587 -18.139  -6.870  0.00  0.00     0.041 C 
ATOM     27  C   UNL d   1      30.520 -17.761  -6.029  0.00  0.00     0.095 C 
BRANCH  24  28
ATOM     28  N   UNL d   1      32.264 -15.025  -8.764  0.00  0.00    -0.327 N 
ATOM     29  C   UNL d   1      33.512 -14.507  -8.996  0.00  0.00     0.218 C 
ATOM     30  C   UNL d   1      34.730 -14.878  -8.186  0.00  0.00     0.117 C 
ATOM     31  O   UNL d   1      33.648 -13.694  -9.918  0.00  0.00    -0.274 OA
ATOM     32  H   UNL d   1      31.576 -14.588  -9.374  0.00  0.00     0.169 HD
ENDBRANCH  24  28
BRANCH  27  33
ATOM     33  O   UNL d   1      30.040 -18.781  -5.259  0.00  0.00    -0.354 OA
ATOM     34  C   UNL d   1      30.499 -20.101  -5.516  0.00  0.00     0.210 C 
ENDBRANCH  27  33
ENDBRANCH   1  22
TORSDOF 6
ENDMDL
MODEL 5
REMARK VINA RESULT:    -8.350      2.549      3.426
REMARK INTER + INTRA:         -12.620
REMARK INTER:                 -10.140
REMARK INTRA:                  -2.480
REMARK CONF_INDEPENDENT:        1.790
REMARK UNBOUND:                -2.480
REMARK  6 active torsions:
REMARK  status: ('A' for Active; 'I' for Inactive)
REMARK    1  A    between atoms: O_2  and  C_3 
REMARK    2  A    between atoms: C_6  and  N_7 
REMARK       I    between atoms: N_7  and  C_8 
REMARK    3  A    between atoms: C_12  and  N_13 
REMARK       I    between atoms: N_13  and  C_14 
REMARK    4  A    between atoms: C_14  and  C_16 
REMARK    5  A    between atoms: C_16  and  N_17 
REMARK    6  A    between atoms: C_21  and  C_23 
ROOT
ATOM      1  N   UNL d   1      27.095 -14.743  -1.064  0.00  0.00    -0.323 N 
ATOM      2  C   UNL d   1      26.842 -13.595  -0.344  0.00  0.00     0.240 C 
ATOM      3  O   UNL d   1      26.393 -13.682   0.793  0.00  0.00    -0.271 OA
ATOM      4  H   UNL d   1      27.986 -14.813  -1.541  0.00  0.00     0.169 HD
ENDROOT
BRANCH   2   5
ATOM      5  C   UNL d   1      27.108 -12.234  -1.020  0.00  0.00     0.240 C 
BRANCH   5   6
ATOM      6  N   UNL d   1      26.961 -12.242  -2.498  0.00  0.00    -0.259 N 
ATOM      7  C   UNL d   1      25.977 -11.593  -3.178  0.00  0.00     0.326 C 
ATOM      8  O   UNL d   1      25.474 -10.498  -2.917  0.00  0.00    -0.247 OA
ATOM      9  N   UNL d   1      25.633 -12.341  -4.283  0.00  0.00    -0.321 N 
ATOM     10  C   UNL d   1      26.661 -13.306  -4.615  0.00  0.00     0.141 C 
ATOM     11  H   UNL d   1      24.823 -12.144  -4.857  0.00  0.00     0.165 HD
ATOM     12  C   UNL d   1      27.505 -13.179  -3.346  0.00  0.00     0.261 C 
ATOM     13  C   UNL d   1      26.111 -14.719  -4.574  0.00  0.00     0.055 C 
ATOM     14  O   UNL d   1      28.491 -13.881  -3.171  0.00  0.00    -0.270 OA
BRANCH  10  15
ATOM     15  C   UNL d   1      27.402 -12.936  -5.911  0.00  0.00    -0.004 A 
ATOM     16  C   UNL d   1      27.019 -11.731  -6.562  0.00  0.00     0.011 A 
ATOM     17  C   UNL d   1      27.508 -11.384  -7.825  0.00  0.00     0.001 A 
ATOM     18  C   UNL d   1      28.461 -12.176  -8.443  0.00  0.00     0.001 A 
ATOM     19  C   UNL d   1      28.903 -13.325  -7.813  0.00  0.00     0.020 A 
ATOM     20  C   UNL d   1      28.401 -13.710  -6.563  0.00  0.00     0.020 A 
ATOM     21 BR   UNL d   1      29.281 -15.307  -5.978  0.00  0.00    -0.050 Br
ENDBRANCH  10  15
ENDBRANCH   5   6
ENDBRANCH   2   5
BRANCH   1  22
ATOM     22  C   UNL d   1      26.401 -15.959  -0.768  0.00  0.00     0.070 C 
ATOM     23  C   UNL d   1      25.059 -16.008  -1.153  0.00  0.00     0.062 C 
ATOM     24  C   UNL d   1      24.179 -17.041  -0.825  0.00  0.00     0.037 C 
ATOM     25  C   UNL d   1      24.742 -18.203  -0.303  0.00  0.00     0.032 C 
ATOM     26  C   UNL d   1      26.108 -18.221   0.028  0.00  0.00     0.041 C 
ATOM     27  C   UNL d   1      26.932 -17.090  -0.146  0.00  0.00     0.095 C 
BRANCH  24  28
ATOM     28  N   UNL d   1      22.775 -16.956  -0.989  0.00  0.00    -0.327 N 
ATOM     29  C   UNL d   1      21.780 -17.893  -0.895  0.00  0.00     0.218 C 
ATOM     30  C   UNL d   1      22.022 -19.325  -0.483  0.00  0.00     0.117 C 
ATOM     31  O   UNL d   1      20.622 -17.549  -1.159  0.00  0.00    -0.274 OA
ATOM     32  H   UNL d   1      22.407 -16.079  -1.353  0.00  0.00     0.169 HD
ENDBRANCH  24  28
BRANCH  27  33
ATOM     33  O   UNL d   1      28.228 -17.293   0.232  0.00  0.00    -0.354 OA
ATOM     34  C   UNL d   1      29.258 -16.634  -0.490  0.00  0.00     0.210 C 
ENDBRANCH  27  33
ENDBRANCH   1  22
TORSDOF 6
ENDMDL
MODEL 6
REMARK VINA RESULT:    -8.348      1.743      2.557
REMARK INTER + INTRA:         -12.107
REMARK INTER:                 -10.137
REMARK INTRA:                  -1.970
REMARK CONF_INDEPENDENT:        1.790
REMARK UNBOUND:                -1.970
REMARK  6 active torsions:
REMARK  status: ('A' for Active; 'I' for Inactive)
REMARK    1  A    between atoms: O_2  and  C_3 
REMARK    2  A    between atoms: C_6  and  N_7 
REMARK       I    between atoms: N_7  and  C_8 
REMARK    3  A    between atoms: C_12  and  N_13 
REMARK       I    between atoms: N_13  and  C_14 
REMARK    4  A    between atoms: C_14  and  C_16 
REMARK    5  A    between atoms: C_16  and  N_17 
REMARK    6  A    between atoms: C_21  and  C_23 
ROOT
ATOM      1  N   UNL d   1      25.802 -14.772  -2.359  0.00  0.00    -0.323 N 
ATOM      2  C   UNL d   1      24.800 -14.241  -3.143  0.00  0.00     0.240 C 
ATOM      3  O   UNL d   1      23.628 -14.450  -2.849  0.00  0.00    -0.271 OA
ATOM      4  H   UNL d   1      26.561 -14.160  -2.085  0.00  0.00     0.169 HD
ENDROOT
BRANCH   2   5
ATOM      5  C   UNL d   1      25.201 -13.424  -4.388  0.00  0.00     0.240 C 
BRANCH   5   6
ATOM      6  N   UNL d   1      26.521 -13.786  -4.963  0.00  0.00    -0.259 N 
ATOM      7  C   UNL d   1      26.899 -15.052  -5.290  0.00  0.00     0.326 C 
ATOM      8  O   UNL d   1      26.201 -15.948  -5.770  0.00  0.00    -0.247 OA
ATOM      9  N   UNL d   1      28.248 -15.190  -5.043  0.00  0.00    -0.321 N 
ATOM     10  C   UNL d   1      28.907 -13.905  -4.943  0.00  0.00     0.141 C 
ATOM     11  H   UNL d   1      28.727 -16.082  -5.061  0.00  0.00     0.165 HD
ATOM     12  C   UNL d   1      27.661 -13.020  -4.881  0.00  0.00     0.261 C 
ATOM     13  C   UNL d   1      29.567 -13.738  -3.587  0.00  0.00     0.055 C 
ATOM     14  O   UNL d   1      27.754 -11.808  -4.738  0.00  0.00    -0.270 OA
BRANCH  10  15
ATOM     15  C   UNL d   1      29.823 -13.631  -6.148  0.00  0.00    -0.004 A 
ATOM     16  C   UNL d   1      29.716 -12.360  -6.775  0.00  0.00     0.011 A 
ATOM     17  C   UNL d   1      30.378 -12.065  -7.971  0.00  0.00     0.001 A 
ATOM     18  C   UNL d   1      31.239 -12.992  -8.534  0.00  0.00     0.001 A 
ATOM     19  C   UNL d   1      31.415 -14.218  -7.920  0.00  0.00     0.020 A 
ATOM     20  C   UNL d   1      30.736 -14.547  -6.740  0.00  0.00     0.020 A 
ATOM     21 BR   UNL d   1      31.269 -16.289  -6.150  0.00  0.00    -0.050 Br
ENDBRANCH  10  15
ENDBRANCH   5   6
ENDBRANCH   2   5
BRANCH   1  22
ATOM     22  C   UNL d   1      25.566 -15.937  -1.562  0.00  0.00     0.070 C 
ATOM     23  C   UNL d   1      24.562 -16.797  -2.015  0.00  0.00     0.062 C 
ATOM     24  C   UNL d   1      24.085 -17.900  -1.305  0.00  0.00     0.037 C 
ATOM     25  C   UNL d   1      24.832 -18.307  -0.203  0.00  0.00     0.032 C 
ATOM     26  C   UNL d   1      25.901 -17.509   0.241  0.00  0.00     0.041 C 
ATOM     27  C   UNL d   1      26.240 -16.297  -0.394  0.00  0.00     0.095 C 
BRANCH  24  28
ATOM     28  N   UNL d   1      22.902 -18.598  -1.645  0.00  0.00    -0.327 N 
ATOM     29  C   UNL d   1      21.823 -18.997  -0.899  0.00  0.00     0.218 C 
ATOM     30  C   UNL d   1      21.653 -18.663   0.562  0.00  0.00     0.117 C 
ATOM     31  O   UNL d   1      20.941 -19.665  -1.453  0.00  0.00    -0.274 OA
ATOM     32  H   UNL d   1      22.853 -18.992  -2.583  0.00  0.00     0.169 HD
ENDBRANCH  24  28
BRANCH  27  33
ATOM     33  O   UNL d   1      27.303 -15.657   0.177  0.00  0.00    -0.354 OA
ATOM     34  C   UNL d   1      28.562 -16.313   0.194  0.00  0.00     0.210 C 
ENDBRANCH  27  33
ENDBRANCH   1  22
TORSDOF 6
ENDMDL
MODEL 7
REMARK VINA RESULT:    -8.157      2.702      3.847
REMARK INTER + INTRA:         -12.402
REMARK INTER:                  -9.947
REMARK INTRA:                  -2.455
REMARK CONF_INDEPENDENT:        1.790
REMARK UNBOUND:                -2.455
REMARK  6 active torsions:
REMARK  status: ('A' for Active; 'I' for Inactive)
REMARK    1  A    between atoms: O_2  and  C_3 
REMARK    2  A    between atoms: C_6  and  N_7 
REMARK       I    between atoms: N_7  and  C_8 
REMARK    3  A    between atoms: C_12  and  N_13 
REMARK       I    between atoms: N_13  and  C_14 
REMARK    4  A    between atoms: C_14  and  C_16 
REMARK    5  A    between atoms: C_16  and  N_17 
REMARK    6  A    between atoms: C_21  and  C_23 
ROOT
ATOM      1  N   UNL d   1      26.026 -15.779  -2.769  0.00  0.00    -0.323 N 
ATOM      2  C   UNL d   1      25.611 -14.465  -2.738  0.00  0.00     0.240 C 
ATOM      3  O   UNL d   1      25.686 -13.832  -1.691  0.00  0.00    -0.271 OA
ATOM      4  H   UNL d   1      26.626 -16.066  -3.534  0.00  0.00     0.169 HD
ENDROOT
BRANCH   2   5
ATOM      5  C   UNL d   1      25.032 -13.850  -4.029  0.00  0.00     0.240 C 
BRANCH   5   6
ATOM      6  N   UNL d   1      26.049 -13.498  -5.052  0.00  0.00    -0.259 N 
ATOM      7  C   UNL d   1      27.108 -14.283  -5.390  0.00  0.00     0.326 C 
ATOM      8  O   UNL d   1      27.141 -15.513  -5.467  0.00  0.00    -0.247 OA
ATOM      9  N   UNL d   1      28.181 -13.474  -5.695  0.00  0.00    -0.321 N 
ATOM     10  C   UNL d   1      27.763 -12.118  -5.983  0.00  0.00     0.141 C 
ATOM     11  H   UNL d   1      29.121 -13.826  -5.826  0.00  0.00     0.165 HD
ATOM     12  C   UNL d   1      26.314 -12.226  -5.504  0.00  0.00     0.261 C 
ATOM     13  C   UNL d   1      28.414 -11.136  -5.027  0.00  0.00     0.055 C 
ATOM     14  O   UNL d   1      25.572 -11.253  -5.517  0.00  0.00    -0.270 OA
BRANCH  10  15
ATOM     15  C   UNL d   1      27.916 -11.771  -7.473  0.00  0.00    -0.004 A 
ATOM     16  C   UNL d   1      26.845 -11.073  -8.095  0.00  0.00     0.011 A 
ATOM     17  C   UNL d   1      26.807 -10.853  -9.476  0.00  0.00     0.001 A 
ATOM     18  C   UNL d   1      27.873 -11.240 -10.270  0.00  0.00     0.001 A 
ATOM     19  C   UNL d   1      28.960 -11.868  -9.691  0.00  0.00     0.020 A 
ATOM     20  C   UNL d   1      29.004 -12.129  -8.316  0.00  0.00     0.020 A 
ATOM     21 BR   UNL d   1      30.675 -12.950  -7.867  0.00  0.00    -0.050 Br
ENDBRANCH  10  15
ENDBRANCH   5   6
ENDBRANCH   2   5
BRANCH   1  22
ATOM     22  C   UNL d   1      26.048 -16.567  -1.574  0.00  0.00     0.070 C 
ATOM     23  C   UNL d   1      24.975 -17.444  -1.398  0.00  0.00     0.062 C 
ATOM     24  C   UNL d   1      24.741 -18.185  -0.238  0.00  0.00     0.037 C 
ATOM     25  C   UNL d   1      25.777 -18.240   0.691  0.00  0.00     0.032 C 
ATOM     26  C   UNL d   1      26.911 -17.430   0.511  0.00  0.00     0.041 C 
ATOM     27  C   UNL d   1      27.032 -16.550  -0.584  0.00  0.00     0.095 C 
BRANCH  24  28
ATOM     28  N   UNL d   1      23.525 -18.857   0.030  0.00  0.00    -0.327 N 
ATOM     29  C   UNL d   1      22.215 -18.507  -0.176  0.00  0.00     0.218 C 
ATOM     30  C   UNL d   1      21.795 -17.233  -0.867  0.00  0.00     0.117 C 
ATOM     31  O   UNL d   1      21.332 -19.275   0.223  0.00  0.00    -0.274 OA
ATOM     32  H   UNL d   1      23.583 -19.715   0.576  0.00  0.00     0.169 HD
ENDBRANCH  24  28
BRANCH  27  33
ATOM     33  O   UNL d   1      28.199 -15.841  -0.592  0.00  0.00    -0.354 OA
ATOM     34  C   UNL d   1      28.365 -14.794   0.354  0.00  0.00     0.210 C 
ENDBRANCH  27  33
ENDBRANCH   1  22
TORSDOF 6
ENDMDL
MODEL 8
REMARK VINA RESULT:    -8.000      2.642      8.009
REMARK INTER + INTRA:         -12.125
REMARK INTER:                  -9.790
REMARK INTRA:                  -2.335
REMARK CONF_INDEPENDENT:        1.790
REMARK UNBOUND:                -2.335
REMARK  6 active torsions:
REMARK  status: ('A' for Active; 'I' for Inactive)
REMARK    1  A    between atoms: O_2  and  C_3 
REMARK    2  A    between atoms: C_6  and  N_7 
REMARK       I    between atoms: N_7  and  C_8 
REMARK    3  A    between atoms: C_12  and  N_13 
REMARK       I    between atoms: N_13  and  C_14 
REMARK    4  A    between atoms: C_14  and  C_16 
REMARK    5  A    between atoms: C_16  and  N_17 
REMARK    6  A    between atoms: C_21  and  C_23 
ROOT
ATOM      1  N   UNL d   1      29.359 -15.389  -5.250  0.00  0.00    -0.323 N 
ATOM      2  C   UNL d   1      28.200 -14.861  -5.777  0.00  0.00     0.240 C 
ATOM      3  O   UNL d   1      27.835 -15.200  -6.897  0.00  0.00    -0.271 OA
ATOM      4  H   UNL d   1      29.330 -15.736  -4.299  0.00  0.00     0.169 HD
ENDROOT
BRANCH   2   5
ATOM      5  C   UNL d   1      27.420 -13.828  -4.936  0.00  0.00     0.240 C 
BRANCH   5   6
ATOM      6  N   UNL d   1      26.524 -14.421  -3.911  0.00  0.00    -0.259 N 
ATOM      7  C   UNL d   1      25.214 -14.090  -3.748  0.00  0.00     0.326 C 
ATOM      8  O   UNL d   1      24.389 -13.818  -4.623  0.00  0.00    -0.247 OA
ATOM      9  N   UNL d   1      24.904 -14.152  -2.406  0.00  0.00    -0.321 N 
ATOM     10  C   UNL d   1      25.877 -14.932  -1.669  0.00  0.00     0.141 C 
ATOM     11  H   UNL d   1      24.036 -13.802  -2.020  0.00  0.00     0.165 HD
ATOM     12  C   UNL d   1      26.940 -15.053  -2.762  0.00  0.00     0.261 C 
ATOM     13  C   UNL d   1      26.531 -14.096  -0.584  0.00  0.00     0.055 C 
ATOM     14  O   UNL d   1      28.004 -15.617  -2.547  0.00  0.00    -0.270 OA
BRANCH  10  15
ATOM     15  C   UNL d   1      25.298 -16.274  -1.192  0.00  0.00    -0.004 A 
ATOM     16  C   UNL d   1      23.909 -16.496  -1.397  0.00  0.00     0.011 A 
ATOM     17  C   UNL d   1      23.249 -17.605  -0.859  0.00  0.00     0.001 A 
ATOM     18  C   UNL d   1      23.964 -18.575  -0.177  0.00  0.00     0.001 A 
ATOM     19  C   UNL d   1      25.328 -18.423  -0.009  0.00  0.00     0.020 A 
ATOM     20  C   UNL d   1      26.003 -17.303  -0.510  0.00  0.00     0.020 A 
ATOM     21 BR   UNL d   1      27.877 -17.462  -0.145  0.00  0.00    -0.050 Br
ENDBRANCH  10  15
ENDBRANCH   5   6
ENDBRANCH   2   5
BRANCH   1  22
ATOM     22  C   UNL d   1      30.390 -15.887  -6.109  0.00  0.00     0.070 C 
ATOM     23  C   UNL d   1      30.416 -17.271  -6.297  0.00  0.00     0.062 C 
ATOM     24  C   UNL d   1      31.423 -17.960  -6.975  0.00  0.00     0.037 C 
ATOM     25  C   UNL d   1      32.314 -17.192  -7.721  0.00  0.00     0.032 C 
ATOM     26  C   UNL d   1      32.272 -15.791  -7.621  0.00  0.00     0.041 C 
ATOM     27  C   UNL d   1      31.355 -15.131  -6.777  0.00  0.00     0.095 C 
BRANCH  24  28
ATOM     28  N   UNL d   1      31.578 -19.366  -6.930  0.00  0.00    -0.327 N 
ATOM     29  C   UNL d   1      31.357 -20.346  -7.864  0.00  0.00     0.218 C 
ATOM     30  C   UNL d   1      30.932 -20.061  -9.283  0.00  0.00     0.117 C 
ATOM     31  O   UNL d   1      31.516 -21.525  -7.526  0.00  0.00    -0.274 OA
ATOM     32  H   UNL d   1      31.784 -19.778  -6.022  0.00  0.00     0.169 HD
ENDBRANCH  24  28
BRANCH  27  33
ATOM     33  O   UNL d   1      31.463 -13.771  -6.807  0.00  0.00    -0.354 OA
ATOM     34  C   UNL d   1      31.294 -13.102  -8.048  0.00  0.00     0.210 C 
ENDBRANCH  27  33
ENDBRANCH   1  22
TORSDOF 6
ENDMDL
MODEL 9
REMARK VINA RESULT:    -7.736      1.990      2.749
REMARK INTER + INTRA:         -11.925
REMARK INTER:                  -9.526
REMARK INTRA:                  -2.399
REMARK CONF_INDEPENDENT:        1.790
REMARK UNBOUND:                -2.399
REMARK  6 active torsions:
REMARK  status: ('A' for Active; 'I' for Inactive)
REMARK    1  A    between atoms: O_2  and  C_3 
REMARK    2  A    between atoms: C_6  and  N_7 
REMARK       I    between atoms: N_7  and  C_8 
REMARK    3  A    between atoms: C_12  and  N_13 
REMARK       I    between atoms: N_13  and  C_14 
REMARK    4  A    between atoms: C_14  and  C_16 
REMARK    5  A    between atoms: C_16  and  N_17 
REMARK    6  A    between atoms: C_21  and  C_23 
ROOT
ATOM      1  N   UNL d   1      26.216 -15.253  -1.996  0.00  0.00    -0.323 N 
ATOM      2  C   UNL d   1      25.440 -14.652  -2.963  0.00  0.00     0.240 C 
ATOM      3  O   UNL d   1      24.218 -14.737  -2.898  0.00  0.00    -0.271 OA
ATOM      4  H   UNL d   1      26.967 -14.708  -1.588  0.00  0.00     0.169 HD
ENDROOT
BRANCH   2   5
ATOM      5  C   UNL d   1      26.151 -13.917  -4.119  0.00  0.00     0.240 C 
BRANCH   5   6
ATOM      6  N   UNL d   1      27.553 -14.348  -4.352  0.00  0.00    -0.259 N 
ATOM      7  C   UNL d   1      27.951 -15.164  -5.366  0.00  0.00     0.326 C 
ATOM      8  O   UNL d   1      27.520 -15.198  -6.520  0.00  0.00    -0.247 OA
ATOM      9  N   UNL d   1      28.987 -15.954  -4.918  0.00  0.00    -0.321 N 
ATOM     10  C   UNL d   1      29.600 -15.407  -3.726  0.00  0.00     0.141 C 
ATOM     11  H   UNL d   1      29.347 -16.744  -5.439  0.00  0.00     0.165 HD
ATOM     12  C   UNL d   1      28.554 -14.337  -3.409  0.00  0.00     0.261 C 
ATOM     13  C   UNL d   1      29.513 -16.388  -2.572  0.00  0.00     0.055 C 
ATOM     14  O   UNL d   1      28.651 -13.638  -2.409  0.00  0.00    -0.270 OA
BRANCH  10  15
ATOM     15  C   UNL d   1      31.009 -14.857  -4.004  0.00  0.00    -0.004 A 
ATOM     16  C   UNL d   1      31.718 -14.292  -2.908  0.00  0.00     0.011 A 
ATOM     17  C   UNL d   1      32.931 -13.618  -3.079  0.00  0.00     0.001 A 
ATOM     18  C   UNL d   1      33.524 -13.562  -4.329  0.00  0.00     0.001 A 
ATOM     19  C   UNL d   1      32.894 -14.153  -5.408  0.00  0.00     0.020 A 
ATOM     20  C   UNL d   1      31.662 -14.803  -5.266  0.00  0.00     0.020 A 
ATOM     21 BR   UNL d   1      31.126 -15.547  -6.948  0.00  0.00    -0.050 Br
ENDBRANCH  10  15
ENDBRANCH   5   6
ENDBRANCH   2   5
BRANCH   1  22
ATOM     22  C   UNL d   1      25.715 -16.363  -1.244  0.00  0.00     0.070 C 
ATOM     23  C   UNL d   1      24.633 -17.046  -1.805  0.00  0.00     0.062 C 
ATOM     24  C   UNL d   1      23.915 -18.056  -1.163  0.00  0.00     0.037 C 
ATOM     25  C   UNL d   1      24.475 -18.581  -0.001  0.00  0.00     0.032 C 
ATOM     26  C   UNL d   1      25.612 -17.971   0.556  0.00  0.00     0.041 C 
ATOM     27  C   UNL d   1      26.205 -16.830  -0.023  0.00  0.00     0.095 C 
BRANCH  24  28
ATOM     28  N   UNL d   1      22.672 -18.550  -1.626  0.00  0.00    -0.327 N 
ATOM     29  C   UNL d   1      21.553 -18.988  -0.967  0.00  0.00     0.218 C 
ATOM     30  C   UNL d   1      21.404 -18.950   0.534  0.00  0.00     0.117 C 
ATOM     31  O   UNL d   1      20.615 -19.437  -1.637  0.00  0.00    -0.274 OA
ATOM     32  H   UNL d   1      22.593 -18.733  -2.625  0.00  0.00     0.169 HD
ENDBRANCH  24  28
BRANCH  27  33
ATOM     33  O   UNL d   1      27.297 -16.374   0.658  0.00  0.00    -0.354 OA
ATOM     34  C   UNL d   1      27.352 -15.001   1.014  0.00  0.00     0.210 C 
ENDBRANCH  27  33
ENDBRANCH   1  22
TORSDOF 6
ENDMDL
