MODEL 1
REMARK VINA RESULT:   -23.801      0.000      0.000
REMARK INTER + INTRA:         -27.131
REMARK INTER:                 -26.486
REMARK INTRA:                  -0.645
REMARK CONF_INDEPENDENT:        2.685
REMARK UNBOUND:                -0.645
REMARK  9 active torsions:
REMARK  status: ('A' for Active; 'I' for Inactive)
REMARK    1  A    between atoms: C_2  and  O_3 
REMARK    2  A    between atoms: O_3  and  C_4 
REMARK    3  A    between atoms: C_9  and  S_10 
REMARK    4  A    between atoms: C_11  and  S_10 
REMARK    5  A    between atoms: C_11  and  C_13 
REMARK       I    between atoms: C_13  and  N_15 
REMARK    6  A    between atoms: N_15  and  C_16 
REMARK    7  A    between atoms: C_19  and  C_20 
REMARK       I    between atoms: C_20  and  N_22 
REMARK    8  A    between atoms: N_22  and  C_23 
REMARK    9  A    between atoms: C_28  and  O_29 
ROOT
ATOM      1  C   UNL d   1      24.720 -16.986  -1.819  0.00  0.00     0.236 C 
ATOM      2  O   UNL d   1      25.888 -17.142  -2.187  0.00  0.00    -0.272 OA
ATOM      3  N   UNL d   1      24.049 -15.775  -1.988  0.00  0.00    -0.326 N 
ATOM      4  H   UNL d   1      23.157 -15.639  -1.528  0.00  0.00     0.169 HD
ENDROOT
BRANCH   3   5
ATOM      5  C   UNL d   1      24.655 -14.652  -2.617  0.00  0.00     0.034 A 
ATOM      6  C   UNL d   1      24.091 -14.071  -3.754  0.00  0.00     0.030 A 
ATOM      7  C   UNL d   1      24.782 -13.047  -4.440  0.00  0.00     0.019 A 
ATOM      8  C   UNL d   1      26.041 -12.585  -3.996  0.00  0.00     0.032 A 
ATOM      9  C   UNL d   1      26.542 -13.104  -2.807  0.00  0.00     0.019 A 
ATOM     10  C   UNL d   1      25.864 -14.133  -2.141  0.00  0.00     0.030 A 
BRANCH   8  11
ATOM     11  C   UNL d   1      26.781 -11.531  -4.779  0.00  0.00     0.256 C 
ATOM     12  O   UNL d   1      28.019 -11.547  -4.767  0.00  0.00    -0.267 OA
ATOM     13  N   UNL d   1      26.033 -10.655  -5.552  0.00  0.00    -0.321 N 
ATOM     14  H   UNL d   1      25.065 -10.466  -5.335  0.00  0.00     0.169 HD
BRANCH  13  15
ATOM     15  C   UNL d   1      26.540  -9.956  -6.677  0.00  0.00     0.068 A 
ATOM     16  C   UNL d   1      26.300  -8.566  -6.709  0.00  0.00     0.032 A 
ATOM     17  C   UNL d   1      26.708  -7.777  -7.791  0.00  0.00     0.002 A 
ATOM     18  C   UNL d   1      27.383  -8.364  -8.851  0.00  0.00     0.003 A 
ATOM     19  C   UNL d   1      27.593  -9.745  -8.850  0.00  0.00     0.039 A 
ATOM     20  C   UNL d   1      27.161 -10.565  -7.787  0.00  0.00     0.095 A 
BRANCH  20  21
ATOM     21  O   UNL d   1      27.362 -11.892  -8.076  0.00  0.00    -0.354 OA
ATOM     22  C   UNL d   1      28.580 -12.321  -8.651  0.00  0.00     0.210 C 
ENDBRANCH  20  21
ENDBRANCH  13  15
ENDBRANCH   8  11
ENDBRANCH   3   5
BRANCH   1  23
ATOM     23  C   UNL d   1      23.935 -18.163  -1.197  0.00  0.00     0.143 C 
ATOM     24  C   UNL d   1      23.913 -17.995   0.322  0.00  0.00     0.031 C 
BRANCH  23  25
ATOM     25  S   UNL d   1      22.282 -18.370  -1.982  0.00  0.00    -0.078 SA
BRANCH  25  26
ATOM     26  C   UNL d   1      21.187 -19.007  -0.793  0.00  0.00     0.168 A 
ATOM     27  N   UNL d   1      19.905 -19.248  -0.895  0.00  0.00    -0.223 NA
ATOM     28  C   UNL d   1      19.523 -19.781   0.314  0.00  0.00     0.086 A 
ATOM     29  C   UNL d   1      18.258 -20.202   0.753  0.00  0.00     0.037 A 
ATOM     30  C   UNL d   1      20.608 -19.882   1.176  0.00  0.00     0.066 A 
ATOM     31  C   UNL d   1      18.125 -20.732   2.048  0.00  0.00     0.039 A 
ATOM     32  C   UNL d   1      19.235 -20.863   2.886  0.00  0.00     0.071 A 
ATOM     33  C   UNL d   1      20.501 -20.413   2.472  0.00  0.00     0.068 A 
ATOM     34  N   UNL d   1      21.656 -19.364   0.447  0.00  0.00    -0.333 N 
ATOM     35  H   UNL d   1      22.610 -19.268   0.757  0.00  0.00     0.168 HD
BRANCH  32  36
ATOM     36  O   UNL d   1      19.155 -21.346   4.171  0.00  0.00    -0.351 OA
BRANCH  36  37
ATOM     37  C   UNL d   1      19.552 -20.422   5.194  0.00  0.00     0.171 C 
ATOM     38  C   UNL d   1      18.622 -20.586   6.388  0.00  0.00     0.034 C 
ENDBRANCH  36  37
ENDBRANCH  32  36
ENDBRANCH  25  26
ENDBRANCH  23  25
ENDBRANCH   1  23
TORSDOF 9
ENDMDL
MODEL 2
REMARK VINA RESULT:   -23.179      1.627      2.455
REMARK INTER + INTRA:         -26.912
REMARK INTER:                 -25.863
REMARK INTRA:                  -1.049
REMARK CONF_INDEPENDENT:        2.685
REMARK UNBOUND:                -1.049
REMARK  9 active torsions:
REMARK  status: ('A' for Active; 'I' for Inactive)
REMARK    1  A    between atoms: C_2  and  O_3 
REMARK    2  A    between atoms: O_3  and  C_4 
REMARK    3  A    between atoms: C_9  and  S_10 
REMARK    4  A    between atoms: C_11  and  S_10 
REMARK    5  A    between atoms: C_11  and  C_13 
REMARK       I    between atoms: C_13  and  N_15 
REMARK    6  A    between atoms: N_15  and  C_16 
REMARK    7  A    between atoms: C_19  and  C_20 
REMARK       I    between atoms: C_20  and  N_22 
REMARK    8  A    between atoms: N_22  and  C_23 
REMARK    9  A    between atoms: C_28  and  O_29 
ROOT
ATOM      1  C   UNL d   1      24.448 -16.658  -2.159  0.00  0.00     0.236 C 
ATOM      2  O   UNL d   1      24.811 -17.326  -3.131  0.00  0.00    -0.272 OA
ATOM      3  N   UNL d   1      24.912 -15.362  -1.939  0.00  0.00    -0.326 N 
ATOM      4  H   UNL d   1      24.719 -14.914  -1.051  0.00  0.00     0.169 HD
ENDROOT
BRANCH   3   5
ATOM      5  C   UNL d   1      25.815 -14.717  -2.830  0.00  0.00     0.034 A 
ATOM      6  C   UNL d   1      26.559 -13.608  -2.424  0.00  0.00     0.030 A 
ATOM      7  C   UNL d   1      27.343 -12.901  -3.364  0.00  0.00     0.019 A 
ATOM      8  C   UNL d   1      27.399 -13.297  -4.718  0.00  0.00     0.032 A 
ATOM      9  C   UNL d   1      26.731 -14.460  -5.086  0.00  0.00     0.019 A 
ATOM     10  C   UNL d   1      25.939 -15.146  -4.156  0.00  0.00     0.030 A 
BRANCH   8  11
ATOM     11  C   UNL d   1      28.198 -12.491  -5.711  0.00  0.00     0.256 C 
ATOM     12  O   UNL d   1      28.978 -11.630  -5.282  0.00  0.00    -0.267 OA
ATOM     13  N   UNL d   1      28.087 -12.825  -7.053  0.00  0.00    -0.321 N 
ATOM     14  H   UNL d   1      27.269 -13.300  -7.405  0.00  0.00     0.169 HD
BRANCH  13  15
ATOM     15  C   UNL d   1      29.074 -12.531  -8.029  0.00  0.00     0.068 A 
ATOM     16  C   UNL d   1      30.416 -12.713  -7.635  0.00  0.00     0.032 A 
ATOM     17  C   UNL d   1      31.479 -12.408  -8.494  0.00  0.00     0.002 A 
ATOM     18  C   UNL d   1      31.214 -11.936  -9.771  0.00  0.00     0.003 A 
ATOM     19  C   UNL d   1      29.891 -11.714 -10.159  0.00  0.00     0.039 A 
ATOM     20  C   UNL d   1      28.805 -11.982  -9.300  0.00  0.00     0.095 A 
BRANCH  20  21
ATOM     21  O   UNL d   1      27.623 -11.561  -9.856  0.00  0.00    -0.354 OA
ATOM     22  C   UNL d   1      27.414 -10.194 -10.142  0.00  0.00     0.210 C 
ENDBRANCH  20  21
ENDBRANCH  13  15
ENDBRANCH   8  11
ENDBRANCH   3   5
BRANCH   1  23
ATOM     23  C   UNL d   1      23.406 -17.227  -1.169  0.00  0.00     0.143 C 
ATOM     24  C   UNL d   1      22.714 -16.065  -0.457  0.00  0.00     0.031 C 
BRANCH  23  25
ATOM     25  S   UNL d   1      22.272 -18.427  -1.988  0.00  0.00    -0.078 SA
BRANCH  25  26
ATOM     26  C   UNL d   1      21.182 -19.054  -0.789  0.00  0.00     0.168 A 
ATOM     27  N   UNL d   1      19.905 -19.325  -0.894  0.00  0.00    -0.223 NA
ATOM     28  C   UNL d   1      19.525 -19.831   0.327  0.00  0.00     0.086 A 
ATOM     29  C   UNL d   1      18.266 -20.267   0.768  0.00  0.00     0.037 A 
ATOM     30  C   UNL d   1      20.605 -19.884   1.199  0.00  0.00     0.066 A 
ATOM     31  C   UNL d   1      18.134 -20.763   2.076  0.00  0.00     0.039 A 
ATOM     32  C   UNL d   1      19.239 -20.846   2.926  0.00  0.00     0.071 A 
ATOM     33  C   UNL d   1      20.499 -20.381   2.509  0.00  0.00     0.068 A 
ATOM     34  N   UNL d   1      21.648 -19.364   0.464  0.00  0.00    -0.333 N 
ATOM     35  H   UNL d   1      22.597 -19.239   0.779  0.00  0.00     0.168 HD
BRANCH  32  36
ATOM     36  O   UNL d   1      19.158 -21.294   4.224  0.00  0.00    -0.351 OA
BRANCH  36  37
ATOM     37  C   UNL d   1      19.520 -20.331   5.223  0.00  0.00     0.171 C 
ATOM     38  C   UNL d   1      18.520 -20.416   6.368  0.00  0.00     0.034 C 
ENDBRANCH  36  37
ENDBRANCH  32  36
ENDBRANCH  25  26
ENDBRANCH  23  25
ENDBRANCH   1  23
TORSDOF 9
ENDMDL
MODEL 3
REMARK VINA RESULT:   -23.157      2.581      3.322
REMARK INTER + INTRA:         -26.859
REMARK INTER:                 -25.841
REMARK INTRA:                  -1.018
REMARK CONF_INDEPENDENT:        2.685
REMARK UNBOUND:                -1.018
REMARK  9 active torsions:
REMARK  status: ('A' for Active; 'I' for Inactive)
REMARK    1  A    between atoms: C_2  and  O_3 
REMARK    2  A    between atoms: O_3  and  C_4 
REMARK    3  A    between atoms: C_9  and  S_10 
REMARK    4  A    between atoms: C_11  and  S_10 
REMARK    5  A    between atoms: C_11  and  C_13 
REMARK       I    between atoms: C_13  and  N_15 
REMARK    6  A    between atoms: N_15  and  C_16 
REMARK    7  A    between atoms: C_19  and  C_20 
REMARK       I    between atoms: C_20  and  N_22 
REMARK    8  A    between atoms: N_22  and  C_23 
REMARK    9  A    between atoms: C_28  and  O_29 
ROOT
ATOM      1  C   UNL d   1      24.448 -16.661  -2.168  0.00  0.00     0.236 C 
ATOM      2  O   UNL d   1      24.789 -17.321  -3.154  0.00  0.00    -0.272 OA
ATOM      3  N   UNL d   1      24.951 -15.384  -1.925  0.00  0.00    -0.326 N 
ATOM      4  H   UNL d   1      24.774 -14.947  -1.028  0.00  0.00     0.169 HD
ENDROOT
BRANCH   3   5
ATOM      5  C   UNL d   1      25.869 -14.748  -2.808  0.00  0.00     0.034 A 
ATOM      6  C   UNL d   1      26.105 -15.252  -4.088  0.00  0.00     0.030 A 
ATOM      7  C   UNL d   1      27.119 -14.688  -4.893  0.00  0.00     0.019 A 
ATOM      8  C   UNL d   1      27.907 -13.609  -4.433  0.00  0.00     0.032 A 
ATOM      9  C   UNL d   1      27.594 -13.055  -3.196  0.00  0.00     0.019 A 
ATOM     10  C   UNL d   1      26.601 -13.630  -2.393  0.00  0.00     0.030 A 
BRANCH   8  11
ATOM     11  C   UNL d   1      29.020 -13.064  -5.291  0.00  0.00     0.256 C 
ATOM     12  O   UNL d   1      29.685 -12.112  -4.860  0.00  0.00    -0.267 OA
ATOM     13  N   UNL d   1      29.302 -13.721  -6.479  0.00  0.00    -0.321 N 
ATOM     14  H   UNL d   1      28.601 -14.280  -6.944  0.00  0.00     0.169 HD
BRANCH  13  15
ATOM     15  C   UNL d   1      30.556 -13.664  -7.141  0.00  0.00     0.068 A 
ATOM     16  C   UNL d   1      31.042 -12.376  -7.448  0.00  0.00     0.032 A 
ATOM     17  C   UNL d   1      32.243 -12.193  -8.145  0.00  0.00     0.002 A 
ATOM     18  C   UNL d   1      32.989 -13.299  -8.525  0.00  0.00     0.003 A 
ATOM     19  C   UNL d   1      32.499 -14.580  -8.262  0.00  0.00     0.039 A 
ATOM     20  C   UNL d   1      31.276 -14.789  -7.592  0.00  0.00     0.095 A 
BRANCH  20  21
ATOM     21  O   UNL d   1      30.949 -16.122  -7.570  0.00  0.00    -0.354 OA
ATOM     22  C   UNL d   1      31.454 -16.964  -6.553  0.00  0.00     0.210 C 
ENDBRANCH  20  21
ENDBRANCH  13  15
ENDBRANCH   8  11
ENDBRANCH   3   5
BRANCH   1  23
ATOM     23  C   UNL d   1      23.394 -17.218  -1.185  0.00  0.00     0.143 C 
ATOM     24  C   UNL d   1      22.677 -16.048  -0.513  0.00  0.00     0.031 C 
BRANCH  23  25
ATOM     25  S   UNL d   1      22.288 -18.448  -1.996  0.00  0.00    -0.078 SA
BRANCH  25  26
ATOM     26  C   UNL d   1      21.191 -19.070  -0.800  0.00  0.00     0.168 A 
ATOM     27  N   UNL d   1      19.905 -19.293  -0.895  0.00  0.00    -0.223 NA
ATOM     28  C   UNL d   1      19.523 -19.820   0.316  0.00  0.00     0.086 A 
ATOM     29  C   UNL d   1      18.255 -20.224   0.763  0.00  0.00     0.037 A 
ATOM     30  C   UNL d   1      20.612 -19.936   1.172  0.00  0.00     0.066 A 
ATOM     31  C   UNL d   1      18.122 -20.753   2.058  0.00  0.00     0.039 A 
ATOM     32  C   UNL d   1      19.235 -20.898   2.890  0.00  0.00     0.071 A 
ATOM     33  C   UNL d   1      20.505 -20.466   2.469  0.00  0.00     0.068 A 
ATOM     34  N   UNL d   1      21.663 -19.433   0.437  0.00  0.00    -0.333 N 
ATOM     35  H   UNL d   1      22.619 -19.350   0.741  0.00  0.00     0.168 HD
BRANCH  32  36
ATOM     36  O   UNL d   1      19.155 -21.381   4.176  0.00  0.00    -0.351 OA
BRANCH  36  37
ATOM     37  C   UNL d   1      19.536 -20.450   5.198  0.00  0.00     0.171 C 
ATOM     38  C   UNL d   1      18.456 -20.433   6.270  0.00  0.00     0.034 C 
ENDBRANCH  36  37
ENDBRANCH  32  36
ENDBRANCH  25  26
ENDBRANCH  23  25
ENDBRANCH   1  23
TORSDOF 9
ENDMDL
