MODEL 1
REMARK VINA RESULT:   -30.004      0.000      0.000
REMARK INTER + INTRA:         -32.110
REMARK INTER:                 -31.496
REMARK INTRA:                  -0.614
REMARK CONF_INDEPENDENT:        1.492
REMARK UNBOUND:                -0.614
REMARK  5 active torsions:
REMARK  status: ('A' for Active; 'I' for Inactive)
REMARK    1  A    between atoms: O_2  and  C_3 
REMARK       I    between atoms: C_3  and  N_5 
REMARK    2  A    between atoms: N_5  and  C_6 
REMARK    3  A    between atoms: C_9  and  C_10 
REMARK    4  A    between atoms: C_10  and  N_11 
REMARK       I    between atoms: N_11  and  C_12 
REMARK       I    between atoms: C_12  and  N_14 
REMARK    5  A    between atoms: N_14  and  C_15 
ROOT
ATOM      1  C   UNL d   1      26.123 -17.429   0.439  0.00  0.00     0.162 C 
ENDROOT
BRANCH   1   2
ATOM      2  C   UNL d   1      26.578 -16.717  -0.830  0.00  0.00    -0.040 A 
ATOM      3  C   UNL d   1      27.941 -16.696  -1.205  0.00  0.00     0.011 A 
ATOM      4  C   UNL d   1      28.392 -15.926  -2.305  0.00  0.00     0.030 A 
ATOM      5  C   UNL d   1      27.483 -15.189  -3.068  0.00  0.00     0.036 A 
ATOM      6  C   UNL d   1      26.136 -15.254  -2.729  0.00  0.00     0.030 A 
ATOM      7  C   UNL d   1      25.692 -16.012  -1.646  0.00  0.00     0.011 A 
BRANCH   5   8
ATOM      8  N   UNL d   1      27.881 -14.426  -4.191  0.00  0.00    -0.303 N 
ATOM      9  C   UNL d   1      27.473 -14.713  -5.478  0.00  0.00     0.364 C 
ATOM     10  O   UNL d   1      26.649 -15.575  -5.791  0.00  0.00    -0.238 OA
ATOM     11  H   UNL d   1      28.433 -13.590  -4.052  0.00  0.00     0.171 HD
BRANCH   9  12
ATOM     12  O   UNL d   1      28.054 -13.889  -6.396  0.00  0.00    -0.309 OA
ATOM     13  C   UNL d   1      29.308 -14.392  -6.891  0.00  0.00     0.215 C 
ENDBRANCH   9  12
ENDBRANCH   5   8
ENDBRANCH   1   2
BRANCH   1  14
ATOM     14  N   UNL d   1      25.124 -18.490   0.256  0.00  0.00    -0.339 N 
ATOM     15  C   UNL d   1      23.797 -18.201   0.027  0.00  0.00     0.321 C 
ATOM     16  O   UNL d   1      23.388 -17.046   0.007  0.00  0.00    -0.247 OA
ATOM     17  N   UNL d   1      23.007 -19.336  -0.121  0.00  0.00    -0.306 N 
ATOM     18  H   UNL d   1      23.365 -20.220   0.211  0.00  0.00     0.171 HD
ATOM     19  H   UNL d   1      25.414 -19.447   0.178  0.00  0.00     0.164 HD
BRANCH  17  20
ATOM     20  C   UNL d   1      21.623 -19.230  -0.231  0.00  0.00     0.072 A 
ATOM     21  C   UNL d   1      20.845 -18.374  -1.046  0.00  0.00     0.169 A 
ATOM     22  N   UNL d   1      19.530 -18.577  -0.900  0.00  0.00    -0.185 NA
ATOM     23  N   UNL d   1      19.465 -19.552   0.024  0.00  0.00    -0.287 N 
ATOM     24  C   UNL d   1      20.690 -19.959   0.467  0.00  0.00     0.140 A 
ATOM     25  H   UNL d   1      18.552 -19.888   0.314  0.00  0.00     0.188 HD
ENDBRANCH  17  20
ENDBRANCH   1  14
TORSDOF 5
ENDMDL
MODEL 2
REMARK VINA RESULT:   -29.690      1.715      1.777
REMARK INTER + INTRA:         -31.790
REMARK INTER:                 -31.181
REMARK INTRA:                  -0.608
REMARK CONF_INDEPENDENT:        1.492
REMARK UNBOUND:                -0.608
REMARK  5 active torsions:
REMARK  status: ('A' for Active; 'I' for Inactive)
REMARK    1  A    between atoms: O_2  and  C_3 
REMARK       I    between atoms: C_3  and  N_5 
REMARK    2  A    between atoms: N_5  and  C_6 
REMARK    3  A    between atoms: C_9  and  C_10 
REMARK    4  A    between atoms: C_10  and  N_11 
REMARK       I    between atoms: N_11  and  C_12 
REMARK       I    between atoms: C_12  and  N_14 
REMARK    5  A    between atoms: N_14  and  C_15 
ROOT
ATOM      1  C   UNL d   1      26.158 -17.541   0.537  0.00  0.00     0.162 C 
ENDROOT
BRANCH   1   2
ATOM      2  C   UNL d   1      26.340 -16.518  -0.578  0.00  0.00    -0.040 A 
ATOM      3  C   UNL d   1      26.993 -15.288  -0.339  0.00  0.00     0.011 A 
ATOM      4  C   UNL d   1      27.049 -14.276  -1.329  0.00  0.00     0.030 A 
ATOM      5  C   UNL d   1      26.477 -14.489  -2.586  0.00  0.00     0.036 A 
ATOM      6  C   UNL d   1      25.881 -15.721  -2.836  0.00  0.00     0.030 A 
ATOM      7  C   UNL d   1      25.827 -16.717  -1.861  0.00  0.00     0.011 A 
BRANCH   5   8
ATOM      8  N   UNL d   1      26.529 -13.520  -3.615  0.00  0.00    -0.303 N 
ATOM      9  C   UNL d   1      25.480 -13.285  -4.480  0.00  0.00     0.364 C 
ATOM     10  O   UNL d   1      24.360 -13.794  -4.400  0.00  0.00    -0.238 OA
ATOM     11  H   UNL d   1      27.338 -12.917  -3.689  0.00  0.00     0.171 HD
BRANCH   9  12
ATOM     12  O   UNL d   1      25.799 -12.365  -5.435  0.00  0.00    -0.309 OA
ATOM     13  C   UNL d   1      26.073 -11.061  -4.893  0.00  0.00     0.215 C 
ENDBRANCH   9  12
ENDBRANCH   5   8
ENDBRANCH   1   2
BRANCH   1  14
ATOM     14  N   UNL d   1      25.147 -18.579   0.297  0.00  0.00    -0.339 N 
ATOM     15  C   UNL d   1      23.819 -18.262   0.106  0.00  0.00     0.321 C 
ATOM     16  O   UNL d   1      23.422 -17.104   0.169  0.00  0.00    -0.247 OA
ATOM     17  N   UNL d   1      23.016 -19.378  -0.106  0.00  0.00    -0.306 N 
ATOM     18  H   UNL d   1      23.369 -20.285   0.160  0.00  0.00     0.171 HD
ATOM     19  H   UNL d   1      25.426 -19.530   0.152  0.00  0.00     0.164 HD
BRANCH  17  20
ATOM     20  C   UNL d   1      21.632 -19.252  -0.191  0.00  0.00     0.072 A 
ATOM     21  C   UNL d   1      20.846 -18.521  -1.114  0.00  0.00     0.169 A 
ATOM     22  N   UNL d   1      19.533 -18.658  -0.895  0.00  0.00    -0.185 NA
ATOM     23  N   UNL d   1      19.477 -19.463   0.181  0.00  0.00    -0.287 N 
ATOM     24  C   UNL d   1      20.707 -19.826   0.648  0.00  0.00     0.140 A 
ATOM     25  H   UNL d   1      18.568 -19.719   0.551  0.00  0.00     0.188 HD
ENDBRANCH  17  20
ENDBRANCH   1  14
TORSDOF 5
ENDMDL
MODEL 3
REMARK VINA RESULT:   -29.651      2.061      2.529
REMARK INTER + INTRA:         -31.779
REMARK INTER:                 -31.143
REMARK INTRA:                  -0.636
REMARK CONF_INDEPENDENT:        1.492
REMARK UNBOUND:                -0.636
REMARK  5 active torsions:
REMARK  status: ('A' for Active; 'I' for Inactive)
REMARK    1  A    between atoms: O_2  and  C_3 
REMARK       I    between atoms: C_3  and  N_5 
REMARK    2  A    between atoms: N_5  and  C_6 
REMARK    3  A    between atoms: C_9  and  C_10 
REMARK    4  A    between atoms: C_10  and  N_11 
REMARK       I    between atoms: N_11  and  C_12 
REMARK       I    between atoms: C_12  and  N_14 
REMARK    5  A    between atoms: N_14  and  C_15 
ROOT
ATOM      1  C   UNL d   1      26.034 -17.399  -0.872  0.00  0.00     0.162 C 
ENDROOT
BRANCH   1   2
ATOM      2  C   UNL d   1      25.847 -16.220  -1.820  0.00  0.00    -0.040 A 
ATOM      3  C   UNL d   1      24.651 -15.466  -1.818  0.00  0.00     0.011 A 
ATOM      4  C   UNL d   1      24.414 -14.456  -2.783  0.00  0.00     0.030 A 
ATOM      5  C   UNL d   1      25.382 -14.162  -3.747  0.00  0.00     0.036 A 
ATOM      6  C   UNL d   1      26.579 -14.869  -3.713  0.00  0.00     0.030 A 
ATOM      7  C   UNL d   1      26.812 -15.864  -2.762  0.00  0.00     0.011 A 
BRANCH   5   8
ATOM      8  N   UNL d   1      25.202 -13.146  -4.715  0.00  0.00    -0.303 N 
ATOM      9  C   UNL d   1      25.936 -11.977  -4.723  0.00  0.00     0.364 C 
ATOM     10  O   UNL d   1      26.886 -11.725  -3.979  0.00  0.00    -0.238 OA
ATOM     11  H   UNL d   1      24.560 -13.300  -5.482  0.00  0.00     0.171 HD
BRANCH   9  12
ATOM     12  O   UNL d   1      25.524 -11.121  -5.700  0.00  0.00    -0.309 OA
ATOM     13  C   UNL d   1      26.377  -9.969  -5.837  0.00  0.00     0.215 C 
ENDBRANCH   9  12
ENDBRANCH   5   8
ENDBRANCH   1   2
BRANCH   1  14
ATOM     14  N   UNL d   1      24.872 -17.746  -0.043  0.00  0.00    -0.339 N 
ATOM     15  C   UNL d   1      23.732 -18.292  -0.591  0.00  0.00     0.321 C 
ATOM     16  O   UNL d   1      23.625 -18.473  -1.799  0.00  0.00    -0.247 OA
ATOM     17  N   UNL d   1      22.742 -18.553   0.351  0.00  0.00    -0.306 N 
ATOM     18  H   UNL d   1      22.800 -18.097   1.250  0.00  0.00     0.171 HD
ATOM     19  H   UNL d   1      24.934 -17.699   0.956  0.00  0.00     0.164 HD
BRANCH  17  20
ATOM     20  C   UNL d   1      21.480 -18.986  -0.044  0.00  0.00     0.072 A 
ATOM     21  C   UNL d   1      20.757 -18.703  -1.227  0.00  0.00     0.169 A 
ATOM     22  N   UNL d   1      19.572 -19.325  -1.270  0.00  0.00    -0.185 NA
ATOM     23  N   UNL d   1      19.529 -19.994  -0.104  0.00  0.00    -0.287 N 
ATOM     24  C   UNL d   1      20.637 -19.804   0.669  0.00  0.00     0.140 A 
ATOM     25  H   UNL d   1      18.709 -20.554   0.106  0.00  0.00     0.188 HD
ENDBRANCH  17  20
ENDBRANCH   1  14
TORSDOF 5
ENDMDL
MODEL 4
REMARK VINA RESULT:   -28.688      1.521      1.612
REMARK INTER + INTRA:         -30.663
REMARK INTER:                 -30.180
REMARK INTRA:                  -0.484
REMARK CONF_INDEPENDENT:        1.492
REMARK UNBOUND:                -0.484
REMARK  5 active torsions:
REMARK  status: ('A' for Active; 'I' for Inactive)
REMARK    1  A    between atoms: O_2  and  C_3 
REMARK       I    between atoms: C_3  and  N_5 
REMARK    2  A    between atoms: N_5  and  C_6 
REMARK    3  A    between atoms: C_9  and  C_10 
REMARK    4  A    between atoms: C_10  and  N_11 
REMARK       I    between atoms: N_11  and  C_12 
REMARK       I    between atoms: C_12  and  N_14 
REMARK    5  A    between atoms: N_14  and  C_15 
ROOT
ATOM      1  C   UNL d   1      25.379 -15.836  -0.295  0.00  0.00     0.162 C 
ENDROOT
BRANCH   1   2
ATOM      2  C   UNL d   1      26.159 -15.787  -1.604  0.00  0.00    -0.040 A 
ATOM      3  C   UNL d   1      27.547 -16.049  -1.635  0.00  0.00     0.011 A 
ATOM      4  C   UNL d   1      28.305 -15.875  -2.819  0.00  0.00     0.030 A 
ATOM      5  C   UNL d   1      27.681 -15.465  -4.000  0.00  0.00     0.036 A 
ATOM      6  C   UNL d   1      26.306 -15.259  -3.979  0.00  0.00     0.030 A 
ATOM      7  C   UNL d   1      25.560 -15.431  -2.813  0.00  0.00     0.011 A 
BRANCH   5   8
ATOM      8  N   UNL d   1      28.390 -15.302  -5.213  0.00  0.00    -0.303 N 
ATOM      9  C   UNL d   1      29.619 -15.884  -5.451  0.00  0.00     0.364 C 
ATOM     10  O   UNL d   1      30.187 -16.684  -4.703  0.00  0.00    -0.238 OA
ATOM     11  H   UNL d   1      27.958 -14.797  -5.976  0.00  0.00     0.171 HD
BRANCH   9  12
ATOM     12  O   UNL d   1      30.137 -15.514  -6.656  0.00  0.00    -0.309 OA
ATOM     13  C   UNL d   1      30.884 -16.565  -7.295  0.00  0.00     0.215 C 
ENDBRANCH   9  12
ENDBRANCH   5   8
ENDBRANCH   1   2
BRANCH   1  14
ATOM     14  N   UNL d   1      24.739 -17.119   0.023  0.00  0.00    -0.339 N 
ATOM     15  C   UNL d   1      23.469 -17.422  -0.418  0.00  0.00     0.321 C 
ATOM     16  O   UNL d   1      22.806 -16.615  -1.061  0.00  0.00    -0.247 OA
ATOM     17  N   UNL d   1      23.036 -18.681  -0.017  0.00  0.00    -0.306 N 
ATOM     18  H   UNL d   1      23.514 -19.135   0.747  0.00  0.00     0.171 HD
ATOM     19  H   UNL d   1      25.264 -17.847   0.471  0.00  0.00     0.164 HD
BRANCH  17  20
ATOM     20  C   UNL d   1      21.731 -19.097  -0.268  0.00  0.00     0.072 A 
ATOM     21  C   UNL d   1      20.825 -18.676  -1.270  0.00  0.00     0.169 A 
ATOM     22  N   UNL d   1      19.656 -19.325  -1.214  0.00  0.00    -0.185 NA
ATOM     23  N   UNL d   1      19.806 -20.151  -0.163  0.00  0.00    -0.287 N 
ATOM     24  C   UNL d   1      21.022 -20.034   0.445  0.00  0.00     0.140 A 
ATOM     25  H   UNL d   1      19.036 -20.761   0.090  0.00  0.00     0.188 HD
ENDBRANCH  17  20
ENDBRANCH   1  14
TORSDOF 5
ENDMDL
MODEL 5
REMARK VINA RESULT:   -28.380      3.715      4.772
REMARK INTER + INTRA:         -30.383
REMARK INTER:                 -29.871
REMARK INTRA:                  -0.512
REMARK CONF_INDEPENDENT:        1.492
REMARK UNBOUND:                -0.512
REMARK  5 active torsions:
REMARK  status: ('A' for Active; 'I' for Inactive)
REMARK    1  A    between atoms: O_2  and  C_3 
REMARK       I    between atoms: C_3  and  N_5 
REMARK    2  A    between atoms: N_5  and  C_6 
REMARK    3  A    between atoms: C_9  and  C_10 
REMARK    4  A    between atoms: C_10  and  N_11 
REMARK       I    between atoms: N_11  and  C_12 
REMARK       I    between atoms: C_12  and  N_14 
REMARK    5  A    between atoms: N_14  and  C_15 
ROOT
ATOM      1  C   UNL d   1      26.026 -17.311  -1.043  0.00  0.00     0.162 C 
ENDROOT
BRANCH   1   2
ATOM      2  C   UNL d   1      26.593 -16.098  -0.316  0.00  0.00    -0.040 A 
ATOM      3  C   UNL d   1      27.409 -16.249   0.828  0.00  0.00     0.011 A 
ATOM      4  C   UNL d   1      27.829 -15.130   1.589  0.00  0.00     0.030 A 
ATOM      5  C   UNL d   1      27.467 -13.838   1.200  0.00  0.00     0.036 A 
ATOM      6  C   UNL d   1      26.708 -13.689   0.043  0.00  0.00     0.030 A 
ATOM      7  C   UNL d   1      26.295 -14.791  -0.705  0.00  0.00     0.011 A 
BRANCH   5   8
ATOM      8  N   UNL d   1      27.883 -12.689   1.911  0.00  0.00    -0.303 N 
ATOM      9  C   UNL d   1      27.065 -11.598   2.122  0.00  0.00     0.364 C 
ATOM     10  O   UNL d   1      25.870 -11.532   1.824  0.00  0.00    -0.238 OA
ATOM     11  H   UNL d   1      28.794 -12.680   2.350  0.00  0.00     0.171 HD
BRANCH   9  12
ATOM     12  O   UNL d   1      27.716 -10.584   2.759  0.00  0.00    -0.309 OA
ATOM     13  C   UNL d   1      27.870 -10.812   4.172  0.00  0.00     0.215 C 
ENDBRANCH   9  12
ENDBRANCH   5   8
ENDBRANCH   1   2
BRANCH   1  14
ATOM     14  N   UNL d   1      25.050 -18.111  -0.292  0.00  0.00    -0.339 N 
ATOM     15  C   UNL d   1      23.743 -18.232  -0.709  0.00  0.00     0.321 C 
ATOM     16  O   UNL d   1      23.330 -17.645  -1.703  0.00  0.00    -0.247 OA
ATOM     17  N   UNL d   1      22.972 -19.029   0.132  0.00  0.00    -0.306 N 
ATOM     18  H   UNL d   1      23.308 -19.212   1.066  0.00  0.00     0.171 HD
ATOM     19  H   UNL d   1      25.350 -18.679   0.478  0.00  0.00     0.164 HD
BRANCH  17  20
ATOM     20  C   UNL d   1      21.600 -19.157  -0.070  0.00  0.00     0.072 A 
ATOM     21  C   UNL d   1      20.858 -19.133  -1.274  0.00  0.00     0.169 A 
ATOM     22  N   UNL d   1      19.546 -19.314  -1.076  0.00  0.00    -0.185 NA
ATOM     23  N   UNL d   1      19.446 -19.434   0.260  0.00  0.00    -0.287 N 
ATOM     24  C   UNL d   1      20.644 -19.326   0.903  0.00  0.00     0.140 A 
ATOM     25  H   UNL d   1      18.528 -19.579   0.668  0.00  0.00     0.188 HD
ENDBRANCH  17  20
ENDBRANCH   1  14
TORSDOF 5
ENDMDL
MODEL 6
REMARK VINA RESULT:   -28.339      3.799      5.347
REMARK INTER + INTRA:         -30.406
REMARK INTER:                 -29.831
REMARK INTRA:                  -0.576
REMARK CONF_INDEPENDENT:        1.492
REMARK UNBOUND:                -0.576
REMARK  5 active torsions:
REMARK  status: ('A' for Active; 'I' for Inactive)
REMARK    1  A    between atoms: O_2  and  C_3 
REMARK       I    between atoms: C_3  and  N_5 
REMARK    2  A    between atoms: N_5  and  C_6 
REMARK    3  A    between atoms: C_9  and  C_10 
REMARK    4  A    between atoms: C_10  and  N_11 
REMARK       I    between atoms: N_11  and  C_12 
REMARK       I    between atoms: C_12  and  N_14 
REMARK    5  A    between atoms: N_14  and  C_15 
ROOT
ATOM      1  C   UNL d   1      26.030 -17.245  -1.071  0.00  0.00     0.162 C 
ENDROOT
BRANCH   1   2
ATOM      2  C   UNL d   1      26.491 -16.130  -0.139  0.00  0.00    -0.040 A 
ATOM      3  C   UNL d   1      25.880 -14.856  -0.170  0.00  0.00     0.011 A 
ATOM      4  C   UNL d   1      26.387 -13.775   0.593  0.00  0.00     0.030 A 
ATOM      5  C   UNL d   1      27.496 -13.959   1.424  0.00  0.00     0.036 A 
ATOM      6  C   UNL d   1      28.062 -15.228   1.492  0.00  0.00     0.030 A 
ATOM      7  C   UNL d   1      27.562 -16.292   0.740  0.00  0.00     0.011 A 
BRANCH   5   8
ATOM      8  N   UNL d   1      28.023 -12.919   2.224  0.00  0.00    -0.303 N 
ATOM      9  C   UNL d   1      27.792 -12.824   3.581  0.00  0.00     0.364 C 
ATOM     10  O   UNL d   1      27.207 -13.665   4.268  0.00  0.00    -0.238 OA
ATOM     11  H   UNL d   1      28.657 -12.248   1.810  0.00  0.00     0.171 HD
BRANCH   9  12
ATOM     12  O   UNL d   1      28.335 -11.693   4.115  0.00  0.00    -0.309 OA
ATOM     13  C   UNL d   1      28.007 -11.512   5.505  0.00  0.00     0.215 C 
ENDBRANCH   9  12
ENDBRANCH   5   8
ENDBRANCH   1   2
BRANCH   1  14
ATOM     14  N   UNL d   1      25.088 -18.213  -0.495  0.00  0.00    -0.339 N 
ATOM     15  C   UNL d   1      23.756 -18.222  -0.849  0.00  0.00     0.321 C 
ATOM     16  O   UNL d   1      23.295 -17.396  -1.628  0.00  0.00    -0.247 OA
ATOM     17  N   UNL d   1      23.024 -19.211  -0.199  0.00  0.00    -0.306 N 
ATOM     18  H   UNL d   1      23.412 -19.631   0.633  0.00  0.00     0.171 HD
ATOM     19  H   UNL d   1      25.424 -18.962   0.080  0.00  0.00     0.164 HD
BRANCH  17  20
ATOM     20  C   UNL d   1      21.641 -19.282  -0.342  0.00  0.00     0.072 A 
ATOM     21  C   UNL d   1      20.837 -19.046  -1.483  0.00  0.00     0.169 A 
ATOM     22  N   UNL d   1      19.534 -19.237  -1.245  0.00  0.00    -0.185 NA
ATOM     23  N   UNL d   1      19.501 -19.578   0.056  0.00  0.00    -0.287 N 
ATOM     24  C   UNL d   1      20.733 -19.597   0.641  0.00  0.00     0.140 A 
ATOM     25  H   UNL d   1      18.602 -19.775   0.484  0.00  0.00     0.188 HD
ENDBRANCH  17  20
ENDBRANCH   1  14
TORSDOF 5
ENDMDL
MODEL 7
REMARK VINA RESULT:   -28.308      2.108      2.427
REMARK INTER + INTRA:         -30.292
REMARK INTER:                 -29.800
REMARK INTRA:                  -0.493
REMARK CONF_INDEPENDENT:        1.492
REMARK UNBOUND:                -0.493
REMARK  5 active torsions:
REMARK  status: ('A' for Active; 'I' for Inactive)
REMARK    1  A    between atoms: O_2  and  C_3 
REMARK       I    between atoms: C_3  and  N_5 
REMARK    2  A    between atoms: N_5  and  C_6 
REMARK    3  A    between atoms: C_9  and  C_10 
REMARK    4  A    between atoms: C_10  and  N_11 
REMARK       I    between atoms: N_11  and  C_12 
REMARK       I    between atoms: C_12  and  N_14 
REMARK    5  A    between atoms: N_14  and  C_15 
ROOT
ATOM      1  C   UNL d   1      26.843 -17.838  -0.382  0.00  0.00     0.162 C 
ENDROOT
BRANCH   1   2
ATOM      2  C   UNL d   1      26.782 -16.398  -0.880  0.00  0.00    -0.040 A 
ATOM      3  C   UNL d   1      26.789 -16.104  -2.262  0.00  0.00     0.011 A 
ATOM      4  C   UNL d   1      26.869 -14.771  -2.733  0.00  0.00     0.030 A 
ATOM      5  C   UNL d   1      26.913 -13.706  -1.829  0.00  0.00     0.036 A 
ATOM      6  C   UNL d   1      26.853 -13.996  -0.470  0.00  0.00     0.030 A 
ATOM      7  C   UNL d   1      26.774 -15.309  -0.007  0.00  0.00     0.011 A 
BRANCH   5   8
ATOM      8  N   UNL d   1      26.967 -12.357  -2.251  0.00  0.00    -0.303 N 
ATOM      9  C   UNL d   1      26.896 -11.980  -3.576  0.00  0.00     0.364 C 
ATOM     10  O   UNL d   1      26.673 -12.737  -4.524  0.00  0.00    -0.238 OA
ATOM     11  H   UNL d   1      26.988 -11.621  -1.557  0.00  0.00     0.171 HD
BRANCH   9  12
ATOM     12  O   UNL d   1      27.053 -10.635  -3.736  0.00  0.00    -0.309 OA
ATOM     13  C   UNL d   1      26.411 -10.129  -4.919  0.00  0.00     0.215 C 
ENDBRANCH   9  12
ENDBRANCH   5   8
ENDBRANCH   1   2
BRANCH   1  14
ATOM     14  N   UNL d   1      25.597 -18.375   0.180  0.00  0.00    -0.339 N 
ATOM     15  C   UNL d   1      24.409 -18.320  -0.516  0.00  0.00     0.321 C 
ATOM     16  O   UNL d   1      24.336 -17.783  -1.616  0.00  0.00    -0.247 OA
ATOM     17  N   UNL d   1      23.341 -18.879   0.179  0.00  0.00    -0.306 N 
ATOM     18  H   UNL d   1      23.430 -19.012   1.176  0.00  0.00     0.171 HD
ATOM     19  H   UNL d   1      25.614 -18.898   1.035  0.00  0.00     0.164 HD
BRANCH  17  20
ATOM     20  C   UNL d   1      22.045 -18.795  -0.322  0.00  0.00     0.072 A 
ATOM     21  C   UNL d   1      21.034 -19.783  -0.383  0.00  0.00     0.169 A 
ATOM     22  N   UNL d   1      19.895 -19.325  -0.915  0.00  0.00    -0.185 NA
ATOM     23  N   UNL d   1      20.182 -18.045  -1.213  0.00  0.00    -0.287 N 
ATOM     24  C   UNL d   1      21.461 -17.691  -0.896  0.00  0.00     0.140 A 
ATOM     25  H   UNL d   1      19.462 -17.471  -1.640  0.00  0.00     0.188 HD
ENDBRANCH  17  20
ENDBRANCH   1  14
TORSDOF 5
ENDMDL
MODEL 8
REMARK VINA RESULT:   -28.026      3.534      4.269
REMARK INTER + INTRA:         -30.027
REMARK INTER:                 -29.518
REMARK INTRA:                  -0.509
REMARK CONF_INDEPENDENT:        1.492
REMARK UNBOUND:                -0.509
REMARK  5 active torsions:
REMARK  status: ('A' for Active; 'I' for Inactive)
REMARK    1  A    between atoms: O_2  and  C_3 
REMARK       I    between atoms: C_3  and  N_5 
REMARK    2  A    between atoms: N_5  and  C_6 
REMARK    3  A    between atoms: C_9  and  C_10 
REMARK    4  A    between atoms: C_10  and  N_11 
REMARK       I    between atoms: N_11  and  C_12 
REMARK       I    between atoms: C_12  and  N_14 
REMARK    5  A    between atoms: N_14  and  C_15 
ROOT
ATOM      1  C   UNL d   1      25.488 -15.948  -0.559  0.00  0.00     0.162 C 
ENDROOT
BRANCH   1   2
ATOM      2  C   UNL d   1      26.980 -15.898  -0.248  0.00  0.00    -0.040 A 
ATOM      3  C   UNL d   1      27.841 -16.950  -0.637  0.00  0.00     0.011 A 
ATOM      4  C   UNL d   1      29.200 -16.978  -0.237  0.00  0.00     0.030 A 
ATOM      5  C   UNL d   1      29.729 -15.939   0.533  0.00  0.00     0.036 A 
ATOM      6  C   UNL d   1      28.893 -14.879   0.869  0.00  0.00     0.030 A 
ATOM      7  C   UNL d   1      27.555 -14.852   0.475  0.00  0.00     0.011 A 
BRANCH   5   8
ATOM      8  N   UNL d   1      31.085 -15.909   0.935  0.00  0.00    -0.303 N 
ATOM      9  C   UNL d   1      32.122 -15.655   0.061  0.00  0.00     0.364 C 
ATOM     10  O   UNL d   1      31.997 -15.325  -1.121  0.00  0.00    -0.238 OA
ATOM     11  H   UNL d   1      31.313 -16.006   1.915  0.00  0.00     0.171 HD
BRANCH   9  12
ATOM     12  O   UNL d   1      33.339 -15.762   0.665  0.00  0.00    -0.309 OA
ATOM     13  C   UNL d   1      33.528 -14.808   1.727  0.00  0.00     0.215 C 
ENDBRANCH   9  12
ENDBRANCH   5   8
ENDBRANCH   1   2
BRANCH   1  14
ATOM     14  N   UNL d   1      24.781 -17.156  -0.115  0.00  0.00    -0.339 N 
ATOM     15  C   UNL d   1      23.475 -17.402  -0.480  0.00  0.00     0.321 C 
ATOM     16  O   UNL d   1      22.838 -16.603  -1.156  0.00  0.00    -0.247 OA
ATOM     17  N   UNL d   1      22.979 -18.595   0.036  0.00  0.00    -0.306 N 
ATOM     18  H   UNL d   1      23.460 -19.022   0.814  0.00  0.00     0.171 HD
ATOM     19  H   UNL d   1      25.276 -17.882   0.367  0.00  0.00     0.164 HD
BRANCH  17  20
ATOM     20  C   UNL d   1      21.639 -18.938  -0.128  0.00  0.00     0.072 A 
ATOM     21  C   UNL d   1      20.830 -18.888  -1.288  0.00  0.00     0.169 A 
ATOM     22  N   UNL d   1      19.584 -19.325  -1.066  0.00  0.00    -0.185 NA
ATOM     23  N   UNL d   1      19.590 -19.637   0.242  0.00  0.00    -0.287 N 
ATOM     24  C   UNL d   1      20.790 -19.403   0.847  0.00  0.00     0.140 A 
ATOM     25  H   UNL d   1      18.739 -19.998   0.660  0.00  0.00     0.188 HD
ENDBRANCH  17  20
ENDBRANCH   1  14
TORSDOF 5
ENDMDL
MODEL 9
REMARK VINA RESULT:   -27.577      3.347      3.958
REMARK INTER + INTRA:         -29.602
REMARK INTER:                 -29.068
REMARK INTRA:                  -0.534
REMARK CONF_INDEPENDENT:        1.492
REMARK UNBOUND:                -0.534
REMARK  5 active torsions:
REMARK  status: ('A' for Active; 'I' for Inactive)
REMARK    1  A    between atoms: O_2  and  C_3 
REMARK       I    between atoms: C_3  and  N_5 
REMARK    2  A    between atoms: N_5  and  C_6 
REMARK    3  A    between atoms: C_9  and  C_10 
REMARK    4  A    between atoms: C_10  and  N_11 
REMARK       I    between atoms: N_11  and  C_12 
REMARK       I    between atoms: C_12  and  N_14 
REMARK    5  A    between atoms: N_14  and  C_15 
ROOT
ATOM      1  C   UNL d   1      25.715 -16.172  -0.836  0.00  0.00     0.162 C 
ENDROOT
BRANCH   1   2
ATOM      2  C   UNL d   1      27.228 -16.312  -0.959  0.00  0.00    -0.040 A 
ATOM      3  C   UNL d   1      27.851 -16.399  -2.225  0.00  0.00     0.011 A 
ATOM      4  C   UNL d   1      29.238 -16.663  -2.349  0.00  0.00     0.030 A 
ATOM      5  C   UNL d   1      30.030 -16.815  -1.208  0.00  0.00     0.036 A 
ATOM      6  C   UNL d   1      29.424 -16.676   0.036  0.00  0.00     0.030 A 
ATOM      7  C   UNL d   1      28.058 -16.415   0.157  0.00  0.00     0.011 A 
BRANCH   5   8
ATOM      8  N   UNL d   1      31.422 -17.054  -1.280  0.00  0.00    -0.303 N 
ATOM      9  C   UNL d   1      31.964 -18.320  -1.374  0.00  0.00     0.364 C 
ATOM     10  O   UNL d   1      31.322 -19.364  -1.514  0.00  0.00    -0.238 OA
ATOM     11  H   UNL d   1      32.058 -16.269  -1.336  0.00  0.00     0.171 HD
BRANCH   9  12
ATOM     12  O   UNL d   1      33.327 -18.298  -1.345  0.00  0.00    -0.309 OA
ATOM     13  C   UNL d   1      33.924 -19.349  -2.125  0.00  0.00     0.215 C 
ENDBRANCH   9  12
ENDBRANCH   5   8
ENDBRANCH   1   2
BRANCH   1  14
ATOM     14  N   UNL d   1      24.993 -17.374  -0.399  0.00  0.00    -0.339 N 
ATOM     15  C   UNL d   1      23.642 -17.525  -0.620  0.00  0.00     0.321 C 
ATOM     16  O   UNL d   1      22.979 -16.644  -1.155  0.00  0.00    -0.247 OA
ATOM     17  N   UNL d   1      23.138 -18.728  -0.135  0.00  0.00    -0.306 N 
ATOM     18  H   UNL d   1      23.681 -19.238   0.547  0.00  0.00     0.171 HD
ATOM     19  H   UNL d   1      25.498 -18.159  -0.033  0.00  0.00     0.164 HD
BRANCH  17  20
ATOM     20  C   UNL d   1      21.771 -18.988  -0.160  0.00  0.00     0.072 A 
ATOM     21  C   UNL d   1      20.875 -19.004  -1.255  0.00  0.00     0.169 A 
ATOM     22  N   UNL d   1      19.626 -19.324  -0.895  0.00  0.00    -0.185 NA
ATOM     23  N   UNL d   1      19.719 -19.495   0.436  0.00  0.00    -0.287 N 
ATOM     24  C   UNL d   1      20.976 -19.285   0.921  0.00  0.00     0.140 A 
ATOM     25  H   UNL d   1      18.883 -19.746   0.954  0.00  0.00     0.188 HD
ENDBRANCH  17  20
ENDBRANCH   1  14
TORSDOF 5
ENDMDL
