MODEL 1
REMARK VINA RESULT:    -7.591      0.000      0.000
REMARK INTER + INTRA:         -10.044
REMARK INTER:                  -8.784
REMARK INTRA:                  -1.260
REMARK CONF_INDEPENDENT:        1.193
REMARK UNBOUND:                -1.260
REMARK  4 active torsions:
REMARK  status: ('A' for Active; 'I' for Inactive)
REMARK    1  A    between atoms: O_2  and  C_3 
REMARK    2  A    between atoms: C_9  and  N_10 
REMARK    3  A    between atoms: C_11  and  C_12 
REMARK    4  A    between atoms: C_12  and  C_13 
ROOT
ATOM      1  N   UNL d   1      27.044 -15.261  -3.726  0.00  0.00    -0.246 N 
ATOM      2  C   UNL d   1      26.077 -14.983  -2.829  0.00  0.00     0.139 A 
ATOM      3  N   UNL d   1      24.931 -14.631  -3.351  0.00  0.00    -0.156 NA
ATOM      4  N   UNL d   1      25.155 -14.683  -4.693  0.00  0.00    -0.226 N 
ATOM      5  C   UNL d   1      26.467 -15.062  -4.957  0.00  0.00     0.349 A 
ATOM      6  O   UNL d   1      26.946 -15.199  -6.076  0.00  0.00    -0.245 OA
ATOM      7  H   UNL d   1      24.456 -14.470  -5.392  0.00  0.00     0.194 HD
ENDROOT
BRANCH   2   8
ATOM      8  C   UNL d   1      26.323 -15.019  -1.343  0.00  0.00     0.117 C 
BRANCH   8   9
ATOM      9  C   UNL d   1      25.924 -16.313  -0.752  0.00  0.00    -0.043 A 
ATOM     10  C   UNL d   1      24.681 -16.775  -0.671  0.00  0.00    -0.005 A 
ATOM     11  C   UNL d   1      23.419 -16.233  -1.035  0.00  0.00     0.014 A 
ATOM     12  C   UNL d   1      24.834 -18.138  -0.143  0.00  0.00     0.038 A 
ATOM     13  C   UNL d   1      22.339 -17.011  -0.895  0.00  0.00     0.001 A 
ATOM     14  C   UNL d   1      22.448 -18.373  -0.394  0.00  0.00     0.002 A 
ATOM     15  C   UNL d   1      23.610 -18.950  -0.027  0.00  0.00     0.030 A 
ATOM     16  N   UNL d   1      26.054 -18.425   0.117  0.00  0.00    -0.385 N 
ATOM     17  C   UNL d   1      26.929 -17.281  -0.205  0.00  0.00     0.155 A 
ATOM     18  H   UNL d   1      26.370 -19.330   0.457  0.00  0.00     0.160 HD
ENDBRANCH   8   9
ENDBRANCH   2   8
BRANCH   1  19
ATOM     19  C   UNL d   1      28.399 -15.545  -3.502  0.00  0.00     0.079 A 
ATOM     20  C   UNL d   1      28.710 -16.537  -2.559  0.00  0.00     0.039 A 
ATOM     21  C   UNL d   1      30.036 -16.880  -2.290  0.00  0.00    -0.060 A 
ATOM     22  C   UNL d   1      31.057 -16.189  -2.947  0.00  0.00     0.009 A 
ATOM     23  C   UNL d   1      30.351 -17.968  -1.307  0.00  0.00     0.048 C 
ATOM     24  C   UNL d   1      30.760 -15.198  -3.885  0.00  0.00     0.039 A 
ATOM     25  C   UNL d   1      29.435 -14.892  -4.196  0.00  0.00     0.095 A 
BRANCH  25  26
ATOM     26  O   UNL d   1      29.127 -13.863  -5.051  0.00  0.00    -0.354 OA
ATOM     27  C   UNL d   1      29.614 -14.027  -6.389  0.00  0.00     0.210 C 
ENDBRANCH  25  26
ENDBRANCH   1  19
TORSDOF 4
ENDMDL
MODEL 2
REMARK VINA RESULT:    -7.507      2.399      6.135
REMARK INTER + INTRA:          -9.570
REMARK INTER:                  -8.700
REMARK INTRA:                  -0.870
REMARK CONF_INDEPENDENT:        1.193
REMARK UNBOUND:                -0.870
REMARK  4 active torsions:
REMARK  status: ('A' for Active; 'I' for Inactive)
REMARK    1  A    between atoms: O_2  and  C_3 
REMARK    2  A    between atoms: C_9  and  N_10 
REMARK    3  A    between atoms: C_11  and  C_12 
REMARK    4  A    between atoms: C_12  and  C_13 
ROOT
ATOM      1  N   UNL d   1      25.866 -15.082  -2.976  0.00  0.00    -0.246 N 
ATOM      2  C   UNL d   1      26.900 -14.789  -3.789  0.00  0.00     0.139 A 
ATOM      3  N   UNL d   1      26.599 -14.019  -4.801  0.00  0.00    -0.156 NA
ATOM      4  N   UNL d   1      25.267 -13.782  -4.645  0.00  0.00    -0.226 N 
ATOM      5  C   UNL d   1      24.780 -14.441  -3.521  0.00  0.00     0.349 A 
ATOM      6  O   UNL d   1      23.620 -14.401  -3.132  0.00  0.00    -0.245 OA
ATOM      7  H   UNL d   1      24.717 -13.206  -5.269  0.00  0.00     0.194 HD
ENDROOT
BRANCH   2   8
ATOM      8  C   UNL d   1      28.279 -15.358  -3.576  0.00  0.00     0.117 C 
BRANCH   8   9
ATOM      9  C   UNL d   1      28.994 -15.555  -4.853  0.00  0.00    -0.043 A 
ATOM     10  C   UNL d   1      29.700 -16.631  -5.186  0.00  0.00    -0.005 A 
ATOM     11  C   UNL d   1      30.030 -17.826  -4.493  0.00  0.00     0.014 A 
ATOM     12  C   UNL d   1      30.080 -16.398  -6.586  0.00  0.00     0.038 A 
ATOM     13  C   UNL d   1      30.704 -18.772  -5.160  0.00  0.00     0.001 A 
ATOM     14  C   UNL d   1      31.083 -18.590  -6.553  0.00  0.00     0.002 A 
ATOM     15  C   UNL d   1      30.806 -17.481  -7.270  0.00  0.00     0.030 A 
ATOM     16  N   UNL d   1      29.680 -15.259  -7.016  0.00  0.00    -0.385 N 
ATOM     17  C   UNL d   1      28.954 -14.538  -5.953  0.00  0.00     0.155 A 
ATOM     18  H   UNL d   1      29.814 -14.927  -7.968  0.00  0.00     0.160 HD
ENDBRANCH   8   9
ENDBRANCH   2   8
BRANCH   1  19
ATOM     19  C   UNL d   1      25.824 -15.967  -1.889  0.00  0.00     0.079 A 
ATOM     20  C   UNL d   1      24.780 -16.906  -1.852  0.00  0.00     0.039 A 
ATOM     21  C   UNL d   1      24.679 -17.825  -0.806  0.00  0.00    -0.060 A 
ATOM     22  C   UNL d   1      25.613 -17.771   0.230  0.00  0.00     0.009 A 
ATOM     23  C   UNL d   1      23.580 -18.845  -0.800  0.00  0.00     0.048 C 
ATOM     24  C   UNL d   1      26.654 -16.840   0.206  0.00  0.00     0.039 A 
ATOM     25  C   UNL d   1      26.790 -15.958  -0.865  0.00  0.00     0.095 A 
BRANCH  25  26
ATOM     26  O   UNL d   1      27.755 -14.981  -0.862  0.00  0.00    -0.354 OA
ATOM     27  C   UNL d   1      28.894 -15.266  -0.039  0.00  0.00     0.210 C 
ENDBRANCH  25  26
ENDBRANCH   1  19
TORSDOF 4
ENDMDL
MODEL 3
REMARK VINA RESULT:    -7.482      9.417     12.405
REMARK INTER + INTRA:          -9.722
REMARK INTER:                  -8.675
REMARK INTRA:                  -1.047
REMARK CONF_INDEPENDENT:        1.193
REMARK UNBOUND:                -1.047
REMARK  4 active torsions:
REMARK  status: ('A' for Active; 'I' for Inactive)
REMARK    1  A    between atoms: O_2  and  C_3 
REMARK    2  A    between atoms: C_9  and  N_10 
REMARK    3  A    between atoms: C_11  and  C_12 
REMARK    4  A    between atoms: C_12  and  C_13 
ROOT
ATOM      1  N   UNL d   1      31.750 -21.255   4.555  0.00  0.00    -0.246 N 
ATOM      2  C   UNL d   1      32.281 -21.437   5.781  0.00  0.00     0.139 A 
ATOM      3  N   UNL d   1      31.433 -21.848   6.688  0.00  0.00    -0.156 NA
ATOM      4  N   UNL d   1      30.256 -21.949   6.012  0.00  0.00    -0.226 N 
ATOM      5  C   UNL d   1      30.420 -21.575   4.682  0.00  0.00     0.349 A 
ATOM      6  O   UNL d   1      29.533 -21.576   3.838  0.00  0.00    -0.245 OA
ATOM      7  H   UNL d   1      29.387 -22.253   6.430  0.00  0.00     0.194 HD
ENDROOT
BRANCH   2   8
ATOM      8  C   UNL d   1      33.723 -21.130   6.088  0.00  0.00     0.117 C 
BRANCH   8   9
ATOM      9  C   UNL d   1      34.331 -22.162   6.952  0.00  0.00    -0.043 A 
ATOM     10  C   UNL d   1      35.046 -21.931   8.048  0.00  0.00    -0.005 A 
ATOM     11  C   UNL d   1      35.482 -20.739   8.687  0.00  0.00     0.014 A 
ATOM     12  C   UNL d   1      35.293 -23.266   8.610  0.00  0.00     0.038 A 
ATOM     13  C   UNL d   1      36.132 -20.855   9.852  0.00  0.00     0.001 A 
ATOM     14  C   UNL d   1      36.380 -22.157  10.454  0.00  0.00     0.002 A 
ATOM     15  C   UNL d   1      35.999 -23.327   9.901  0.00  0.00     0.030 A 
ATOM     16  N   UNL d   1      34.814 -24.200   7.875  0.00  0.00    -0.385 N 
ATOM     17  C   UNL d   1      34.155 -23.627   6.685  0.00  0.00     0.155 A 
ATOM     18  H   UNL d   1      34.850 -25.189   8.109  0.00  0.00     0.160 HD
ENDBRANCH   8   9
ENDBRANCH   2   8
BRANCH   1  19
ATOM     19  C   UNL d   1      32.348 -20.712   3.408  0.00  0.00     0.079 A 
ATOM     20  C   UNL d   1      33.166 -19.583   3.573  0.00  0.00     0.039 A 
ATOM     21  C   UNL d   1      33.802 -18.994   2.478  0.00  0.00    -0.060 A 
ATOM     22  C   UNL d   1      33.580 -19.523   1.205  0.00  0.00     0.009 A 
ATOM     23  C   UNL d   1      34.702 -17.811   2.674  0.00  0.00     0.048 C 
ATOM     24  C   UNL d   1      32.765 -20.644   1.029  0.00  0.00     0.039 A 
ATOM     25  C   UNL d   1      32.173 -21.268   2.127  0.00  0.00     0.095 A 
BRANCH  25  26
ATOM     26  O   UNL d   1      31.302 -22.316   1.962  0.00  0.00    -0.354 OA
ATOM     27  C   UNL d   1      30.391 -22.173   0.866  0.00  0.00     0.210 C 
ENDBRANCH  25  26
ENDBRANCH   1  19
TORSDOF 4
ENDMDL
MODEL 4
REMARK VINA RESULT:    -6.913      2.903      4.633
REMARK INTER + INTRA:          -9.556
REMARK INTER:                  -8.106
REMARK INTRA:                  -1.449
REMARK CONF_INDEPENDENT:        1.193
REMARK UNBOUND:                -1.449
REMARK  4 active torsions:
REMARK  status: ('A' for Active; 'I' for Inactive)
REMARK    1  A    between atoms: O_2  and  C_3 
REMARK    2  A    between atoms: C_9  and  N_10 
REMARK    3  A    between atoms: C_11  and  C_12 
REMARK    4  A    between atoms: C_12  and  C_13 
ROOT
ATOM      1  N   UNL d   1      26.978 -13.365  -5.041  0.00  0.00    -0.246 N 
ATOM      2  C   UNL d   1      26.537 -14.596  -4.714  0.00  0.00     0.139 A 
ATOM      3  N   UNL d   1      27.013 -15.562  -5.457  0.00  0.00    -0.156 NA
ATOM      4  N   UNL d   1      27.831 -14.922  -6.337  0.00  0.00    -0.226 N 
ATOM      5  C   UNL d   1      27.821 -13.550  -6.109  0.00  0.00     0.349 A 
ATOM      6  O   UNL d   1      28.469 -12.728  -6.744  0.00  0.00    -0.245 OA
ATOM      7  H   UNL d   1      28.366 -15.391  -7.057  0.00  0.00     0.194 HD
ENDROOT
BRANCH   2   8
ATOM      8  C   UNL d   1      25.530 -14.828  -3.618  0.00  0.00     0.117 C 
BRANCH   8   9
ATOM      9  C   UNL d   1      26.095 -15.630  -2.514  0.00  0.00    -0.043 A 
ATOM     10  C   UNL d   1      25.397 -16.365  -1.656  0.00  0.00    -0.005 A 
ATOM     11  C   UNL d   1      24.004 -16.582  -1.474  0.00  0.00     0.014 A 
ATOM     12  C   UNL d   1      26.417 -17.065  -0.862  0.00  0.00     0.038 A 
ATOM     13  C   UNL d   1      23.624 -17.470  -0.548  0.00  0.00     0.001 A 
ATOM     14  C   UNL d   1      24.602 -18.200   0.247  0.00  0.00     0.002 A 
ATOM     15  C   UNL d   1      25.936 -18.041   0.130  0.00  0.00     0.030 A 
ATOM     16  N   UNL d   1      27.607 -16.724  -1.190  0.00  0.00    -0.385 N 
ATOM     17  C   UNL d   1      27.572 -15.727  -2.277  0.00  0.00     0.155 A 
ATOM     18  H   UNL d   1      28.449 -17.122  -0.782  0.00  0.00     0.160 HD
ENDBRANCH   8   9
ENDBRANCH   2   8
BRANCH   1  19
ATOM     19  C   UNL d   1      26.575 -12.122  -4.532  0.00  0.00     0.079 A 
ATOM     20  C   UNL d   1      25.966 -11.221  -5.420  0.00  0.00     0.039 A 
ATOM     21  C   UNL d   1      25.530  -9.968  -4.982  0.00  0.00    -0.060 A 
ATOM     22  C   UNL d   1      25.745  -9.607  -3.651  0.00  0.00     0.009 A 
ATOM     23  C   UNL d   1      24.848  -9.031  -5.933  0.00  0.00     0.048 C 
ATOM     24  C   UNL d   1      26.352 -10.494  -2.759  0.00  0.00     0.039 A 
ATOM     25  C   UNL d   1      26.738 -11.767  -3.180  0.00  0.00     0.095 A 
BRANCH  25  26
ATOM     26  O   UNL d   1      27.413 -12.617  -2.338  0.00  0.00    -0.354 OA
ATOM     27  C   UNL d   1      27.030 -12.528  -0.960  0.00  0.00     0.210 C 
ENDBRANCH  25  26
ENDBRANCH   1  19
TORSDOF 4
ENDMDL
MODEL 5
REMARK VINA RESULT:    -6.891      1.053      1.452
REMARK INTER + INTRA:          -9.936
REMARK INTER:                  -8.084
REMARK INTRA:                  -1.852
REMARK CONF_INDEPENDENT:        1.193
REMARK UNBOUND:                -1.852
REMARK  4 active torsions:
REMARK  status: ('A' for Active; 'I' for Inactive)
REMARK    1  A    between atoms: O_2  and  C_3 
REMARK    2  A    between atoms: C_9  and  N_10 
REMARK    3  A    between atoms: C_11  and  C_12 
REMARK    4  A    between atoms: C_12  and  C_13 
ROOT
ATOM      1  N   UNL d   1      26.753 -14.834  -3.719  0.00  0.00    -0.246 N 
ATOM      2  C   UNL d   1      25.926 -14.171  -2.887  0.00  0.00     0.139 A 
ATOM      3  N   UNL d   1      24.745 -13.908  -3.384  0.00  0.00    -0.156 NA
ATOM      4  N   UNL d   1      24.794 -14.440  -4.637  0.00  0.00    -0.226 N 
ATOM      5  C   UNL d   1      26.037 -15.015  -4.878  0.00  0.00     0.349 A 
ATOM      6  O   UNL d   1      26.362 -15.575  -5.917  0.00  0.00    -0.245 OA
ATOM      7  H   UNL d   1      24.026 -14.412  -5.294  0.00  0.00     0.194 HD
ENDROOT
BRANCH   2   8
ATOM      8  C   UNL d   1      26.355 -13.718  -1.516  0.00  0.00     0.117 C 
BRANCH   8   9
ATOM      9  C   UNL d   1      26.650 -14.861  -0.629  0.00  0.00    -0.043 A 
ATOM     10  C   UNL d   1      25.929 -15.974  -0.535  0.00  0.00    -0.005 A 
ATOM     11  C   UNL d   1      24.721 -16.400  -1.148  0.00  0.00     0.014 A 
ATOM     12  C   UNL d   1      26.709 -16.837   0.363  0.00  0.00     0.038 A 
ATOM     13  C   UNL d   1      24.295 -17.644  -0.896  0.00  0.00     0.001 A 
ATOM     14  C   UNL d   1      25.047 -18.539  -0.029  0.00  0.00     0.002 A 
ATOM     15  C   UNL d   1      26.198 -18.200   0.588  0.00  0.00     0.030 A 
ATOM     16  N   UNL d   1      27.763 -16.258   0.802  0.00  0.00    -0.385 N 
ATOM     17  C   UNL d   1      27.861 -14.890   0.255  0.00  0.00     0.155 A 
ATOM     18  H   UNL d   1      28.451 -16.700   1.406  0.00  0.00     0.160 HD
ENDBRANCH   8   9
ENDBRANCH   2   8
BRANCH   1  19
ATOM     19  C   UNL d   1      28.107 -15.156  -3.544  0.00  0.00     0.079 A 
ATOM     20  C   UNL d   1      28.416 -16.229  -2.692  0.00  0.00     0.039 A 
ATOM     21  C   UNL d   1      29.741 -16.613  -2.477  0.00  0.00    -0.060 A 
ATOM     22  C   UNL d   1      30.762 -15.885  -3.092  0.00  0.00     0.009 A 
ATOM     23  C   UNL d   1      30.055 -17.784  -1.595  0.00  0.00     0.048 C 
ATOM     24  C   UNL d   1      30.467 -14.814  -3.938  0.00  0.00     0.039 A 
ATOM     25  C   UNL d   1      29.142 -14.463  -4.199  0.00  0.00     0.095 A 
BRANCH  25  26
ATOM     26  O   UNL d   1      28.837 -13.361  -4.959  0.00  0.00    -0.354 OA
ATOM     27  C   UNL d   1      28.717 -13.615  -6.364  0.00  0.00     0.210 C 
ENDBRANCH  25  26
ENDBRANCH   1  19
TORSDOF 4
ENDMDL
MODEL 6
REMARK VINA RESULT:    -6.729      3.459      5.840
REMARK INTER + INTRA:          -9.495
REMARK INTER:                  -7.922
REMARK INTRA:                  -1.572
REMARK CONF_INDEPENDENT:        1.193
REMARK UNBOUND:                -1.572
REMARK  4 active torsions:
REMARK  status: ('A' for Active; 'I' for Inactive)
REMARK    1  A    between atoms: O_2  and  C_3 
REMARK    2  A    between atoms: C_9  and  N_10 
REMARK    3  A    between atoms: C_11  and  C_12 
REMARK    4  A    between atoms: C_12  and  C_13 
ROOT
ATOM      1  N   UNL d   1      25.760 -14.975  -1.512  0.00  0.00    -0.246 N 
ATOM      2  C   UNL d   1      26.280 -13.896  -0.895  0.00  0.00     0.139 A 
ATOM      3  N   UNL d   1      26.715 -12.962  -1.700  0.00  0.00    -0.156 NA
ATOM      4  N   UNL d   1      26.462 -13.459  -2.942  0.00  0.00    -0.226 N 
ATOM      5  C   UNL d   1      25.876 -14.718  -2.857  0.00  0.00     0.349 A 
ATOM      6  O   UNL d   1      25.533 -15.399  -3.814  0.00  0.00    -0.245 OA
ATOM      7  H   UNL d   1      26.677 -12.973  -3.802  0.00  0.00     0.194 HD
ENDROOT
BRANCH   2   8
ATOM      8  C   UNL d   1      26.402 -13.805   0.604  0.00  0.00     0.117 C 
BRANCH   8   9
ATOM      9  C   UNL d   1      27.809 -13.884   1.045  0.00  0.00    -0.043 A 
ATOM     10  C   UNL d   1      28.220 -14.004   2.303  0.00  0.00    -0.005 A 
ATOM     11  C   UNL d   1      27.534 -14.042   3.547  0.00  0.00     0.014 A 
ATOM     12  C   UNL d   1      29.675 -14.182   2.196  0.00  0.00     0.038 A 
ATOM     13  C   UNL d   1      28.256 -14.261   4.654  0.00  0.00     0.001 A 
ATOM     14  C   UNL d   1      29.696 -14.463   4.590  0.00  0.00     0.002 A 
ATOM     15  C   UNL d   1      30.410 -14.436   3.446  0.00  0.00     0.030 A 
ATOM     16  N   UNL d   1      30.085 -14.115   0.984  0.00  0.00    -0.385 N 
ATOM     17  C   UNL d   1      28.949 -13.880   0.072  0.00  0.00     0.155 A 
ATOM     18  H   UNL d   1      31.052 -14.248   0.699  0.00  0.00     0.160 HD
ENDBRANCH   8   9
ENDBRANCH   2   8
BRANCH   1  19
ATOM     19  C   UNL d   1      25.325 -16.185  -0.952  0.00  0.00     0.079 A 
ATOM     20  C   UNL d   1      23.986 -16.555  -1.157  0.00  0.00     0.039 A 
ATOM     21  C   UNL d   1      23.486 -17.750  -0.637  0.00  0.00    -0.060 A 
ATOM     22  C   UNL d   1      24.329 -18.559   0.127  0.00  0.00     0.009 A 
ATOM     23  C   UNL d   1      22.064 -18.149  -0.896  0.00  0.00     0.048 C 
ATOM     24  C   UNL d   1      25.662 -18.200   0.340  0.00  0.00     0.039 A 
ATOM     25  C   UNL d   1      26.180 -17.034  -0.224  0.00  0.00     0.095 A 
BRANCH  25  26
ATOM     26  O   UNL d   1      27.463 -16.625   0.047  0.00  0.00    -0.354 OA
ATOM     27  C   UNL d   1      28.489 -17.449  -0.520  0.00  0.00     0.210 C 
ENDBRANCH  25  26
ENDBRANCH   1  19
TORSDOF 4
ENDMDL
MODEL 7
REMARK VINA RESULT:    -6.271      1.635      2.775
REMARK INTER + INTRA:          -9.404
REMARK INTER:                  -7.464
REMARK INTRA:                  -1.940
REMARK CONF_INDEPENDENT:        1.193
REMARK UNBOUND:                -1.940
REMARK  4 active torsions:
REMARK  status: ('A' for Active; 'I' for Inactive)
REMARK    1  A    between atoms: O_2  and  C_3 
REMARK    2  A    between atoms: C_9  and  N_10 
REMARK    3  A    between atoms: C_11  and  C_12 
REMARK    4  A    between atoms: C_12  and  C_13 
ROOT
ATOM      1  N   UNL d   1      27.257 -14.503  -3.879  0.00  0.00    -0.246 N 
ATOM      2  C   UNL d   1      26.153 -14.264  -3.142  0.00  0.00     0.139 A 
ATOM      3  N   UNL d   1      25.024 -14.450  -3.775  0.00  0.00    -0.156 NA
ATOM      4  N   UNL d   1      25.409 -14.843  -5.020  0.00  0.00    -0.226 N 
ATOM      5  C   UNL d   1      26.796 -14.875  -5.118  0.00  0.00     0.349 A 
ATOM      6  O   UNL d   1      27.421 -15.200  -6.119  0.00  0.00    -0.245 OA
ATOM      7  H   UNL d   1      24.765 -15.075  -5.765  0.00  0.00     0.194 HD
ENDROOT
BRANCH   2   8
ATOM      8  C   UNL d   1      26.223 -13.765  -1.723  0.00  0.00     0.117 C 
BRANCH   8   9
ATOM      9  C   UNL d   1      26.572 -14.846  -0.779  0.00  0.00    -0.043 A 
ATOM     10  C   UNL d   1      25.914 -15.992  -0.636  0.00  0.00    -0.005 A 
ATOM     11  C   UNL d   1      24.736 -16.513  -1.235  0.00  0.00     0.014 A 
ATOM     12  C   UNL d   1      26.731 -16.766   0.308  0.00  0.00     0.038 A 
ATOM     13  C   UNL d   1      24.377 -17.766  -0.926  0.00  0.00     0.001 A 
ATOM     14  C   UNL d   1      25.170 -18.575  -0.012  0.00  0.00     0.002 A 
ATOM     15  C   UNL d   1      26.294 -18.143   0.596  0.00  0.00     0.030 A 
ATOM     16  N   UNL d   1      27.748 -16.109   0.725  0.00  0.00    -0.385 N 
ATOM     17  C   UNL d   1      27.775 -14.766   0.113  0.00  0.00     0.155 A 
ATOM     18  H   UNL d   1      28.453 -16.483   1.355  0.00  0.00     0.160 HD
ENDBRANCH   8   9
ENDBRANCH   2   8
BRANCH   1  19
ATOM     19  C   UNL d   1      28.602 -14.284  -3.545  0.00  0.00     0.079 A 
ATOM     20  C   UNL d   1      29.164 -13.044  -3.886  0.00  0.00     0.039 A 
ATOM     21  C   UNL d   1      30.494 -12.751  -3.577  0.00  0.00    -0.060 A 
ATOM     22  C   UNL d   1      31.273 -13.730  -2.957  0.00  0.00     0.009 A 
ATOM     23  C   UNL d   1      31.070 -11.408  -3.913  0.00  0.00     0.048 C 
ATOM     24  C   UNL d   1      30.726 -14.969  -2.617  0.00  0.00     0.039 A 
ATOM     25  C   UNL d   1      29.382 -15.244  -2.874  0.00  0.00     0.095 A 
BRANCH  25  26
ATOM     26  O   UNL d   1      28.852 -16.486  -2.625  0.00  0.00    -0.354 OA
ATOM     27  C   UNL d   1      29.590 -17.275  -1.683  0.00  0.00     0.210 C 
ENDBRANCH  25  26
ENDBRANCH   1  19
TORSDOF 4
ENDMDL
MODEL 8
REMARK VINA RESULT:    -6.207      2.504      4.873
REMARK INTER + INTRA:          -9.384
REMARK INTER:                  -7.400
REMARK INTRA:                  -1.984
REMARK CONF_INDEPENDENT:        1.193
REMARK UNBOUND:                -1.984
REMARK  4 active torsions:
REMARK  status: ('A' for Active; 'I' for Inactive)
REMARK    1  A    between atoms: O_2  and  C_3 
REMARK    2  A    between atoms: C_9  and  N_10 
REMARK    3  A    between atoms: C_11  and  C_12 
REMARK    4  A    between atoms: C_12  and  C_13 
ROOT
ATOM      1  N   UNL d   1      27.511 -15.102  -3.688  0.00  0.00    -0.246 N 
ATOM      2  C   UNL d   1      28.741 -14.618  -3.423  0.00  0.00     0.139 A 
ATOM      3  N   UNL d   1      29.475 -14.383  -4.479  0.00  0.00    -0.156 NA
ATOM      4  N   UNL d   1      28.671 -14.735  -5.520  0.00  0.00    -0.226 N 
ATOM      5  C   UNL d   1      27.444 -15.198  -5.057  0.00  0.00     0.349 A 
ATOM      6  O   UNL d   1      26.522 -15.575  -5.769  0.00  0.00    -0.245 OA
ATOM      7  H   UNL d   1      28.942 -14.669  -6.492  0.00  0.00     0.194 HD
ENDROOT
BRANCH   2   8
ATOM      8  C   UNL d   1      29.244 -14.422  -2.017  0.00  0.00     0.117 C 
BRANCH   8   9
ATOM      9  C   UNL d   1      28.373 -13.512  -1.245  0.00  0.00    -0.043 A 
ATOM     10  C   UNL d   1      28.002 -13.683   0.019  0.00  0.00    -0.005 A 
ATOM     11  C   UNL d   1      28.238 -14.715   0.967  0.00  0.00     0.014 A 
ATOM     12  C   UNL d   1      27.272 -12.453   0.354  0.00  0.00     0.038 A 
ATOM     13  C   UNL d   1      27.780 -14.538   2.213  0.00  0.00     0.001 A 
ATOM     14  C   UNL d   1      27.070 -13.325   2.592  0.00  0.00     0.002 A 
ATOM     15  C   UNL d   1      26.808 -12.309   1.744  0.00  0.00     0.030 A 
ATOM     16  N   UNL d   1      27.175 -11.657  -0.645  0.00  0.00    -0.385 N 
ATOM     17  C   UNL d   1      27.840 -12.237  -1.828  0.00  0.00     0.155 A 
ATOM     18  H   UNL d   1      26.738 -10.740  -0.606  0.00  0.00     0.160 HD
ENDBRANCH   8   9
ENDBRANCH   2   8
BRANCH   1  19
ATOM     19  C   UNL d   1      26.536 -15.567  -2.794  0.00  0.00     0.079 A 
ATOM     20  C   UNL d   1      26.947 -16.454  -1.786  0.00  0.00     0.039 A 
ATOM     21  C   UNL d   1      26.034 -16.951  -0.853  0.00  0.00    -0.060 A 
ATOM     22  C   UNL d   1      24.691 -16.582  -0.962  0.00  0.00     0.009 A 
ATOM     23  C   UNL d   1      26.494 -17.868   0.240  0.00  0.00     0.048 C 
ATOM     24  C   UNL d   1      24.271 -15.703  -1.963  0.00  0.00     0.039 A 
ATOM     25  C   UNL d   1      25.190 -15.162  -2.861  0.00  0.00     0.095 A 
BRANCH  25  26
ATOM     26  O   UNL d   1      24.780 -14.365  -3.902  0.00  0.00    -0.354 OA
ATOM     27  C   UNL d   1      25.156 -12.987  -3.788  0.00  0.00     0.210 C 
ENDBRANCH  25  26
ENDBRANCH   1  19
TORSDOF 4
ENDMDL
MODEL 9
REMARK VINA RESULT:    -6.169      2.368      3.204
REMARK INTER + INTRA:          -9.420
REMARK INTER:                  -7.362
REMARK INTRA:                  -2.058
REMARK CONF_INDEPENDENT:        1.193
REMARK UNBOUND:                -2.058
REMARK  4 active torsions:
REMARK  status: ('A' for Active; 'I' for Inactive)
REMARK    1  A    between atoms: O_2  and  C_3 
REMARK    2  A    between atoms: C_9  and  N_10 
REMARK    3  A    between atoms: C_11  and  C_12 
REMARK    4  A    between atoms: C_12  and  C_13 
ROOT
ATOM      1  N   UNL d   1      26.592 -13.536  -3.072  0.00  0.00    -0.246 N 
ATOM      2  C   UNL d   1      26.546 -14.674  -3.794  0.00  0.00     0.139 A 
ATOM      3  N   UNL d   1      25.559 -14.738  -4.650  0.00  0.00    -0.156 NA
ATOM      4  N   UNL d   1      24.907 -13.555  -4.484  0.00  0.00    -0.226 N 
ATOM      5  C   UNL d   1      25.521 -12.789  -3.499  0.00  0.00     0.349 A 
ATOM      6  O   UNL d   1      25.155 -11.676  -3.146  0.00  0.00    -0.245 OA
ATOM      7  H   UNL d   1      24.086 -13.283  -5.009  0.00  0.00     0.194 HD
ENDROOT
BRANCH   2   8
ATOM      8  C   UNL d   1      27.521 -15.802  -3.583  0.00  0.00     0.117 C 
BRANCH   8   9
ATOM      9  C   UNL d   1      27.467 -16.323  -2.202  0.00  0.00    -0.043 A 
ATOM     10  C   UNL d   1      26.366 -16.703  -1.561  0.00  0.00    -0.005 A 
ATOM     11  C   UNL d   1      24.989 -16.698  -1.912  0.00  0.00     0.014 A 
ATOM     12  C   UNL d   1      26.858 -17.264  -0.295  0.00  0.00     0.038 A 
ATOM     13  C   UNL d   1      24.121 -17.241  -1.051  0.00  0.00     0.001 A 
ATOM     14  C   UNL d   1      24.567 -17.827   0.205  0.00  0.00     0.002 A 
ATOM     15  C   UNL d   1      25.855 -17.861   0.604  0.00  0.00     0.030 A 
ATOM     16  N   UNL d   1      28.130 -17.168  -0.181  0.00  0.00    -0.385 N 
ATOM     17  C   UNL d   1      28.702 -16.518  -1.376  0.00  0.00     0.155 A 
ATOM     18  H   UNL d   1      28.663 -17.530   0.605  0.00  0.00     0.160 HD
ENDBRANCH   8   9
ENDBRANCH   2   8
BRANCH   1  19
ATOM     19  C   UNL d   1      27.435 -13.207  -2.001  0.00  0.00     0.079 A 
ATOM     20  C   UNL d   1      26.918 -13.331  -0.702  0.00  0.00     0.039 A 
ATOM     21  C   UNL d   1      27.702 -13.030   0.413  0.00  0.00    -0.060 A 
ATOM     22  C   UNL d   1      29.003 -12.563   0.216  0.00  0.00     0.009 A 
ATOM     23  C   UNL d   1      27.148 -13.203   1.796  0.00  0.00     0.048 C 
ATOM     24  C   UNL d   1      29.528 -12.432  -1.071  0.00  0.00     0.039 A 
ATOM     25  C   UNL d   1      28.765 -12.785  -2.185  0.00  0.00     0.095 A 
BRANCH  25  26
ATOM     26  O   UNL d   1      29.235 -12.581  -3.459  0.00  0.00    -0.354 OA
ATOM     27  C   UNL d   1      28.773 -11.377  -4.085  0.00  0.00     0.210 C 
ENDBRANCH  25  26
ENDBRANCH   1  19
TORSDOF 4
ENDMDL
