MODEL 1
REMARK VINA RESULT:   -10.829      0.000      0.000
REMARK INTER + INTRA:         -14.941
REMARK INTER:                 -13.215
REMARK INTRA:                  -1.726
REMARK CONF_INDEPENDENT:        2.386
REMARK UNBOUND:                -1.726
REMARK  8 active torsions:
REMARK  status: ('A' for Active; 'I' for Inactive)
REMARK    1  A    between atoms: C_2  and  C_3 
REMARK    2  A    between atoms: C_7  and  N_8 
REMARK       I    between atoms: N_8  and  C_9 
REMARK       I    between atoms: C_9  and  N_23 
REMARK       I    between atoms: N_10  and  C_11 
REMARK    3  A    between atoms: C_11  and  C_13 
REMARK    4  A    between atoms: C_15  and  O_16 
REMARK    5  A    between atoms: C_19  and  O_20 
REMARK    6  A    between atoms: N_23  and  C_24 
REMARK    7  A    between atoms: C_24  and  C_25 
REMARK    8  A    between atoms: C_25  and  C_26 
ROOT
ATOM      1  N   UNL d   1      28.219 -17.802   0.069  0.00  0.00    -0.190 N 
ATOM      2  C   UNL d   1      29.272 -17.712  -0.860  0.00  0.00     0.704 C 
ATOM      3  N   UNL d   1      29.413 -17.061  -1.987  0.00  0.00    -0.023 NA
ATOM      4  C   UNL d   1      28.822 -15.824  -2.126  0.00  0.00     0.294 C 
ATOM      5  O   UNL d   1      28.747 -15.052  -1.215  0.00  0.00    -0.265 OA
ATOM      6  N   UNL d   1      30.418 -18.453  -0.535  0.00  0.00    -0.224 N 
ATOM      7  H   UNL d   1      28.425 -18.193   0.980  0.00  0.00     0.184 HD
ATOM      8  H   UNL d   1      30.590 -18.698   0.436  0.00  0.00     0.177 HD
ENDROOT
BRANCH   1   9
ATOM      9  C   UNL d   1      26.877 -17.293  -0.023  0.00  0.00     0.049 C 
ATOM     10  C   UNL d   1      26.564 -15.982  -0.420  0.00  0.00     0.030 C 
ATOM     11  C   UNL d   1      25.224 -15.599  -0.701  0.00  0.00     0.003 C 
ATOM     12  C   UNL d   1      24.197 -16.532  -0.708  0.00  0.00     0.007 C 
ATOM     13  C   UNL d   1      24.510 -17.832  -0.400  0.00  0.00    -0.056 C 
ATOM     14  C   UNL d   1      25.763 -18.104   0.182  0.00  0.00     0.037 C 
BRANCH  13  15
ATOM     15  C   UNL d   1      23.622 -18.936  -0.916  0.00  0.00     0.034 C 
ATOM     16  C   UNL d   1      22.121 -18.618  -0.667  0.00  0.00     0.010 C 
ENDBRANCH  13  15
ENDBRANCH   1   9
BRANCH   6  17
ATOM     17  C   UNL d   1      31.617 -18.246  -1.385  0.00  0.00     0.142 C 
BRANCH  17  18
ATOM     18  C   UNL d   1      32.256 -19.519  -1.896  0.00  0.00     0.057 C 
BRANCH  18  19
ATOM     19  C   UNL d   1      31.600 -20.197  -3.075  0.00  0.00    -0.048 A 
ATOM     20  C   UNL d   1      31.453 -19.525  -4.216  0.00  0.00    -0.006 A 
ATOM     21  C   UNL d   1      31.819 -18.195  -4.545  0.00  0.00     0.014 A 
ATOM     22  C   UNL d   1      30.752 -20.405  -5.156  0.00  0.00     0.038 A 
ATOM     23  C   UNL d   1      31.418 -17.700  -5.718  0.00  0.00     0.001 A 
ATOM     24  C   UNL d   1      30.746 -18.540  -6.696  0.00  0.00     0.002 A 
ATOM     25  C   UNL d   1      30.410 -19.830  -6.478  0.00  0.00     0.030 A 
ATOM     26  N   UNL d   1      30.547 -21.560  -4.643  0.00  0.00    -0.385 N 
ATOM     27  C   UNL d   1      31.029 -21.585  -3.217  0.00  0.00     0.155 A 
ATOM     28  H   UNL d   1      30.119 -22.324  -5.167  0.00  0.00     0.160 HD
ENDBRANCH  18  19
ENDBRANCH  17  18
ENDBRANCH   6  17
BRANCH   4  29
ATOM     29  C   UNL d   1      28.378 -15.412  -3.525  0.00  0.00     0.040 C 
ATOM     30  C   UNL d   1      27.140 -14.779  -3.693  0.00  0.00     0.054 C 
ATOM     31  C   UNL d   1      26.513 -14.615  -4.937  0.00  0.00     0.071 C 
ATOM     32  C   UNL d   1      27.325 -14.661  -6.037  0.00  0.00     0.073 C 
ATOM     33  C   UNL d   1      28.622 -15.163  -5.895  0.00  0.00     0.071 C 
ATOM     34  C   UNL d   1      29.096 -15.673  -4.670  0.00  0.00     0.054 C 
BRANCH  31  35
ATOM     35  O   UNL d   1      25.155 -14.449  -4.947  0.00  0.00    -0.356 OA
ATOM     36  C   UNL d   1      24.567 -13.710  -3.873  0.00  0.00     0.210 C 
ENDBRANCH  31  35
BRANCH  33  37
ATOM     37  O   UNL d   1      29.376 -15.066  -7.032  0.00  0.00    -0.356 OA
ATOM     38  C   UNL d   1      29.825 -13.748  -7.288  0.00  0.00     0.210 C 
ENDBRANCH  33  37
ENDBRANCH   4  29
TORSDOF 8
ENDMDL
MODEL 2
REMARK VINA RESULT:   -10.758      1.609      2.844
REMARK INTER + INTRA:         -15.020
REMARK INTER:                 -13.144
REMARK INTRA:                  -1.876
REMARK CONF_INDEPENDENT:        2.386
REMARK UNBOUND:                -1.876
REMARK  8 active torsions:
REMARK  status: ('A' for Active; 'I' for Inactive)
REMARK    1  A    between atoms: C_2  and  C_3 
REMARK    2  A    between atoms: C_7  and  N_8 
REMARK       I    between atoms: N_8  and  C_9 
REMARK       I    between atoms: C_9  and  N_23 
REMARK       I    between atoms: N_10  and  C_11 
REMARK    3  A    between atoms: C_11  and  C_13 
REMARK    4  A    between atoms: C_15  and  O_16 
REMARK    5  A    between atoms: C_19  and  O_20 
REMARK    6  A    between atoms: N_23  and  C_24 
REMARK    7  A    between atoms: C_24  and  C_25 
REMARK    8  A    between atoms: C_25  and  C_26 
ROOT
ATOM      1  N   UNL d   1      26.507 -17.845   0.072  0.00  0.00    -0.190 N 
ATOM      2  C   UNL d   1      27.661 -17.373  -0.580  0.00  0.00     0.704 C 
ATOM      3  N   UNL d   1      27.868 -16.397  -1.429  0.00  0.00    -0.023 NA
ATOM      4  C   UNL d   1      27.127 -15.241  -1.317  0.00  0.00     0.294 C 
ATOM      5  O   UNL d   1      26.804 -14.797  -0.254  0.00  0.00    -0.265 OA
ATOM      6  N   UNL d   1      28.844 -18.063  -0.274  0.00  0.00    -0.224 N 
ATOM      7  H   UNL d   1      26.633 -18.474   0.856  0.00  0.00     0.184 HD
ATOM      8  H   UNL d   1      28.905 -18.575   0.602  0.00  0.00     0.177 HD
ENDROOT
BRANCH   1   9
ATOM      9  C   UNL d   1      25.133 -17.467  -0.118  0.00  0.00     0.049 C 
ATOM     10  C   UNL d   1      24.721 -16.411  -0.950  0.00  0.00     0.030 C 
ATOM     11  C   UNL d   1      23.350 -16.219  -1.270  0.00  0.00     0.003 C 
ATOM     12  C   UNL d   1      22.385 -17.132  -0.870  0.00  0.00     0.007 C 
ATOM     13  C   UNL d   1      22.792 -18.211  -0.125  0.00  0.00    -0.056 C 
ATOM     14  C   UNL d   1      24.082 -18.192   0.439  0.00  0.00     0.037 C 
BRANCH  13  15
ATOM     15  C   UNL d   1      21.956 -19.465  -0.144  0.00  0.00     0.034 C 
ATOM     16  C   UNL d   1      20.740 -19.321  -1.102  0.00  0.00     0.010 C 
ENDBRANCH  13  15
ENDBRANCH   1   9
BRANCH   6  17
ATOM     17  C   UNL d   1      30.110 -17.489  -0.793  0.00  0.00     0.142 C 
BRANCH  17  18
ATOM     18  C   UNL d   1      30.724 -18.253  -1.946  0.00  0.00     0.057 C 
BRANCH  18  19
ATOM     19  C   UNL d   1      30.459 -17.733  -3.338  0.00  0.00    -0.048 A 
ATOM     20  C   UNL d   1      30.651 -18.538  -4.383  0.00  0.00    -0.006 A 
ATOM     21  C   UNL d   1      31.094 -19.884  -4.428  0.00  0.00     0.014 A 
ATOM     22  C   UNL d   1      30.364 -17.761  -5.593  0.00  0.00     0.038 A 
ATOM     23  C   UNL d   1      31.356 -20.425  -5.620  0.00  0.00     0.001 A 
ATOM     24  C   UNL d   1      31.062 -19.707  -6.850  0.00  0.00     0.002 A 
ATOM     25  C   UNL d   1      30.589 -18.442  -6.889  0.00  0.00     0.030 A 
ATOM     26  N   UNL d   1      29.961 -16.581  -5.301  0.00  0.00    -0.385 N 
ATOM     27  C   UNL d   1      29.997 -16.378  -3.810  0.00  0.00     0.155 A 
ATOM     28  H   UNL d   1      29.663 -15.913  -6.012  0.00  0.00     0.160 HD
ENDBRANCH  18  19
ENDBRANCH  17  18
ENDBRANCH   6  17
BRANCH   4  29
ATOM     29  C   UNL d   1      26.838 -14.467  -2.597  0.00  0.00     0.040 C 
ATOM     30  C   UNL d   1      26.997 -15.104  -3.835  0.00  0.00     0.054 C 
ATOM     31  C   UNL d   1      27.036 -14.425  -5.061  0.00  0.00     0.071 C 
ATOM     32  C   UNL d   1      26.455 -13.186  -5.087  0.00  0.00     0.073 C 
ATOM     33  C   UNL d   1      26.153 -12.559  -3.874  0.00  0.00     0.071 C 
ATOM     34  C   UNL d   1      26.479 -13.138  -2.631  0.00  0.00     0.054 C 
BRANCH  31  35
ATOM     35  O   UNL d   1      27.664 -15.039  -6.109  0.00  0.00    -0.356 OA
ATOM     36  C   UNL d   1      28.530 -14.244  -6.923  0.00  0.00     0.210 C 
ENDBRANCH  31  35
BRANCH  33  37
ATOM     37  O   UNL d   1      25.484 -11.375  -4.020  0.00  0.00    -0.356 OA
ATOM     38  C   UNL d   1      25.985 -10.583  -5.080  0.00  0.00     0.210 C 
ENDBRANCH  33  37
ENDBRANCH   4  29
TORSDOF 8
ENDMDL
MODEL 3
REMARK VINA RESULT:   -10.601      1.330      2.209
REMARK INTER + INTRA:         -14.173
REMARK INTER:                 -12.987
REMARK INTRA:                  -1.185
REMARK CONF_INDEPENDENT:        2.386
REMARK UNBOUND:                -1.185
REMARK  8 active torsions:
REMARK  status: ('A' for Active; 'I' for Inactive)
REMARK    1  A    between atoms: C_2  and  C_3 
REMARK    2  A    between atoms: C_7  and  N_8 
REMARK       I    between atoms: N_8  and  C_9 
REMARK       I    between atoms: C_9  and  N_23 
REMARK       I    between atoms: N_10  and  C_11 
REMARK    3  A    between atoms: C_11  and  C_13 
REMARK    4  A    between atoms: C_15  and  O_16 
REMARK    5  A    between atoms: C_19  and  O_20 
REMARK    6  A    between atoms: N_23  and  C_24 
REMARK    7  A    between atoms: C_24  and  C_25 
REMARK    8  A    between atoms: C_25  and  C_26 
ROOT
ATOM      1  N   UNL d   1      27.075 -17.865  -0.149  0.00  0.00    -0.190 N 
ATOM      2  C   UNL d   1      28.198 -17.449  -0.889  0.00  0.00     0.704 C 
ATOM      3  N   UNL d   1      28.382 -16.498  -1.770  0.00  0.00    -0.023 NA
ATOM      4  C   UNL d   1      27.694 -15.313  -1.631  0.00  0.00     0.294 C 
ATOM      5  O   UNL d   1      27.463 -14.837  -0.559  0.00  0.00    -0.265 OA
ATOM      6  N   UNL d   1      29.372 -18.179  -0.650  0.00  0.00    -0.224 N 
ATOM      7  H   UNL d   1      27.231 -18.484   0.637  0.00  0.00     0.184 HD
ATOM      8  H   UNL d   1      29.475 -18.677   0.230  0.00  0.00     0.177 HD
ENDROOT
BRANCH   1   9
ATOM      9  C   UNL d   1      25.706 -17.437  -0.252  0.00  0.00     0.049 C 
ATOM     10  C   UNL d   1      25.285 -16.348  -1.035  0.00  0.00     0.030 C 
ATOM     11  C   UNL d   1      23.905 -16.103  -1.272  0.00  0.00     0.003 C 
ATOM     12  C   UNL d   1      22.933 -16.994  -0.839  0.00  0.00     0.007 C 
ATOM     13  C   UNL d   1      23.344 -18.103  -0.143  0.00  0.00    -0.056 C 
ATOM     14  C   UNL d   1      24.664 -18.140   0.347  0.00  0.00     0.037 C 
BRANCH  13  15
ATOM     15  C   UNL d   1      22.466 -19.328  -0.143  0.00  0.00     0.034 C 
ATOM     16  C   UNL d   1      21.226 -19.136  -1.060  0.00  0.00     0.010 C 
ENDBRANCH  13  15
ENDBRANCH   1   9
BRANCH   6  17
ATOM     17  C   UNL d   1      30.620 -17.665  -1.267  0.00  0.00     0.142 C 
BRANCH  17  18
ATOM     18  C   UNL d   1      31.621 -18.732  -1.651  0.00  0.00     0.057 C 
BRANCH  18  19
ATOM     19  C   UNL d   1      31.297 -19.583  -2.855  0.00  0.00    -0.048 A 
ATOM     20  C   UNL d   1      31.092 -18.995  -4.034  0.00  0.00    -0.006 A 
ATOM     21  C   UNL d   1      31.119 -17.621  -4.385  0.00  0.00     0.014 A 
ATOM     22  C   UNL d   1      30.756 -20.048  -4.996  0.00  0.00     0.038 A 
ATOM     23  C   UNL d   1      30.722 -17.273  -5.611  0.00  0.00     0.001 A 
ATOM     24  C   UNL d   1      30.406 -18.281  -6.610  0.00  0.00     0.002 A 
ATOM     25  C   UNL d   1      30.409 -19.610  -6.368  0.00  0.00     0.030 A 
ATOM     26  N   UNL d   1      30.818 -21.207  -4.454  0.00  0.00    -0.385 N 
ATOM     27  C   UNL d   1      31.140 -21.076  -2.990  0.00  0.00     0.155 A 
ATOM     28  H   UNL d   1      30.668 -22.067  -4.983  0.00  0.00     0.160 HD
ENDBRANCH  18  19
ENDBRANCH  17  18
ENDBRANCH   6  17
BRANCH   4  29
ATOM     29  C   UNL d   1      27.346 -14.551  -2.905  0.00  0.00     0.040 C 
ATOM     30  C   UNL d   1      27.438 -15.204  -4.141  0.00  0.00     0.054 C 
ATOM     31  C   UNL d   1      27.420 -14.539  -5.375  0.00  0.00     0.071 C 
ATOM     32  C   UNL d   1      26.846 -13.296  -5.387  0.00  0.00     0.073 C 
ATOM     33  C   UNL d   1      26.609 -12.654  -4.168  0.00  0.00     0.071 C 
ATOM     34  C   UNL d   1      26.994 -13.221  -2.937  0.00  0.00     0.054 C 
BRANCH  31  35
ATOM     35  O   UNL d   1      27.991 -15.169  -6.446  0.00  0.00    -0.356 OA
ATOM     36  C   UNL d   1      28.980 -14.452  -7.190  0.00  0.00     0.210 C 
ENDBRANCH  31  35
BRANCH  33  37
ATOM     37  O   UNL d   1      25.941 -11.467  -4.294  0.00  0.00    -0.356 OA
ATOM     38  C   UNL d   1      26.597 -10.390  -3.652  0.00  0.00     0.210 C 
ENDBRANCH  33  37
ENDBRANCH   4  29
TORSDOF 8
ENDMDL
MODEL 4
REMARK VINA RESULT:   -10.447      1.122      1.642
REMARK INTER + INTRA:         -14.848
REMARK INTER:                 -12.833
REMARK INTRA:                  -2.014
REMARK CONF_INDEPENDENT:        2.386
REMARK UNBOUND:                -2.014
REMARK  8 active torsions:
REMARK  status: ('A' for Active; 'I' for Inactive)
REMARK    1  A    between atoms: C_2  and  C_3 
REMARK    2  A    between atoms: C_7  and  N_8 
REMARK       I    between atoms: N_8  and  C_9 
REMARK       I    between atoms: C_9  and  N_23 
REMARK       I    between atoms: N_10  and  C_11 
REMARK    3  A    between atoms: C_11  and  C_13 
REMARK    4  A    between atoms: C_15  and  O_16 
REMARK    5  A    between atoms: C_19  and  O_20 
REMARK    6  A    between atoms: N_23  and  C_24 
REMARK    7  A    between atoms: C_24  and  C_25 
REMARK    8  A    between atoms: C_25  and  C_26 
ROOT
ATOM      1  N   UNL d   1      28.198 -17.899   0.101  0.00  0.00    -0.190 N 
ATOM      2  C   UNL d   1      29.212 -17.741  -0.861  0.00  0.00     0.704 C 
ATOM      3  N   UNL d   1      29.300 -17.026  -1.954  0.00  0.00    -0.023 NA
ATOM      4  C   UNL d   1      28.688 -15.792  -1.999  0.00  0.00     0.294 C 
ATOM      5  O   UNL d   1      28.640 -15.074  -1.044  0.00  0.00    -0.265 OA
ATOM      6  N   UNL d   1      30.379 -18.483  -0.623  0.00  0.00    -0.224 N 
ATOM      7  H   UNL d   1      28.444 -18.338   0.980  0.00  0.00     0.184 HD
ATOM      8  H   UNL d   1      30.592 -18.780   0.325  0.00  0.00     0.177 HD
ENDROOT
BRANCH   1   9
ATOM      9  C   UNL d   1      26.847 -17.406   0.091  0.00  0.00     0.049 C 
ATOM     10  C   UNL d   1      26.506 -16.064  -0.154  0.00  0.00     0.030 C 
ATOM     11  C   UNL d   1      25.156 -15.675  -0.366  0.00  0.00     0.003 C 
ATOM     12  C   UNL d   1      24.143 -16.619  -0.457  0.00  0.00     0.007 C 
ATOM     13  C   UNL d   1      24.481 -17.940  -0.300  0.00  0.00    -0.056 C 
ATOM     14  C   UNL d   1      25.749 -18.253   0.226  0.00  0.00     0.037 C 
BRANCH  13  15
ATOM     15  C   UNL d   1      23.599 -18.995  -0.918  0.00  0.00     0.034 C 
ATOM     16  C   UNL d   1      22.104 -18.569  -0.892  0.00  0.00     0.010 C 
ENDBRANCH  13  15
ENDBRANCH   1   9
BRANCH   6  17
ATOM     17  C   UNL d   1      31.540 -18.211  -1.507  0.00  0.00     0.142 C 
BRANCH  17  18
ATOM     18  C   UNL d   1      31.526 -18.965  -2.818  0.00  0.00     0.057 C 
BRANCH  18  19
ATOM     19  C   UNL d   1      31.389 -18.151  -4.082  0.00  0.00    -0.048 A 
ATOM     20  C   UNL d   1      31.125 -18.771  -5.233  0.00  0.00    -0.006 A 
ATOM     21  C   UNL d   1      30.944 -20.150  -5.504  0.00  0.00     0.014 A 
ATOM     22  C   UNL d   1      31.095 -17.749  -6.283  0.00  0.00     0.038 A 
ATOM     23  C   UNL d   1      30.845 -20.537  -6.778  0.00  0.00     0.001 A 
ATOM     24  C   UNL d   1      30.781 -19.561  -7.855  0.00  0.00     0.002 A 
ATOM     25  C   UNL d   1      30.893 -18.227  -7.671  0.00  0.00     0.030 A 
ATOM     26  N   UNL d   1      31.262 -16.577  -5.795  0.00  0.00    -0.385 N 
ATOM     27  C   UNL d   1      31.512 -16.666  -4.313  0.00  0.00     0.155 A 
ATOM     28  H   UNL d   1      31.218 -15.733  -6.367  0.00  0.00     0.160 HD
ENDBRANCH  18  19
ENDBRANCH  17  18
ENDBRANCH   6  17
BRANCH   4  29
ATOM     29  C   UNL d   1      28.184 -15.309  -3.354  0.00  0.00     0.040 C 
ATOM     30  C   UNL d   1      26.981 -14.594  -3.424  0.00  0.00     0.054 C 
ATOM     31  C   UNL d   1      26.289 -14.351  -4.618  0.00  0.00     0.071 C 
ATOM     32  C   UNL d   1      27.025 -14.413  -5.770  0.00  0.00     0.073 C 
ATOM     33  C   UNL d   1      28.293 -15.000  -5.727  0.00  0.00     0.071 C 
ATOM     34  C   UNL d   1      28.810 -15.578  -4.550  0.00  0.00     0.054 C 
BRANCH  31  35
ATOM     35  O   UNL d   1      24.947 -14.100  -4.536  0.00  0.00    -0.356 OA
ATOM     36  C   UNL d   1      24.354 -14.075  -3.234  0.00  0.00     0.210 C 
ENDBRANCH  31  35
BRANCH  33  37
ATOM     37  O   UNL d   1      28.977 -14.914  -6.908  0.00  0.00    -0.356 OA
ATOM     38  C   UNL d   1      28.946 -13.617  -7.474  0.00  0.00     0.210 C 
ENDBRANCH  33  37
ENDBRANCH   4  29
TORSDOF 8
ENDMDL
MODEL 5
REMARK VINA RESULT:   -10.444      1.240      2.542
REMARK INTER + INTRA:         -14.044
REMARK INTER:                 -12.830
REMARK INTRA:                  -1.214
REMARK CONF_INDEPENDENT:        2.386
REMARK UNBOUND:                -1.214
REMARK  8 active torsions:
REMARK  status: ('A' for Active; 'I' for Inactive)
REMARK    1  A    between atoms: C_2  and  C_3 
REMARK    2  A    between atoms: C_7  and  N_8 
REMARK       I    between atoms: N_8  and  C_9 
REMARK       I    between atoms: C_9  and  N_23 
REMARK       I    between atoms: N_10  and  C_11 
REMARK    3  A    between atoms: C_11  and  C_13 
REMARK    4  A    between atoms: C_15  and  O_16 
REMARK    5  A    between atoms: C_19  and  O_20 
REMARK    6  A    between atoms: N_23  and  C_24 
REMARK    7  A    between atoms: C_24  and  C_25 
REMARK    8  A    between atoms: C_25  and  C_26 
ROOT
ATOM      1  N   UNL d   1      28.205 -17.970   0.057  0.00  0.00    -0.190 N 
ATOM      2  C   UNL d   1      29.220 -17.825  -0.907  0.00  0.00     0.704 C 
ATOM      3  N   UNL d   1      29.323 -17.095  -1.990  0.00  0.00    -0.023 NA
ATOM      4  C   UNL d   1      28.745 -15.845  -2.013  0.00  0.00     0.294 C 
ATOM      5  O   UNL d   1      28.720 -15.140  -1.047  0.00  0.00    -0.265 OA
ATOM      6  N   UNL d   1      30.367 -18.602  -0.686  0.00  0.00    -0.224 N 
ATOM      7  H   UNL d   1      28.443 -18.429   0.928  0.00  0.00     0.184 HD
ATOM      8  H   UNL d   1      30.575 -18.919   0.257  0.00  0.00     0.177 HD
ENDROOT
BRANCH   1   9
ATOM      9  C   UNL d   1      26.868 -17.440   0.059  0.00  0.00     0.049 C 
ATOM     10  C   UNL d   1      26.563 -16.087  -0.168  0.00  0.00     0.030 C 
ATOM     11  C   UNL d   1      25.223 -15.658  -0.368  0.00  0.00     0.003 C 
ATOM     12  C   UNL d   1      24.184 -16.573  -0.465  0.00  0.00     0.007 C 
ATOM     13  C   UNL d   1      24.486 -17.904  -0.324  0.00  0.00    -0.056 C 
ATOM     14  C   UNL d   1      25.748 -18.258   0.190  0.00  0.00     0.037 C 
BRANCH  13  15
ATOM     15  C   UNL d   1      23.573 -18.927  -0.950  0.00  0.00     0.034 C 
ATOM     16  C   UNL d   1      22.095 -18.703  -0.523  0.00  0.00     0.010 C 
ENDBRANCH  13  15
ENDBRANCH   1   9
BRANCH   6  17
ATOM     17  C   UNL d   1      31.532 -18.348  -1.570  0.00  0.00     0.142 C 
BRANCH  17  18
ATOM     18  C   UNL d   1      32.337 -19.579  -1.923  0.00  0.00     0.057 C 
BRANCH  18  19
ATOM     19  C   UNL d   1      31.596 -20.730  -2.559  0.00  0.00    -0.048 A 
ATOM     20  C   UNL d   1      31.107 -21.700  -1.786  0.00  0.00    -0.006 A 
ATOM     21  C   UNL d   1      31.166 -21.860  -0.378  0.00  0.00     0.014 A 
ATOM     22  C   UNL d   1      30.488 -22.694  -2.668  0.00  0.00     0.038 A 
ATOM     23  C   UNL d   1      30.731 -23.008   0.146  0.00  0.00     0.001 A 
ATOM     24  C   UNL d   1      30.083 -24.013  -0.681  0.00  0.00     0.002 A 
ATOM     25  C   UNL d   1      29.942 -23.910  -2.021  0.00  0.00     0.030 A 
ATOM     26  N   UNL d   1      30.539 -22.321  -3.892  0.00  0.00    -0.385 N 
ATOM     27  C   UNL d   1      31.290 -21.022  -4.006  0.00  0.00     0.155 A 
ATOM     28  H   UNL d   1      30.111 -22.860  -4.646  0.00  0.00     0.160 HD
ENDBRANCH  18  19
ENDBRANCH  17  18
ENDBRANCH   6  17
BRANCH   4  29
ATOM     29  C   UNL d   1      28.250 -15.327  -3.358  0.00  0.00     0.040 C 
ATOM     30  C   UNL d   1      26.969 -14.767  -3.448  0.00  0.00     0.054 C 
ATOM     31  C   UNL d   1      26.310 -14.523  -4.662  0.00  0.00     0.071 C 
ATOM     32  C   UNL d   1      27.103 -14.403  -5.770  0.00  0.00     0.073 C 
ATOM     33  C   UNL d   1      28.434 -14.827  -5.694  0.00  0.00     0.071 C 
ATOM     34  C   UNL d   1      28.963 -15.423  -4.532  0.00  0.00     0.054 C 
BRANCH  31  35
ATOM     35  O   UNL d   1      24.944 -14.450  -4.640  0.00  0.00    -0.356 OA
ATOM     36  C   UNL d   1      24.317 -14.075  -3.411  0.00  0.00     0.210 C 
ENDBRANCH  31  35
BRANCH  33  37
ATOM     37  O   UNL d   1      29.158 -14.565  -6.824  0.00  0.00    -0.356 OA
ATOM     38  C   UNL d   1      28.678 -13.444  -7.542  0.00  0.00     0.210 C 
ENDBRANCH  33  37
ENDBRANCH   4  29
TORSDOF 8
ENDMDL
MODEL 6
REMARK VINA RESULT:    -8.986      1.969      3.265
REMARK INTER + INTRA:         -14.100
REMARK INTER:                 -11.372
REMARK INTRA:                  -2.728
REMARK CONF_INDEPENDENT:        2.386
REMARK UNBOUND:                -2.728
REMARK  8 active torsions:
REMARK  status: ('A' for Active; 'I' for Inactive)
REMARK    1  A    between atoms: C_2  and  C_3 
REMARK    2  A    between atoms: C_7  and  N_8 
REMARK       I    between atoms: N_8  and  C_9 
REMARK       I    between atoms: C_9  and  N_23 
REMARK       I    between atoms: N_10  and  C_11 
REMARK    3  A    between atoms: C_11  and  C_13 
REMARK    4  A    between atoms: C_15  and  O_16 
REMARK    5  A    between atoms: C_19  and  O_20 
REMARK    6  A    between atoms: N_23  and  C_24 
REMARK    7  A    between atoms: C_24  and  C_25 
REMARK    8  A    between atoms: C_25  and  C_26 
ROOT
ATOM      1  N   UNL d   1      27.010 -17.907  -0.170  0.00  0.00    -0.190 N 
ATOM      2  C   UNL d   1      28.156 -17.449  -0.847  0.00  0.00     0.704 C 
ATOM      3  N   UNL d   1      28.368 -16.445  -1.661  0.00  0.00    -0.023 NA
ATOM      4  C   UNL d   1      27.678 -15.268  -1.468  0.00  0.00     0.294 C 
ATOM      5  O   UNL d   1      27.415 -14.860  -0.376  0.00  0.00    -0.265 OA
ATOM      6  N   UNL d   1      29.321 -18.197  -0.620  0.00  0.00    -0.224 N 
ATOM      7  H   UNL d   1      27.141 -18.575   0.580  0.00  0.00     0.184 HD
ATOM      8  H   UNL d   1      29.396 -18.750   0.230  0.00  0.00     0.177 HD
ENDROOT
BRANCH   1   9
ATOM      9  C   UNL d   1      25.646 -17.468  -0.288  0.00  0.00     0.049 C 
ATOM     10  C   UNL d   1      25.237 -16.394  -1.097  0.00  0.00     0.030 C 
ATOM     11  C   UNL d   1      23.860 -16.142  -1.345  0.00  0.00     0.003 C 
ATOM     12  C   UNL d   1      22.879 -17.013  -0.894  0.00  0.00     0.007 C 
ATOM     13  C   UNL d   1      23.277 -18.109  -0.171  0.00  0.00    -0.056 C 
ATOM     14  C   UNL d   1      24.595 -18.148   0.324  0.00  0.00     0.037 C 
BRANCH  13  15
ATOM     15  C   UNL d   1      22.387 -19.325  -0.145  0.00  0.00     0.034 C 
ATOM     16  C   UNL d   1      20.958 -18.993  -0.661  0.00  0.00     0.010 C 
ENDBRANCH  13  15
ENDBRANCH   1   9
BRANCH   6  17
ATOM     17  C   UNL d   1      30.588 -17.649  -1.164  0.00  0.00     0.142 C 
BRANCH  17  18
ATOM     18  C   UNL d   1      30.965 -18.171  -2.533  0.00  0.00     0.057 C 
BRANCH  18  19
ATOM     19  C   UNL d   1      30.679 -17.279  -3.716  0.00  0.00    -0.048 A 
ATOM     20  C   UNL d   1      31.001 -15.987  -3.653  0.00  0.00    -0.006 A 
ATOM     21  C   UNL d   1      31.599 -15.247  -2.602  0.00  0.00     0.014 A 
ATOM     22  C   UNL d   1      30.570 -15.367  -4.910  0.00  0.00     0.038 A 
ATOM     23  C   UNL d   1      31.675 -13.920  -2.727  0.00  0.00     0.001 A 
ATOM     24  C   UNL d   1      31.288 -13.259  -3.963  0.00  0.00     0.002 A 
ATOM     25  C   UNL d   1      30.760 -13.902  -5.028  0.00  0.00     0.030 A 
ATOM     26  N   UNL d   1      30.079 -16.236  -5.711  0.00  0.00    -0.385 N 
ATOM     27  C   UNL d   1      30.043 -17.587  -5.048  0.00  0.00     0.155 A 
ATOM     28  H   UNL d   1      29.774 -16.000  -6.656  0.00  0.00     0.160 HD
ENDBRANCH  18  19
ENDBRANCH  17  18
ENDBRANCH   6  17
BRANCH   4  29
ATOM     29  C   UNL d   1      27.371 -14.427  -2.701  0.00  0.00     0.040 C 
ATOM     30  C   UNL d   1      27.378 -15.033  -3.965  0.00  0.00     0.054 C 
ATOM     31  C   UNL d   1      27.391 -14.317  -5.170  0.00  0.00     0.071 C 
ATOM     32  C   UNL d   1      26.930 -13.030  -5.118  0.00  0.00     0.073 C 
ATOM     33  C   UNL d   1      26.777 -12.421  -3.869  0.00  0.00     0.071 C 
ATOM     34  C   UNL d   1      27.137 -13.070  -2.671  0.00  0.00     0.054 C 
BRANCH  31  35
ATOM     35  O   UNL d   1      27.881 -14.950  -6.280  0.00  0.00    -0.356 OA
ATOM     36  C   UNL d   1      28.530 -14.148  -7.270  0.00  0.00     0.210 C 
ENDBRANCH  31  35
BRANCH  33  37
ATOM     37  O   UNL d   1      26.213 -11.176  -3.931  0.00  0.00    -0.356 OA
ATOM     38  C   UNL d   1      26.705 -10.398  -5.006  0.00  0.00     0.210 C 
ENDBRANCH  33  37
ENDBRANCH   4  29
TORSDOF 8
ENDMDL
MODEL 7
REMARK VINA RESULT:    -8.678      4.763      7.630
REMARK INTER + INTRA:         -14.008
REMARK INTER:                 -11.065
REMARK INTRA:                  -2.943
REMARK CONF_INDEPENDENT:        2.386
REMARK UNBOUND:                -2.943
REMARK  8 active torsions:
REMARK  status: ('A' for Active; 'I' for Inactive)
REMARK    1  A    between atoms: C_2  and  C_3 
REMARK    2  A    between atoms: C_7  and  N_8 
REMARK       I    between atoms: N_8  and  C_9 
REMARK       I    between atoms: C_9  and  N_23 
REMARK       I    between atoms: N_10  and  C_11 
REMARK    3  A    between atoms: C_11  and  C_13 
REMARK    4  A    between atoms: C_15  and  O_16 
REMARK    5  A    between atoms: C_19  and  O_20 
REMARK    6  A    between atoms: N_23  and  C_24 
REMARK    7  A    between atoms: C_24  and  C_25 
REMARK    8  A    between atoms: C_25  and  C_26 
ROOT
ATOM      1  N   UNL d   1      28.420 -16.792   0.180  0.00  0.00    -0.190 N 
ATOM      2  C   UNL d   1      29.354 -15.829   0.605  0.00  0.00     0.704 C 
ATOM      3  N   UNL d   1      29.251 -14.557   0.898  0.00  0.00    -0.023 NA
ATOM      4  C   UNL d   1      28.096 -14.096   1.492  0.00  0.00     0.294 C 
ATOM      5  O   UNL d   1      27.491 -14.749   2.290  0.00  0.00    -0.265 OA
ATOM      6  N   UNL d   1      30.666 -16.300   0.761  0.00  0.00    -0.224 N 
ATOM      7  H   UNL d   1      28.690 -17.766   0.229  0.00  0.00     0.184 HD
ATOM      8  H   UNL d   1      30.820 -17.292   0.921  0.00  0.00     0.177 HD
ENDROOT
BRANCH   1   9
ATOM      9  C   UNL d   1      27.046 -16.619  -0.209  0.00  0.00     0.049 C 
ATOM     10  C   UNL d   1      26.631 -15.790  -1.265  0.00  0.00     0.030 C 
ATOM     11  C   UNL d   1      25.293 -15.822  -1.744  0.00  0.00     0.003 C 
ATOM     12  C   UNL d   1      24.382 -16.754  -1.267  0.00  0.00     0.007 C 
ATOM     13  C   UNL d   1      24.805 -17.622  -0.291  0.00  0.00    -0.056 C 
ATOM     14  C   UNL d   1      26.014 -17.349   0.377  0.00  0.00     0.037 C 
BRANCH  13  15
ATOM     15  C   UNL d   1      24.103 -18.948  -0.144  0.00  0.00     0.034 C 
ATOM     16  C   UNL d   1      22.713 -18.934  -0.840  0.00  0.00     0.010 C 
ENDBRANCH  13  15
ENDBRANCH   1   9
BRANCH   6  17
ATOM     17  C   UNL d   1      31.644 -15.372   1.380  0.00  0.00     0.142 C 
BRANCH  17  18
ATOM     18  C   UNL d   1      31.493 -15.200   2.875  0.00  0.00     0.057 C 
BRANCH  18  19
ATOM     19  C   UNL d   1      30.989 -13.867   3.370  0.00  0.00    -0.048 A 
ATOM     20  C   UNL d   1      29.964 -13.831   4.222  0.00  0.00    -0.006 A 
ATOM     21  C   UNL d   1      29.205 -14.890   4.780  0.00  0.00     0.014 A 
ATOM     22  C   UNL d   1      29.666 -12.421   4.490  0.00  0.00     0.038 A 
ATOM     23  C   UNL d   1      28.118 -14.584   5.491  0.00  0.00     0.001 A 
ATOM     24  C   UNL d   1      27.795 -13.202   5.809  0.00  0.00     0.002 A 
ATOM     25  C   UNL d   1      28.500 -12.141   5.360  0.00  0.00     0.030 A 
ATOM     26  N   UNL d   1      30.497 -11.651   3.894  0.00  0.00    -0.385 N 
ATOM     27  C   UNL d   1      31.448 -12.465   3.058  0.00  0.00     0.155 A 
ATOM     28  H   UNL d   1      30.481 -10.636   4.005  0.00  0.00     0.160 HD
ENDBRANCH  18  19
ENDBRANCH  17  18
ENDBRANCH   6  17
BRANCH   4  29
ATOM     29  C   UNL d   1      27.681 -12.660   1.195  0.00  0.00     0.040 C 
ATOM     30  C   UNL d   1      27.593 -12.232  -0.136  0.00  0.00     0.054 C 
ATOM     31  C   UNL d   1      27.500 -10.886  -0.516  0.00  0.00     0.071 C 
ATOM     32  C   UNL d   1      27.030 -10.018   0.432  0.00  0.00     0.073 C 
ATOM     33  C   UNL d   1      26.972 -10.443   1.763  0.00  0.00     0.071 C 
ATOM     34  C   UNL d   1      27.435 -11.712   2.163  0.00  0.00     0.054 C 
BRANCH  31  35
ATOM     35  O   UNL d   1      27.906 -10.552  -1.779  0.00  0.00    -0.356 OA
ATOM     36  C   UNL d   1      26.900 -10.415  -2.786  0.00  0.00     0.210 C 
ENDBRANCH  31  35
BRANCH  33  37
ATOM     37  O   UNL d   1      26.391  -9.534   2.604  0.00  0.00    -0.356 OA
ATOM     38  C   UNL d   1      27.057  -9.426   3.848  0.00  0.00     0.210 C 
ENDBRANCH  33  37
ENDBRANCH   4  29
TORSDOF 8
ENDMDL
MODEL 8
REMARK VINA RESULT:    -8.534      1.512      2.964
REMARK INTER + INTRA:         -14.097
REMARK INTER:                 -10.920
REMARK INTRA:                  -3.177
REMARK CONF_INDEPENDENT:        2.386
REMARK UNBOUND:                -3.177
REMARK  8 active torsions:
REMARK  status: ('A' for Active; 'I' for Inactive)
REMARK    1  A    between atoms: C_2  and  C_3 
REMARK    2  A    between atoms: C_7  and  N_8 
REMARK       I    between atoms: N_8  and  C_9 
REMARK       I    between atoms: C_9  and  N_23 
REMARK       I    between atoms: N_10  and  C_11 
REMARK    3  A    between atoms: C_11  and  C_13 
REMARK    4  A    between atoms: C_15  and  O_16 
REMARK    5  A    between atoms: C_19  and  O_20 
REMARK    6  A    between atoms: N_23  and  C_24 
REMARK    7  A    between atoms: C_24  and  C_25 
REMARK    8  A    between atoms: C_25  and  C_26 
ROOT
ATOM      1  N   UNL d   1      28.186 -18.060  -0.212  0.00  0.00    -0.190 N 
ATOM      2  C   UNL d   1      29.310 -17.429  -0.776  0.00  0.00     0.704 C 
ATOM      3  N   UNL d   1      29.450 -16.386  -1.555  0.00  0.00    -0.023 NA
ATOM      4  C   UNL d   1      28.584 -15.323  -1.413  0.00  0.00     0.294 C 
ATOM      5  O   UNL d   1      28.169 -14.983  -0.345  0.00  0.00    -0.265 OA
ATOM      6  N   UNL d   1      30.545 -18.010  -0.450  0.00  0.00    -0.224 N 
ATOM      7  H   UNL d   1      28.342 -18.721   0.539  0.00  0.00     0.184 HD
ATOM      8  H   UNL d   1      30.621 -18.568   0.397  0.00  0.00     0.177 HD
ENDROOT
BRANCH   1   9
ATOM      9  C   UNL d   1      26.789 -17.816  -0.450  0.00  0.00     0.049 C 
ATOM     10  C   UNL d   1      25.761 -18.274   0.391  0.00  0.00     0.030 C 
ATOM     11  C   UNL d   1      24.422 -17.825   0.229  0.00  0.00     0.003 C 
ATOM     12  C   UNL d   1      24.104 -16.831  -0.686  0.00  0.00     0.007 C 
ATOM     13  C   UNL d   1      25.119 -16.321  -1.456  0.00  0.00    -0.056 C 
ATOM     14  C   UNL d   1      26.347 -17.009  -1.497  0.00  0.00     0.037 C 
BRANCH  13  15
ATOM     15  C   UNL d   1      24.973 -14.931  -2.023  0.00  0.00     0.034 C 
ATOM     16  C   UNL d   1      25.156 -14.927  -3.567  0.00  0.00     0.010 C 
ENDBRANCH  13  15
ENDBRANCH   1   9
BRANCH   6  17
ATOM     17  C   UNL d   1      31.765 -17.276  -0.868  0.00  0.00     0.142 C 
BRANCH  17  18
ATOM     18  C   UNL d   1      32.431 -17.818  -2.114  0.00  0.00     0.057 C 
BRANCH  18  19
ATOM     19  C   UNL d   1      31.798 -17.475  -3.441  0.00  0.00    -0.048 A 
ATOM     20  C   UNL d   1      31.379 -18.458  -4.238  0.00  0.00    -0.006 A 
ATOM     21  C   UNL d   1      31.429 -19.863  -4.056  0.00  0.00     0.014 A 
ATOM     22  C   UNL d   1      30.858 -17.839  -5.460  0.00  0.00     0.038 A 
ATOM     23  C   UNL d   1      31.084 -20.647  -5.080  0.00  0.00     0.001 A 
ATOM     24  C   UNL d   1      30.534 -20.084  -6.303  0.00  0.00     0.002 A 
ATOM     25  C   UNL d   1      30.405 -18.758  -6.530  0.00  0.00     0.030 A 
ATOM     26  N   UNL d   1      30.896 -16.561  -5.385  0.00  0.00    -0.385 N 
ATOM     27  C   UNL d   1      31.539 -16.140  -4.091  0.00  0.00     0.155 A 
ATOM     28  H   UNL d   1      30.526 -15.958  -6.120  0.00  0.00     0.160 HD
ENDBRANCH  18  19
ENDBRANCH  17  18
ENDBRANCH   6  17
BRANCH   4  29
ATOM     29  C   UNL d   1      28.272 -14.504  -2.660  0.00  0.00     0.040 C 
ATOM     30  C   UNL d   1      28.156 -15.153  -3.897  0.00  0.00     0.054 C 
ATOM     31  C   UNL d   1      28.155 -14.484  -5.129  0.00  0.00     0.071 C 
ATOM     32  C   UNL d   1      27.800 -13.162  -5.102  0.00  0.00     0.073 C 
ATOM     33  C   UNL d   1      27.771 -12.499  -3.871  0.00  0.00     0.071 C 
ATOM     34  C   UNL d   1      28.149 -13.133  -2.671  0.00  0.00     0.054 C 
BRANCH  31  35
ATOM     35  O   UNL d   1      28.526 -15.193  -6.238  0.00  0.00    -0.356 OA
ATOM     36  C   UNL d   1      29.228 -14.494  -7.270  0.00  0.00     0.210 C 
ENDBRANCH  31  35
BRANCH  33  37
ATOM     37  O   UNL d   1      27.304 -11.216  -3.952  0.00  0.00    -0.356 OA
ATOM     38  C   UNL d   1      25.903 -11.146  -4.141  0.00  0.00     0.210 C 
ENDBRANCH  33  37
ENDBRANCH   4  29
TORSDOF 8
ENDMDL
MODEL 9
REMARK VINA RESULT:    -8.360      2.676      4.346
REMARK INTER + INTRA:         -13.999
REMARK INTER:                 -10.747
REMARK INTRA:                  -3.252
REMARK CONF_INDEPENDENT:        2.386
REMARK UNBOUND:                -3.252
REMARK  8 active torsions:
REMARK  status: ('A' for Active; 'I' for Inactive)
REMARK    1  A    between atoms: C_2  and  C_3 
REMARK    2  A    between atoms: C_7  and  N_8 
REMARK       I    between atoms: N_8  and  C_9 
REMARK       I    between atoms: C_9  and  N_23 
REMARK       I    between atoms: N_10  and  C_11 
REMARK    3  A    between atoms: C_11  and  C_13 
REMARK    4  A    between atoms: C_15  and  O_16 
REMARK    5  A    between atoms: C_19  and  O_20 
REMARK    6  A    between atoms: N_23  and  C_24 
REMARK    7  A    between atoms: C_24  and  C_25 
REMARK    8  A    between atoms: C_25  and  C_26 
ROOT
ATOM      1  N   UNL d   1      26.743 -17.945  -0.260  0.00  0.00    -0.190 N 
ATOM      2  C   UNL d   1      27.931 -17.236  -0.512  0.00  0.00     0.704 C 
ATOM      3  N   UNL d   1      28.183 -15.971  -0.739  0.00  0.00    -0.023 NA
ATOM      4  C   UNL d   1      27.423 -15.011  -0.106  0.00  0.00     0.294 C 
ATOM      5  O   UNL d   1      27.027 -15.155   1.013  0.00  0.00    -0.265 OA
ATOM      6  N   UNL d   1      29.099 -18.014  -0.522  0.00  0.00    -0.224 N 
ATOM      7  H   UNL d   1      26.823 -18.886   0.106  0.00  0.00     0.184 HD
ATOM      8  H   UNL d   1      29.108 -18.898  -0.022  0.00  0.00     0.177 HD
ENDROOT
BRANCH   1   9
ATOM      9  C   UNL d   1      25.380 -17.490  -0.319  0.00  0.00     0.049 C 
ATOM     10  C   UNL d   1      24.958 -16.383  -1.075  0.00  0.00     0.030 C 
ATOM     11  C   UNL d   1      23.577 -16.108  -1.270  0.00  0.00     0.003 C 
ATOM     12  C   UNL d   1      22.600 -16.987  -0.822  0.00  0.00     0.007 C 
ATOM     13  C   UNL d   1      23.009 -18.113  -0.152  0.00  0.00    -0.056 C 
ATOM     14  C   UNL d   1      24.341 -18.182   0.300  0.00  0.00     0.037 C 
BRANCH  13  15
ATOM     15  C   UNL d   1      22.108 -19.321  -0.143  0.00  0.00     0.034 C 
ATOM     16  C   UNL d   1      20.875 -19.115  -1.068  0.00  0.00     0.010 C 
ENDBRANCH  13  15
ENDBRANCH   1   9
BRANCH   6  17
ATOM     17  C   UNL d   1      30.390 -17.287  -0.601  0.00  0.00     0.142 C 
BRANCH  17  18
ATOM     18  C   UNL d   1      30.778 -16.839  -1.993  0.00  0.00     0.057 C 
BRANCH  18  19
ATOM     19  C   UNL d   1      30.535 -15.392  -2.346  0.00  0.00    -0.048 A 
ATOM     20  C   UNL d   1      29.725 -15.094  -3.362  0.00  0.00    -0.006 A 
ATOM     21  C   UNL d   1      29.006 -15.950  -4.235  0.00  0.00     0.014 A 
ATOM     22  C   UNL d   1      29.714 -13.635  -3.502  0.00  0.00     0.038 A 
ATOM     23  C   UNL d   1      28.383 -15.405  -5.283  0.00  0.00     0.001 A 
ATOM     24  C   UNL d   1      28.318 -13.962  -5.450  0.00  0.00     0.002 A 
ATOM     25  C   UNL d   1      28.932 -13.080  -4.631  0.00  0.00     0.030 A 
ATOM     26  N   UNL d   1      30.418 -13.078  -2.589  0.00  0.00    -0.385 N 
ATOM     27  C   UNL d   1      31.078 -14.126  -1.733  0.00  0.00     0.155 A 
ATOM     28  H   UNL d   1      30.486 -12.064  -2.492  0.00  0.00     0.160 HD
ENDBRANCH  18  19
ENDBRANCH  17  18
ENDBRANCH   6  17
BRANCH   4  29
ATOM     29  C   UNL d   1      27.211 -13.691  -0.837  0.00  0.00     0.040 C 
ATOM     30  C   UNL d   1      26.295 -13.633  -1.897  0.00  0.00     0.054 C 
ATOM     31  C   UNL d   1      26.227 -12.570  -2.808  0.00  0.00     0.071 C 
ATOM     32  C   UNL d   1      26.743 -11.374  -2.387  0.00  0.00     0.073 C 
ATOM     33  C   UNL d   1      27.559 -11.358  -1.251  0.00  0.00     0.071 C 
ATOM     34  C   UNL d   1      27.910 -12.537  -0.565  0.00  0.00     0.054 C 
BRANCH  31  35
ATOM     35  O   UNL d   1      25.678 -12.818  -4.036  0.00  0.00    -0.356 OA
ATOM     36  C   UNL d   1      25.153 -14.127  -4.277  0.00  0.00     0.210 C 
ENDBRANCH  31  35
BRANCH  33  37
ATOM     37  O   UNL d   1      27.933 -10.100  -0.863  0.00  0.00    -0.356 OA
ATOM     38  C   UNL d   1      28.063  -9.969   0.540  0.00  0.00     0.210 C 
ENDBRANCH  33  37
ENDBRANCH   4  29
TORSDOF 8
ENDMDL
