MODEL 1
REMARK VINA RESULT:    -7.729      0.000      0.000
REMARK INTER + INTRA:         -10.844
REMARK INTER:                  -9.817
REMARK INTRA:                  -1.027
REMARK CONF_INDEPENDENT:        2.088
REMARK UNBOUND:                -1.027
REMARK  7 active torsions:
REMARK  status: ('A' for Active; 'I' for Inactive)
REMARK    1  A    between atoms: C_2  and  C_3 
REMARK    2  A    between atoms: C_3  and  N_4 
REMARK       I    between atoms: N_4  and  C_5 
REMARK    3  A    between atoms: C_5  and  C_7 
REMARK    4  A    between atoms: C_10  and  N_11 
REMARK       I    between atoms: N_11  and  C_12 
REMARK    5  A    between atoms: C_12  and  C_14 
REMARK       I    between atoms: C_14  and  N_16 
REMARK    6  A    between atoms: N_16  and  C_17 
REMARK    7  A    between atoms: C_17  and  C_18 
ROOT
ATOM      1  C   UNL d   1      24.566 -17.334  -0.526  0.00  0.00     0.053 A 
ATOM      2  C   UNL d   1      25.170 -18.200   0.408  0.00  0.00     0.021 A 
ATOM      3  C   UNL d   1      26.585 -18.278   0.536  0.00  0.00     0.030 A 
ATOM      4  C   UNL d   1      27.421 -17.478  -0.261  0.00  0.00     0.036 A 
ATOM      5  C   UNL d   1      26.790 -16.604  -1.152  0.00  0.00     0.054 A 
ATOM      6  C   UNL d   1      25.397 -16.519  -1.287  0.00  0.00     0.051 A 
ATOM      7 CL   UNL d   1      24.811 -15.325  -2.395  0.00  0.00    -0.083 Cl
ENDROOT
BRANCH   4   8
ATOM      8  N   UNL d   1      28.851 -17.546  -0.167  0.00  0.00    -0.319 N 
ATOM      9  C   UNL d   1      29.740 -17.325  -1.233  0.00  0.00     0.313 C 
ATOM     10  O   UNL d   1      29.455 -17.043  -2.394  0.00  0.00    -0.262 OA
ATOM     11  H   UNL d   1      29.272 -17.776   0.732  0.00  0.00     0.169 HD
BRANCH   9  12
ATOM     12  C   UNL d   1      31.256 -17.451  -0.942  0.00  0.00     0.309 C 
ATOM     13  O   UNL d   1      32.072 -16.823  -1.606  0.00  0.00    -0.262 OA
ATOM     14  N   UNL d   1      31.556 -18.312   0.107  0.00  0.00    -0.348 N 
ATOM     15  H   UNL d   1      30.777 -18.762   0.585  0.00  0.00     0.163 HD
BRANCH  14  16
ATOM     16  C   UNL d   1      32.908 -18.560   0.555  0.00  0.00     0.169 C 
BRANCH  16  17
ATOM     17  C   UNL d   1      33.015 -19.400   1.807  0.00  0.00     0.000 A 
ATOM     18  C   UNL d   1      33.729 -19.070   2.951  0.00  0.00     0.017 A 
ATOM     19  C   UNL d   1      33.632 -20.052   3.980  0.00  0.00     0.008 A 
ATOM     20  C   UNL d   1      32.839 -21.110   3.599  0.00  0.00     0.050 A 
ATOM     21  S   UNL d   1      32.207 -20.899   2.021  0.00  0.00    -0.105 SA
ENDBRANCH  16  17
ENDBRANCH  14  16
ENDBRANCH   9  12
ENDBRANCH   4   8
BRANCH   1  22
ATOM     22  C   UNL d   1      23.075 -17.286  -0.638  0.00  0.00     0.253 C 
ATOM     23  N   UNL d   1      22.407 -18.499  -0.700  0.00  0.00    -0.357 N 
ATOM     24  H   UNL d   1      22.944 -19.357  -0.748  0.00  0.00     0.162 HD
ATOM     25  O   UNL d   1      22.505 -16.199  -0.646  0.00  0.00    -0.268 OA
BRANCH  23  26
ATOM     26  C   UNL d   1      20.968 -18.573  -0.896  0.00  0.00     0.122 C 
BRANCH  26  27
ATOM     27  C   UNL d   1      20.360 -19.855  -0.325  0.00  0.00     0.015 C 
ATOM     28  C   UNL d   1      20.039 -19.703   1.156  0.00  0.00     0.006 C 
ENDBRANCH  26  27
ENDBRANCH  23  26
ENDBRANCH   1  22
TORSDOF 7
ENDMDL
MODEL 2
REMARK VINA RESULT:    -7.512      3.192      9.617
REMARK INTER + INTRA:         -11.520
REMARK INTER:                  -9.600
REMARK INTRA:                  -1.920
REMARK CONF_INDEPENDENT:        2.088
REMARK UNBOUND:                -1.920
REMARK  7 active torsions:
REMARK  status: ('A' for Active; 'I' for Inactive)
REMARK    1  A    between atoms: C_2  and  C_3 
REMARK    2  A    between atoms: C_3  and  N_4 
REMARK       I    between atoms: N_4  and  C_5 
REMARK    3  A    between atoms: C_5  and  C_7 
REMARK    4  A    between atoms: C_10  and  N_11 
REMARK       I    between atoms: N_11  and  C_12 
REMARK    5  A    between atoms: C_12  and  C_14 
REMARK       I    between atoms: C_14  and  N_16 
REMARK    6  A    between atoms: N_16  and  C_17 
REMARK    7  A    between atoms: C_17  and  C_18 
ROOT
ATOM      1  C   UNL d   1      28.752 -16.369  -0.849  0.00  0.00     0.053 A 
ATOM      2  C   UNL d   1      28.043 -16.861   0.266  0.00  0.00     0.021 A 
ATOM      3  C   UNL d   1      26.629 -17.011   0.234  0.00  0.00     0.030 A 
ATOM      4  C   UNL d   1      25.899 -16.684  -0.921  0.00  0.00     0.036 A 
ATOM      5  C   UNL d   1      26.636 -16.231  -2.020  0.00  0.00     0.054 A 
ATOM      6  C   UNL d   1      28.030 -16.080  -2.001  0.00  0.00     0.051 A 
ATOM      7 CL   UNL d   1      28.761 -15.574  -3.486  0.00  0.00    -0.083 Cl
ENDROOT
BRANCH   4   8
ATOM      8  N   UNL d   1      24.472 -16.807  -0.978  0.00  0.00    -0.319 N 
ATOM      9  C   UNL d   1      23.754 -17.991  -0.733  0.00  0.00     0.313 C 
ATOM     10  O   UNL d   1      24.213 -19.091  -0.435  0.00  0.00    -0.262 OA
ATOM     11  H   UNL d   1      23.919 -15.986  -1.218  0.00  0.00     0.169 HD
BRANCH   9  12
ATOM     12  C   UNL d   1      22.211 -17.933  -0.850  0.00  0.00     0.309 C 
ATOM     13  O   UNL d   1      21.631 -16.854  -0.894  0.00  0.00    -0.262 OA
ATOM     14  N   UNL d   1      21.604 -19.182  -0.897  0.00  0.00    -0.348 N 
ATOM     15  H   UNL d   1      22.209 -20.001  -0.865  0.00  0.00     0.163 HD
BRANCH  14  16
ATOM     16  C   UNL d   1      20.174 -19.354  -1.023  0.00  0.00     0.169 C 
BRANCH  16  17
ATOM     17  C   UNL d   1      19.496 -19.929   0.199  0.00  0.00     0.000 A 
ATOM     18  C   UNL d   1      18.435 -20.824   0.198  0.00  0.00     0.017 A 
ATOM     19  C   UNL d   1      18.015 -21.202   1.506  0.00  0.00     0.008 A 
ATOM     20  C   UNL d   1      18.771 -20.591   2.480  0.00  0.00     0.050 A 
ATOM     21  S   UNL d   1      19.986 -19.587   1.809  0.00  0.00    -0.105 SA
ENDBRANCH  16  17
ENDBRANCH  14  16
ENDBRANCH   9  12
ENDBRANCH   4   8
BRANCH   1  22
ATOM     22  C   UNL d   1      30.239 -16.217  -0.775  0.00  0.00     0.253 C 
ATOM     23  N   UNL d   1      30.950 -17.248  -0.180  0.00  0.00    -0.357 N 
ATOM     24  H   UNL d   1      30.444 -18.015   0.246  0.00  0.00     0.162 HD
ATOM     25  O   UNL d   1      30.768 -15.219  -1.253  0.00  0.00    -0.268 OA
BRANCH  23  26
ATOM     26  C   UNL d   1      32.387 -17.170   0.023  0.00  0.00     0.122 C 
BRANCH  26  27
ATOM     27  C   UNL d   1      32.772 -17.103   1.502  0.00  0.00     0.015 C 
ATOM     28  C   UNL d   1      32.640 -15.686   2.043  0.00  0.00     0.006 C 
ENDBRANCH  26  27
ENDBRANCH  23  26
ENDBRANCH   1  22
TORSDOF 7
ENDMDL
MODEL 3
REMARK VINA RESULT:    -7.048      5.971      8.104
REMARK INTER + INTRA:         -10.941
REMARK INTER:                  -9.136
REMARK INTRA:                  -1.805
REMARK CONF_INDEPENDENT:        2.088
REMARK UNBOUND:                -1.805
REMARK  7 active torsions:
REMARK  status: ('A' for Active; 'I' for Inactive)
REMARK    1  A    between atoms: C_2  and  C_3 
REMARK    2  A    between atoms: C_3  and  N_4 
REMARK       I    between atoms: N_4  and  C_5 
REMARK    3  A    between atoms: C_5  and  C_7 
REMARK    4  A    between atoms: C_10  and  N_11 
REMARK       I    between atoms: N_11  and  C_12 
REMARK    5  A    between atoms: C_12  and  C_14 
REMARK       I    between atoms: C_14  and  N_16 
REMARK    6  A    between atoms: N_16  and  C_17 
REMARK    7  A    between atoms: C_17  and  C_18 
ROOT
ATOM      1  C   UNL d   1      24.784 -17.158  -1.020  0.00  0.00     0.053 A 
ATOM      2  C   UNL d   1      24.276 -16.304  -2.020  0.00  0.00     0.021 A 
ATOM      3  C   UNL d   1      25.142 -15.511  -2.824  0.00  0.00     0.030 A 
ATOM      4  C   UNL d   1      26.535 -15.571  -2.651  0.00  0.00     0.036 A 
ATOM      5  C   UNL d   1      27.008 -16.454  -1.676  0.00  0.00     0.054 A 
ATOM      6  C   UNL d   1      26.165 -17.240  -0.878  0.00  0.00     0.051 A 
ATOM      7 CL   UNL d   1      26.949 -18.322   0.224  0.00  0.00    -0.083 Cl
ENDROOT
BRANCH   4   8
ATOM      8  N   UNL d   1      27.432 -14.772  -3.434  0.00  0.00    -0.319 N 
ATOM      9  C   UNL d   1      27.561 -14.839  -4.833  0.00  0.00     0.313 C 
ATOM     10  O   UNL d   1      26.943 -15.570  -5.603  0.00  0.00    -0.262 OA
ATOM     11  H   UNL d   1      28.035 -14.103  -2.957  0.00  0.00     0.169 HD
BRANCH   9  12
ATOM     12  C   UNL d   1      28.592 -13.900  -5.504  0.00  0.00     0.309 C 
ATOM     13  O   UNL d   1      29.229 -13.094  -4.835  0.00  0.00    -0.262 OA
ATOM     14  N   UNL d   1      28.701 -14.076  -6.879  0.00  0.00    -0.348 N 
ATOM     15  H   UNL d   1      28.120 -14.794  -7.309  0.00  0.00     0.163 HD
BRANCH  14  16
ATOM     16  C   UNL d   1      29.617 -13.314  -7.697  0.00  0.00     0.169 C 
BRANCH  16  17
ATOM     17  C   UNL d   1      28.970 -12.237  -8.536  0.00  0.00     0.000 A 
ATOM     18  C   UNL d   1      28.949 -10.880  -8.245  0.00  0.00     0.017 A 
ATOM     19  C   UNL d   1      28.277 -10.102  -9.232  0.00  0.00     0.008 A 
ATOM     20  C   UNL d   1      27.804 -10.883 -10.261  0.00  0.00     0.050 A 
ATOM     21  S   UNL d   1      28.192 -12.537 -10.036  0.00  0.00    -0.105 SA
ENDBRANCH  16  17
ENDBRANCH  14  16
ENDBRANCH   9  12
ENDBRANCH   4   8
BRANCH   1  22
ATOM     22  C   UNL d   1      23.842 -17.970  -0.189  0.00  0.00     0.253 C 
ATOM     23  N   UNL d   1      22.653 -18.363  -0.784  0.00  0.00    -0.357 N 
ATOM     24  H   UNL d   1      22.432 -18.028  -1.714  0.00  0.00     0.162 HD
ATOM     25  O   UNL d   1      24.157 -18.274   0.957  0.00  0.00    -0.268 OA
BRANCH  23  26
ATOM     26  C   UNL d   1      21.627 -19.081  -0.046  0.00  0.00     0.122 C 
BRANCH  26  27
ATOM     27  C   UNL d   1      20.325 -19.229  -0.835  0.00  0.00     0.015 C 
ATOM     28  C   UNL d   1      19.269 -19.968  -0.025  0.00  0.00     0.006 C 
ENDBRANCH  26  27
ENDBRANCH  23  26
ENDBRANCH   1  22
TORSDOF 7
ENDMDL
MODEL 4
REMARK VINA RESULT:    -6.974      4.885      6.365
REMARK INTER + INTRA:         -11.042
REMARK INTER:                  -9.062
REMARK INTRA:                  -1.979
REMARK CONF_INDEPENDENT:        2.088
REMARK UNBOUND:                -1.979
REMARK  7 active torsions:
REMARK  status: ('A' for Active; 'I' for Inactive)
REMARK    1  A    between atoms: C_2  and  C_3 
REMARK    2  A    between atoms: C_3  and  N_4 
REMARK       I    between atoms: N_4  and  C_5 
REMARK    3  A    between atoms: C_5  and  C_7 
REMARK    4  A    between atoms: C_10  and  N_11 
REMARK       I    between atoms: N_11  and  C_12 
REMARK    5  A    between atoms: C_12  and  C_14 
REMARK       I    between atoms: C_14  and  N_16 
REMARK    6  A    between atoms: N_16  and  C_17 
REMARK    7  A    between atoms: C_17  and  C_18 
ROOT
ATOM      1  C   UNL d   1      24.537 -16.507  -1.309  0.00  0.00     0.053 A 
ATOM      2  C   UNL d   1      24.457 -15.599  -2.385  0.00  0.00     0.021 A 
ATOM      3  C   UNL d   1      25.624 -15.158  -3.068  0.00  0.00     0.030 A 
ATOM      4  C   UNL d   1      26.894 -15.630  -2.695  0.00  0.00     0.036 A 
ATOM      5  C   UNL d   1      26.936 -16.556  -1.647  0.00  0.00     0.054 A 
ATOM      6  C   UNL d   1      25.792 -16.998  -0.967  0.00  0.00     0.051 A 
ATOM      7 CL   UNL d   1      26.049 -18.200   0.252  0.00  0.00    -0.083 Cl
ENDROOT
BRANCH   4   8
ATOM      8  N   UNL d   1      28.090 -15.191  -3.352  0.00  0.00    -0.319 N 
ATOM      9  C   UNL d   1      28.296 -15.199  -4.743  0.00  0.00     0.313 C 
ATOM     10  O   UNL d   1      27.508 -15.570  -5.609  0.00  0.00    -0.262 OA
ATOM     11  H   UNL d   1      28.864 -14.850  -2.784  0.00  0.00     0.169 HD
BRANCH   9  12
ATOM     12  C   UNL d   1      29.661 -14.693  -5.270  0.00  0.00     0.309 C 
ATOM     13  O   UNL d   1      30.495 -14.232  -4.498  0.00  0.00    -0.262 OA
ATOM     14  N   UNL d   1      29.815 -14.820  -6.645  0.00  0.00    -0.348 N 
ATOM     15  H   UNL d   1      29.045 -15.234  -7.169  0.00  0.00     0.163 HD
BRANCH  14  16
ATOM     16  C   UNL d   1      31.019 -14.425  -7.340  0.00  0.00     0.169 C 
BRANCH  16  17
ATOM     17  C   UNL d   1      31.852 -15.572  -7.864  0.00  0.00     0.000 A 
ATOM     18  C   UNL d   1      33.012 -15.458  -8.619  0.00  0.00     0.017 A 
ATOM     19  C   UNL d   1      33.591 -16.716  -8.956  0.00  0.00     0.008 A 
ATOM     20  C   UNL d   1      32.862 -17.765  -8.445  0.00  0.00     0.050 A 
ATOM     21  S   UNL d   1      31.504 -17.223  -7.551  0.00  0.00    -0.105 SA
ENDBRANCH  16  17
ENDBRANCH  14  16
ENDBRANCH   9  12
ENDBRANCH   4   8
BRANCH   1  22
ATOM     22  C   UNL d   1      23.288 -16.941  -0.610  0.00  0.00     0.253 C 
ATOM     23  N   UNL d   1      23.067 -18.306  -0.503  0.00  0.00    -0.357 N 
ATOM     24  H   UNL d   1      23.703 -18.947  -0.960  0.00  0.00     0.162 HD
ATOM     25  O   UNL d   1      22.531 -16.095  -0.145  0.00  0.00    -0.268 OA
BRANCH  23  26
ATOM     26  C   UNL d   1      21.847 -18.841   0.080  0.00  0.00     0.122 C 
BRANCH  26  27
ATOM     27  C   UNL d   1      20.707 -18.951  -0.934  0.00  0.00     0.015 C 
ATOM     28  C   UNL d   1      19.486 -19.623  -0.321  0.00  0.00     0.006 C 
ENDBRANCH  26  27
ENDBRANCH  23  26
ENDBRANCH   1  22
TORSDOF 7
ENDMDL
MODEL 5
REMARK VINA RESULT:    -6.950      5.089      6.818
REMARK INTER + INTRA:         -10.911
REMARK INTER:                  -9.038
REMARK INTRA:                  -1.872
REMARK CONF_INDEPENDENT:        2.088
REMARK UNBOUND:                -1.872
REMARK  7 active torsions:
REMARK  status: ('A' for Active; 'I' for Inactive)
REMARK    1  A    between atoms: C_2  and  C_3 
REMARK    2  A    between atoms: C_3  and  N_4 
REMARK       I    between atoms: N_4  and  C_5 
REMARK    3  A    between atoms: C_5  and  C_7 
REMARK    4  A    between atoms: C_10  and  N_11 
REMARK       I    between atoms: N_11  and  C_12 
REMARK    5  A    between atoms: C_12  and  C_14 
REMARK       I    between atoms: C_14  and  N_16 
REMARK    6  A    between atoms: N_16  and  C_17 
REMARK    7  A    between atoms: C_17  and  C_18 
ROOT
ATOM      1  C   UNL d   1      24.875 -17.065  -1.003  0.00  0.00     0.053 A 
ATOM      2  C   UNL d   1      24.380 -16.197  -1.998  0.00  0.00     0.021 A 
ATOM      3  C   UNL d   1      25.257 -15.407  -2.792  0.00  0.00     0.030 A 
ATOM      4  C   UNL d   1      26.648 -15.482  -2.613  0.00  0.00     0.036 A 
ATOM      5  C   UNL d   1      27.108 -16.378  -1.642  0.00  0.00     0.054 A 
ATOM      6  C   UNL d   1      26.254 -17.162  -0.854  0.00  0.00     0.051 A 
ATOM      7 CL   UNL d   1      27.022 -18.260   0.241  0.00  0.00    -0.083 Cl
ENDROOT
BRANCH   4   8
ATOM      8  N   UNL d   1      27.557 -14.685  -3.385  0.00  0.00    -0.319 N 
ATOM      9  C   UNL d   1      27.749 -14.798  -4.773  0.00  0.00     0.313 C 
ATOM     10  O   UNL d   1      27.186 -15.573  -5.542  0.00  0.00    -0.262 OA
ATOM     11  H   UNL d   1      28.120 -13.983  -2.907  0.00  0.00     0.169 HD
BRANCH   9  12
ATOM     12  C   UNL d   1      28.783 -13.853  -5.434  0.00  0.00     0.309 C 
ATOM     13  O   UNL d   1      29.391 -13.028  -4.762  0.00  0.00    -0.262 OA
ATOM     14  N   UNL d   1      28.929 -14.049  -6.802  0.00  0.00    -0.348 N 
ATOM     15  H   UNL d   1      28.369 -14.782  -7.235  0.00  0.00     0.163 HD
BRANCH  14  16
ATOM     16  C   UNL d   1      29.854 -13.286  -7.609  0.00  0.00     0.169 C 
BRANCH  16  17
ATOM     17  C   UNL d   1      31.155 -13.992  -7.918  0.00  0.00     0.000 A 
ATOM     18  C   UNL d   1      32.218 -13.462  -8.636  0.00  0.00     0.017 A 
ATOM     19  C   UNL d   1      33.321 -14.357  -8.753  0.00  0.00     0.008 A 
ATOM     20  C   UNL d   1      33.077 -15.551  -8.115  0.00  0.00     0.050 A 
ATOM     21  S   UNL d   1      31.535 -15.573  -7.368  0.00  0.00    -0.105 SA
ENDBRANCH  16  17
ENDBRANCH  14  16
ENDBRANCH   9  12
ENDBRANCH   4   8
BRANCH   1  22
ATOM     22  C   UNL d   1      23.921 -17.874  -0.182  0.00  0.00     0.253 C 
ATOM     23  N   UNL d   1      22.724 -18.238  -0.781  0.00  0.00    -0.357 N 
ATOM     24  H   UNL d   1      22.507 -17.885  -1.705  0.00  0.00     0.162 HD
ATOM     25  O   UNL d   1      24.232 -18.201   0.958  0.00  0.00    -0.268 OA
BRANCH  23  26
ATOM     26  C   UNL d   1      21.688 -18.950  -0.052  0.00  0.00     0.122 C 
BRANCH  26  27
ATOM     27  C   UNL d   1      20.417 -19.153  -0.879  0.00  0.00     0.015 C 
ATOM     28  C   UNL d   1      19.406 -20.016  -0.135  0.00  0.00     0.006 C 
ENDBRANCH  26  27
ENDBRANCH  23  26
ENDBRANCH   1  22
TORSDOF 7
ENDMDL
MODEL 6
REMARK VINA RESULT:    -6.940      3.967      9.705
REMARK INTER + INTRA:         -10.943
REMARK INTER:                  -9.028
REMARK INTRA:                  -1.915
REMARK CONF_INDEPENDENT:        2.088
REMARK UNBOUND:                -1.915
REMARK  7 active torsions:
REMARK  status: ('A' for Active; 'I' for Inactive)
REMARK    1  A    between atoms: C_2  and  C_3 
REMARK    2  A    between atoms: C_3  and  N_4 
REMARK       I    between atoms: N_4  and  C_5 
REMARK    3  A    between atoms: C_5  and  C_7 
REMARK    4  A    between atoms: C_10  and  N_11 
REMARK       I    between atoms: N_11  and  C_12 
REMARK    5  A    between atoms: C_12  and  C_14 
REMARK       I    between atoms: C_14  and  N_16 
REMARK    6  A    between atoms: N_16  and  C_17 
REMARK    7  A    between atoms: C_17  and  C_18 
ROOT
ATOM      1  C   UNL d   1      28.666 -15.038   0.230  0.00  0.00     0.053 A 
ATOM      2  C   UNL d   1      28.360 -16.333  -0.237  0.00  0.00     0.021 A 
ATOM      3  C   UNL d   1      27.021 -16.718  -0.523  0.00  0.00     0.030 A 
ATOM      4  C   UNL d   1      25.964 -15.807  -0.362  0.00  0.00     0.036 A 
ATOM      5  C   UNL d   1      26.304 -14.521   0.069  0.00  0.00     0.054 A 
ATOM      6  C   UNL d   1      27.620 -14.130   0.354  0.00  0.00     0.051 A 
ATOM      7 CL   UNL d   1      27.842 -12.474   0.806  0.00  0.00    -0.083 Cl
ENDROOT
BRANCH   4   8
ATOM      8  N   UNL d   1      24.601 -16.170  -0.626  0.00  0.00    -0.319 N 
ATOM      9  C   UNL d   1      23.974 -17.340  -0.163  0.00  0.00     0.313 C 
ATOM     10  O   UNL d   1      24.469 -18.225   0.530  0.00  0.00    -0.262 OA
ATOM     11  H   UNL d   1      24.031 -15.548  -1.196  0.00  0.00     0.169 HD
BRANCH   9  12
ATOM     12  C   UNL d   1      22.494 -17.565  -0.558  0.00  0.00     0.309 C 
ATOM     13  O   UNL d   1      21.789 -16.621  -0.895  0.00  0.00    -0.262 OA
ATOM     14  N   UNL d   1      22.091 -18.893  -0.490  0.00  0.00    -0.348 N 
ATOM     15  H   UNL d   1      22.785 -19.583  -0.207  0.00  0.00     0.163 HD
BRANCH  14  16
ATOM     16  C   UNL d   1      20.755 -19.326  -0.833  0.00  0.00     0.169 C 
BRANCH  16  17
ATOM     17  C   UNL d   1      19.944 -19.857   0.326  0.00  0.00     0.000 A 
ATOM     18  C   UNL d   1      18.866 -20.728   0.236  0.00  0.00     0.017 A 
ATOM     19  C   UNL d   1      18.309 -21.067   1.503  0.00  0.00     0.008 A 
ATOM     20  C   UNL d   1      18.979 -20.452   2.535  0.00  0.00     0.050 A 
ATOM     21  S   UNL d   1      20.279 -19.491   1.970  0.00  0.00    -0.105 SA
ENDBRANCH  16  17
ENDBRANCH  14  16
ENDBRANCH   9  12
ENDBRANCH   4   8
BRANCH   1  22
ATOM     22  C   UNL d   1      30.085 -14.673   0.529  0.00  0.00     0.253 C 
ATOM     23  N   UNL d   1      30.607 -15.105   1.739  0.00  0.00    -0.357 N 
ATOM     24  H   UNL d   1      30.000 -15.575   2.399  0.00  0.00     0.162 HD
ATOM     25  O   UNL d   1      30.732 -14.038  -0.298  0.00  0.00    -0.268 OA
BRANCH  23  26
ATOM     26  C   UNL d   1      31.945 -14.736   2.172  0.00  0.00     0.122 C 
BRANCH  26  27
ATOM     27  C   UNL d   1      31.977 -13.405   2.924  0.00  0.00     0.015 C 
ATOM     28  C   UNL d   1      32.861 -12.389   2.212  0.00  0.00     0.006 C 
ENDBRANCH  26  27
ENDBRANCH  23  26
ENDBRANCH   1  22
TORSDOF 7
ENDMDL
MODEL 7
REMARK VINA RESULT:    -6.786      4.994      9.579
REMARK INTER + INTRA:         -10.888
REMARK INTER:                  -8.875
REMARK INTRA:                  -2.014
REMARK CONF_INDEPENDENT:        2.088
REMARK UNBOUND:                -2.014
REMARK  7 active torsions:
REMARK  status: ('A' for Active; 'I' for Inactive)
REMARK    1  A    between atoms: C_2  and  C_3 
REMARK    2  A    between atoms: C_3  and  N_4 
REMARK       I    between atoms: N_4  and  C_5 
REMARK    3  A    between atoms: C_5  and  C_7 
REMARK    4  A    between atoms: C_10  and  N_11 
REMARK       I    between atoms: N_11  and  C_12 
REMARK    5  A    between atoms: C_12  and  C_14 
REMARK       I    between atoms: C_14  and  N_16 
REMARK    6  A    between atoms: N_16  and  C_17 
REMARK    7  A    between atoms: C_17  and  C_18 
ROOT
ATOM      1  C   UNL d   1      27.273 -14.438  -1.096  0.00  0.00     0.053 A 
ATOM      2  C   UNL d   1      27.308 -15.433  -0.097  0.00  0.00     0.021 A 
ATOM      3  C   UNL d   1      26.340 -16.475  -0.059  0.00  0.00     0.030 A 
ATOM      4  C   UNL d   1      25.328 -16.549  -1.030  0.00  0.00     0.036 A 
ATOM      5  C   UNL d   1      25.343 -15.568  -2.027  0.00  0.00     0.054 A 
ATOM      6  C   UNL d   1      26.291 -14.536  -2.075  0.00  0.00     0.051 A 
ATOM      7 CL   UNL d   1      26.181 -13.463  -3.429  0.00  0.00    -0.083 Cl
ENDROOT
BRANCH   4   8
ATOM      8  N   UNL d   1      24.328 -17.577  -1.008  0.00  0.00    -0.319 N 
ATOM      9  C   UNL d   1      22.944 -17.354  -0.907  0.00  0.00     0.313 C 
ATOM     10  O   UNL d   1      22.369 -16.272  -0.824  0.00  0.00    -0.262 OA
ATOM     11  H   UNL d   1      24.626 -18.550  -1.064  0.00  0.00     0.169 HD
BRANCH   9  12
ATOM     12  C   UNL d   1      22.017 -18.594  -0.890  0.00  0.00     0.309 C 
ATOM     13  O   UNL d   1      22.458 -19.697  -0.588  0.00  0.00    -0.262 OA
ATOM     14  N   UNL d   1      20.701 -18.316  -1.239  0.00  0.00    -0.348 N 
ATOM     15  H   UNL d   1      20.465 -17.348  -1.455  0.00  0.00     0.163 HD
BRANCH  14  16
ATOM     16  C   UNL d   1      19.668 -19.326  -1.270  0.00  0.00     0.169 C 
BRANCH  16  17
ATOM     17  C   UNL d   1      19.280 -19.878   0.083  0.00  0.00     0.000 A 
ATOM     18  C   UNL d   1      18.336 -20.868   0.320  0.00  0.00     0.017 A 
ATOM     19  C   UNL d   1      18.197 -21.194   1.700  0.00  0.00     0.008 A 
ATOM     20  C   UNL d   1      19.043 -20.450   2.488  0.00  0.00     0.050 A 
ATOM     21  S   UNL d   1      20.008 -19.383   1.557  0.00  0.00    -0.105 SA
ENDBRANCH  16  17
ENDBRANCH  14  16
ENDBRANCH   9  12
ENDBRANCH   4   8
BRANCH   1  22
ATOM     22  C   UNL d   1      28.303 -13.353  -1.099  0.00  0.00     0.253 C 
ATOM     23  N   UNL d   1      28.105 -12.293  -0.228  0.00  0.00    -0.357 N 
ATOM     24  H   UNL d   1      27.249 -12.250   0.312  0.00  0.00     0.162 HD
ATOM     25  O   UNL d   1      29.278 -13.447  -1.838  0.00  0.00    -0.268 OA
BRANCH  23  26
ATOM     26  C   UNL d   1      28.994 -11.142  -0.206  0.00  0.00     0.122 C 
BRANCH  26  27
ATOM     27  C   UNL d   1      28.287  -9.842  -0.594  0.00  0.00     0.015 C 
ATOM     28  C   UNL d   1      27.260 -10.079  -1.694  0.00  0.00     0.006 C 
ENDBRANCH  26  27
ENDBRANCH  23  26
ENDBRANCH   1  22
TORSDOF 7
ENDMDL
MODEL 8
REMARK VINA RESULT:    -6.682      7.416      9.876
REMARK INTER + INTRA:         -10.492
REMARK INTER:                  -8.770
REMARK INTRA:                  -1.722
REMARK CONF_INDEPENDENT:        2.088
REMARK UNBOUND:                -1.722
REMARK  7 active torsions:
REMARK  status: ('A' for Active; 'I' for Inactive)
REMARK    1  A    between atoms: C_2  and  C_3 
REMARK    2  A    between atoms: C_3  and  N_4 
REMARK       I    between atoms: N_4  and  C_5 
REMARK    3  A    between atoms: C_5  and  C_7 
REMARK    4  A    between atoms: C_10  and  N_11 
REMARK       I    between atoms: N_11  and  C_12 
REMARK    5  A    between atoms: C_12  and  C_14 
REMARK       I    between atoms: C_14  and  N_16 
REMARK    6  A    between atoms: N_16  and  C_17 
REMARK    7  A    between atoms: C_17  and  C_18 
ROOT
ATOM      1  C   UNL d   1      28.797 -12.689   7.069  0.00  0.00     0.053 A 
ATOM      2  C   UNL d   1      28.851 -14.098   7.036  0.00  0.00     0.021 A 
ATOM      3  C   UNL d   1      28.650 -14.816   5.824  0.00  0.00     0.030 A 
ATOM      4  C   UNL d   1      28.404 -14.135   4.620  0.00  0.00     0.036 A 
ATOM      5  C   UNL d   1      28.392 -12.738   4.681  0.00  0.00     0.054 A 
ATOM      6  C   UNL d   1      28.590 -12.019   5.869  0.00  0.00     0.051 A 
ATOM      7 CL   UNL d   1      28.608 -10.295   5.721  0.00  0.00    -0.083 Cl
ENDROOT
BRANCH   4   8
ATOM      8  N   UNL d   1      28.180 -14.831   3.386  0.00  0.00    -0.319 N 
ATOM      9  C   UNL d   1      27.499 -14.305   2.275  0.00  0.00     0.313 C 
ATOM     10  O   UNL d   1      26.994 -13.190   2.172  0.00  0.00    -0.262 OA
ATOM     11  H   UNL d   1      28.530 -15.784   3.292  0.00  0.00     0.169 HD
BRANCH   9  12
ATOM     12  C   UNL d   1      27.348 -15.212   1.030  0.00  0.00     0.309 C 
ATOM     13  O   UNL d   1      28.103 -16.162   0.856  0.00  0.00    -0.262 OA
ATOM     14  N   UNL d   1      26.309 -14.838   0.185  0.00  0.00    -0.348 N 
ATOM     15  H   UNL d   1      25.748 -14.033   0.457  0.00  0.00     0.163 HD
BRANCH  14  16
ATOM     16  C   UNL d   1      25.984 -15.560  -1.024  0.00  0.00     0.169 C 
BRANCH  16  17
ATOM     17  C   UNL d   1      24.977 -16.673  -0.846  0.00  0.00     0.000 A 
ATOM     18  C   UNL d   1      23.646 -16.639  -1.240  0.00  0.00     0.017 A 
ATOM     19  C   UNL d   1      22.943 -17.845  -0.955  0.00  0.00     0.008 A 
ATOM     20  C   UNL d   1      23.756 -18.778  -0.353  0.00  0.00     0.050 A 
ATOM     21  S   UNL d   1      25.356 -18.199  -0.156  0.00  0.00    -0.105 SA
ENDBRANCH  16  17
ENDBRANCH  14  16
ENDBRANCH   9  12
ENDBRANCH   4   8
BRANCH   1  22
ATOM     22  C   UNL d   1      29.006 -11.969   8.364  0.00  0.00     0.253 C 
ATOM     23  N   UNL d   1      29.696 -12.645   9.358  0.00  0.00    -0.357 N 
ATOM     24  H   UNL d   1      29.960 -13.612   9.207  0.00  0.00     0.162 HD
ATOM     25  O   UNL d   1      28.590 -10.822   8.490  0.00  0.00    -0.268 OA
BRANCH  23  26
ATOM     26  C   UNL d   1      29.883 -12.077  10.683  0.00  0.00     0.122 C 
BRANCH  26  27
ATOM     27  C   UNL d   1      28.791 -12.502  11.667  0.00  0.00     0.015 C 
ATOM     28  C   UNL d   1      27.794 -13.448  11.011  0.00  0.00     0.006 C 
ENDBRANCH  26  27
ENDBRANCH  23  26
ENDBRANCH   1  22
TORSDOF 7
ENDMDL
MODEL 9
REMARK VINA RESULT:    -6.666      6.102      8.508
REMARK INTER + INTRA:         -10.541
REMARK INTER:                  -8.754
REMARK INTRA:                  -1.787
REMARK CONF_INDEPENDENT:        2.088
REMARK UNBOUND:                -1.787
REMARK  7 active torsions:
REMARK  status: ('A' for Active; 'I' for Inactive)
REMARK    1  A    between atoms: C_2  and  C_3 
REMARK    2  A    between atoms: C_3  and  N_4 
REMARK       I    between atoms: N_4  and  C_5 
REMARK    3  A    between atoms: C_5  and  C_7 
REMARK    4  A    between atoms: C_10  and  N_11 
REMARK       I    between atoms: N_11  and  C_12 
REMARK    5  A    between atoms: C_12  and  C_14 
REMARK       I    between atoms: C_14  and  N_16 
REMARK    6  A    between atoms: N_16  and  C_17 
REMARK    7  A    between atoms: C_17  and  C_18 
ROOT
ATOM      1  C   UNL d   1      24.155 -17.134  -0.830  0.00  0.00     0.053 A 
ATOM      2  C   UNL d   1      23.416 -16.198  -1.583  0.00  0.00     0.021 A 
ATOM      3  C   UNL d   1      24.066 -15.198  -2.360  0.00  0.00     0.030 A 
ATOM      4  C   UNL d   1      25.468 -15.128  -2.410  0.00  0.00     0.036 A 
ATOM      5  C   UNL d   1      26.171 -16.092  -1.680  0.00  0.00     0.054 A 
ATOM      6  C   UNL d   1      25.542 -17.082  -0.911  0.00  0.00     0.051 A 
ATOM      7 CL   UNL d   1      26.588 -18.225  -0.139  0.00  0.00    -0.083 Cl
ENDROOT
BRANCH   4   8
ATOM      8  N   UNL d   1      26.151 -14.122  -3.170  0.00  0.00    -0.319 N 
ATOM      9  C   UNL d   1      25.580 -13.374  -4.215  0.00  0.00     0.313 C 
ATOM     10  O   UNL d   1      24.431 -13.450  -4.642  0.00  0.00    -0.262 OA
ATOM     11  H   UNL d   1      27.127 -13.924  -2.955  0.00  0.00     0.169 HD
BRANCH   9  12
ATOM     12  C   UNL d   1      26.479 -12.334  -4.928  0.00  0.00     0.309 C 
ATOM     13  O   UNL d   1      27.683 -12.293  -4.702  0.00  0.00    -0.262 OA
ATOM     14  N   UNL d   1      25.791 -11.504  -5.804  0.00  0.00    -0.348 N 
ATOM     15  H   UNL d   1      24.789 -11.656  -5.908  0.00  0.00     0.163 HD
BRANCH  14  16
ATOM     16  C   UNL d   1      26.442 -10.476  -6.585  0.00  0.00     0.169 C 
BRANCH  16  17
ATOM     17  C   UNL d   1      27.150 -10.975  -7.824  0.00  0.00     0.000 A 
ATOM     18  C   UNL d   1      28.453 -11.451  -7.882  0.00  0.00     0.017 A 
ATOM     19  C   UNL d   1      28.843 -11.868  -9.188  0.00  0.00     0.008 A 
ATOM     20  C   UNL d   1      27.824 -11.707 -10.098  0.00  0.00     0.050 A 
ATOM     21  S   UNL d   1      26.409 -11.075  -9.369  0.00  0.00    -0.105 SA
ENDBRANCH  16  17
ENDBRANCH  14  16
ENDBRANCH   9  12
ENDBRANCH   4   8
BRANCH   1  22
ATOM     22  C   UNL d   1      23.437 -18.165  -0.018  0.00  0.00     0.253 C 
ATOM     23  N   UNL d   1      22.230 -18.632  -0.515  0.00  0.00    -0.357 N 
ATOM     24  H   UNL d   1      21.844 -18.211  -1.352  0.00  0.00     0.162 HD
ATOM     25  O   UNL d   1      23.941 -18.570   1.025  0.00  0.00    -0.268 OA
BRANCH  23  26
ATOM     26  C   UNL d   1      21.405 -19.569   0.231  0.00  0.00     0.122 C 
BRANCH  26  27
ATOM     27  C   UNL d   1      19.908 -19.326   0.032  0.00  0.00     0.015 C 
ATOM     28  C   UNL d   1      19.077 -20.329   0.821  0.00  0.00     0.006 C 
ENDBRANCH  26  27
ENDBRANCH  23  26
ENDBRANCH   1  22
TORSDOF 7
ENDMDL
