MODEL 1
REMARK VINA RESULT:    -9.054      0.000      0.000
REMARK INTER + INTRA:         -12.739
REMARK INTER:                 -10.844
REMARK INTRA:                  -1.895
REMARK CONF_INDEPENDENT:        1.790
REMARK UNBOUND:                -1.895
REMARK  6 active torsions:
REMARK  status: ('A' for Active; 'I' for Inactive)
REMARK    1  A    between atoms: C_12  and  N_13 
REMARK       I    between atoms: N_13  and  C_14 
REMARK    2  A    between atoms: C_14  and  C_16 
REMARK    3  A    between atoms: C_16  and  O_17 
REMARK    4  A    between atoms: O_17  and  C_18 
REMARK    5  A    between atoms: C_18  and  C_20 
REMARK    6  A    between atoms: C_25  and  C_26 
ROOT
ATOM      1  C   UNL d   1      28.657 -14.419  -5.510  0.00  0.00     0.281 C 
ENDROOT
BRANCH   1   2
ATOM      2  C   UNL d   1      29.818 -15.366  -5.216  0.00  0.00     0.244 C 
ATOM      3  N   UNL d   1      29.619 -16.722  -5.402  0.00  0.00    -0.329 N 
ATOM      4  H   UNL d   1      28.697 -17.130  -5.374  0.00  0.00     0.165 HD
ATOM      5  O   UNL d   1      30.879 -14.920  -4.789  0.00  0.00    -0.271 OA
BRANCH   3   6
ATOM      6  C   UNL d   1      30.734 -17.632  -5.257  0.00  0.00     0.264 A 
ATOM      7  O   UNL d   1      30.300 -18.695  -4.361  0.00  0.00    -0.353 OA
ATOM      8  C   UNL d   1      30.405 -19.976  -5.046  0.00  0.00     0.152 A 
ATOM      9  C   UNL d   1      30.814 -19.630  -6.434  0.00  0.00    -0.017 A 
ATOM     10  C   UNL d   1      31.397 -20.882  -4.313  0.00  0.00     0.044 C 
ATOM     11  C   UNL d   1      31.018 -18.318  -6.528  0.00  0.00     0.066 A 
ATOM     12  C   UNL d   1      30.976 -20.580  -7.568  0.00  0.00     0.105 C 
ATOM     13  C   UNL d   1      31.524 -17.752  -7.777  0.00  0.00     0.266 C 
ATOM     14  N   UNL d   1      31.526 -18.576  -8.865  0.00  0.00    -0.287 N 
ATOM     15  O   UNL d   1      31.946 -16.610  -7.921  0.00  0.00    -0.266 OA
ATOM     16  N   UNL d   1      31.299 -19.953  -8.859  0.00  0.00    -0.229 NA
ATOM     17  H   UNL d   1      31.918 -18.129  -9.690  0.00  0.00     0.184 HD
ATOM     18  H   UNL d   1      30.560 -20.156  -9.532  0.00  0.00     0.147 HD
ATOM     19  C   UNL d   1      32.096 -21.580  -7.314  0.00  0.00     0.033 C 
ENDBRANCH   3   6
ENDBRANCH   1   2
BRANCH   1  20
ATOM     20  O   UNL d   1      27.515 -15.200  -5.953  0.00  0.00    -0.307 OA
BRANCH  20  21
ATOM     21  C   UNL d   1      26.375 -14.959  -5.264  0.00  0.00     0.315 C 
ATOM     22  O   UNL d   1      25.527 -15.813  -5.046  0.00  0.00    -0.257 OA
BRANCH  21  23
ATOM     23  C   UNL d   1      26.289 -13.575  -4.693  0.00  0.00     0.163 A 
ATOM     24  N   UNL d   1      26.471 -12.500  -5.520  0.00  0.00    -0.251 NA
ATOM     25  C   UNL d   1      26.172 -11.287  -4.975  0.00  0.00     0.137 A 
ATOM     26  C   UNL d   1      25.719 -11.134  -3.673  0.00  0.00     0.136 A 
ATOM     27  N   UNL d   1      25.567 -12.186  -2.843  0.00  0.00    -0.254 NA
ATOM     28  C   UNL d   1      25.858 -13.415  -3.374  0.00  0.00     0.127 A 
BRANCH  28  29
ATOM     29  C   UNL d   1      25.627 -14.540  -2.475  0.00  0.00     0.130 A 
ATOM     30  N   UNL d   1      24.492 -15.200  -2.389  0.00  0.00    -0.238 NA
ATOM     31  C   UNL d   1      24.651 -16.293  -1.563  0.00  0.00     0.075 A 
ATOM     32  C   UNL d   1      23.655 -17.242  -1.269  0.00  0.00     0.033 A 
ATOM     33  C   UNL d   1      25.914 -16.437  -0.984  0.00  0.00     0.035 A 
ATOM     34  C   UNL d   1      23.942 -18.303  -0.410  0.00  0.00     0.002 A 
ATOM     35  C   UNL d   1      25.211 -18.437   0.145  0.00  0.00     0.002 A 
ATOM     36  C   UNL d   1      26.222 -17.513  -0.138  0.00  0.00     0.021 A 
ATOM     37  S   UNL d   1      26.903 -15.119  -1.472  0.00  0.00    -0.066 SA
ENDBRANCH  28  29
ENDBRANCH  21  23
ENDBRANCH  20  21
ENDBRANCH   1  20
TORSDOF 6
ENDMDL
MODEL 2
REMARK VINA RESULT:    -8.835      3.877      5.634
REMARK INTER + INTRA:         -12.405
REMARK INTER:                 -10.625
REMARK INTRA:                  -1.780
REMARK CONF_INDEPENDENT:        1.790
REMARK UNBOUND:                -1.780
REMARK  6 active torsions:
REMARK  status: ('A' for Active; 'I' for Inactive)
REMARK    1  A    between atoms: C_12  and  N_13 
REMARK       I    between atoms: N_13  and  C_14 
REMARK    2  A    between atoms: C_14  and  C_16 
REMARK    3  A    between atoms: C_16  and  O_17 
REMARK    4  A    between atoms: O_17  and  C_18 
REMARK    5  A    between atoms: C_18  and  C_20 
REMARK    6  A    between atoms: C_25  and  C_26 
ROOT
ATOM      1  C   UNL d   1      25.556 -15.771  -3.999  0.00  0.00     0.281 C 
ENDROOT
BRANCH   1   2
ATOM      2  C   UNL d   1      26.774 -14.983  -4.473  0.00  0.00     0.244 C 
ATOM      3  N   UNL d   1      27.139 -13.853  -3.763  0.00  0.00    -0.329 N 
ATOM      4  H   UNL d   1      26.474 -13.344  -3.200  0.00  0.00     0.165 HD
ATOM      5  O   UNL d   1      27.377 -15.335  -5.482  0.00  0.00    -0.271 OA
BRANCH   3   6
ATOM      6  C   UNL d   1      28.360 -13.159  -4.107  0.00  0.00     0.264 A 
ATOM      7  O   UNL d   1      29.463 -14.047  -3.770  0.00  0.00    -0.353 OA
ATOM      8  C   UNL d   1      30.249 -14.317  -4.967  0.00  0.00     0.152 A 
ATOM      9  C   UNL d   1      29.506 -13.644  -6.066  0.00  0.00    -0.017 A 
ATOM     10  C   UNL d   1      31.680 -13.809  -4.779  0.00  0.00     0.044 C 
ATOM     11  C   UNL d   1      28.467 -12.980  -5.565  0.00  0.00     0.066 A 
ATOM     12  C   UNL d   1      29.844 -13.689  -7.515  0.00  0.00     0.105 C 
ATOM     13  C   UNL d   1      27.642 -12.156  -6.445  0.00  0.00     0.266 C 
ATOM     14  N   UNL d   1      27.837 -12.310  -7.787  0.00  0.00    -0.287 N 
ATOM     15  O   UNL d   1      26.800 -11.343  -6.078  0.00  0.00    -0.266 OA
ATOM     16  N   UNL d   1      28.882 -13.008  -8.395  0.00  0.00    -0.229 NA
ATOM     17  H   UNL d   1      27.254 -11.686  -8.340  0.00  0.00     0.184 HD
ATOM     18  H   UNL d   1      28.478 -13.681  -9.046  0.00  0.00     0.147 HD
ATOM     19  C   UNL d   1      31.189 -13.035  -7.804  0.00  0.00     0.033 C 
ENDBRANCH   3   6
ENDBRANCH   1   2
BRANCH   1  20
ATOM     20  O   UNL d   1      24.790 -14.945  -3.083  0.00  0.00    -0.307 OA
BRANCH  20  21
ATOM     21  C   UNL d   1      24.470 -15.556  -1.918  0.00  0.00     0.315 C 
ATOM     22  O   UNL d   1      23.335 -15.579  -1.458  0.00  0.00    -0.257 OA
BRANCH  21  23
ATOM     23  C   UNL d   1      25.609 -16.298  -1.286  0.00  0.00     0.163 A 
ATOM     24  N   UNL d   1      26.857 -15.735  -1.291  0.00  0.00    -0.251 NA
ATOM     25  C   UNL d   1      27.786 -16.369  -0.521  0.00  0.00     0.137 A 
ATOM     26  C   UNL d   1      27.506 -17.509   0.218  0.00  0.00     0.136 A 
ATOM     27  N   UNL d   1      26.287 -18.086   0.203  0.00  0.00    -0.254 NA
ATOM     28  C   UNL d   1      25.337 -17.461  -0.562  0.00  0.00     0.127 A 
BRANCH  28  29
ATOM     29  C   UNL d   1      24.013 -18.071  -0.511  0.00  0.00     0.130 A 
ATOM     30  N   UNL d   1      23.312 -18.234   0.591  0.00  0.00    -0.238 NA
ATOM     31  C   UNL d   1      22.052 -18.697   0.277  0.00  0.00     0.075 A 
ATOM     32  C   UNL d   1      21.025 -18.950   1.204  0.00  0.00     0.033 A 
ATOM     33  C   UNL d   1      21.811 -18.925  -1.080  0.00  0.00     0.035 A 
ATOM     34  C   UNL d   1      19.791 -19.424   0.756  0.00  0.00     0.002 A 
ATOM     35  C   UNL d   1      19.565 -19.631  -0.601  0.00  0.00     0.002 A 
ATOM     36  C   UNL d   1      20.566 -19.377  -1.544  0.00  0.00     0.021 A 
ATOM     37  S   UNL d   1      23.244 -18.583  -1.965  0.00  0.00    -0.066 SA
ENDBRANCH  28  29
ENDBRANCH  21  23
ENDBRANCH  20  21
ENDBRANCH   1  20
TORSDOF 6
ENDMDL
MODEL 3
REMARK VINA RESULT:    -8.423      4.783      8.807
REMARK INTER + INTRA:         -12.690
REMARK INTER:                 -10.212
REMARK INTRA:                  -2.477
REMARK CONF_INDEPENDENT:        1.790
REMARK UNBOUND:                -2.477
REMARK  6 active torsions:
REMARK  status: ('A' for Active; 'I' for Inactive)
REMARK    1  A    between atoms: C_12  and  N_13 
REMARK       I    between atoms: N_13  and  C_14 
REMARK    2  A    between atoms: C_14  and  C_16 
REMARK    3  A    between atoms: C_16  and  O_17 
REMARK    4  A    between atoms: O_17  and  C_18 
REMARK    5  A    between atoms: C_18  and  C_20 
REMARK    6  A    between atoms: C_25  and  C_26 
ROOT
ATOM      1  C   UNL d   1      28.975 -16.711  -1.052  0.00  0.00     0.281 C 
ENDROOT
BRANCH   1   2
ATOM      2  C   UNL d   1      28.946 -15.328  -0.406  0.00  0.00     0.244 C 
ATOM      3  N   UNL d   1      28.933 -15.251   0.975  0.00  0.00    -0.329 N 
ATOM      4  H   UNL d   1      28.595 -16.012   1.544  0.00  0.00     0.165 HD
ATOM      5  O   UNL d   1      28.897 -14.324  -1.111  0.00  0.00    -0.271 OA
BRANCH   3   6
ATOM      6  C   UNL d   1      29.036 -13.959   1.617  0.00  0.00     0.264 A 
ATOM      7  O   UNL d   1      27.728 -13.329   1.514  0.00  0.00    -0.353 OA
ATOM      8  C   UNL d   1      27.226 -13.037   2.850  0.00  0.00     0.152 A 
ATOM      9  C   UNL d   1      28.238 -13.622   3.770  0.00  0.00    -0.017 A 
ATOM     10  C   UNL d   1      27.030 -11.528   3.018  0.00  0.00     0.044 C 
ATOM     11  C   UNL d   1      29.256 -14.111   3.065  0.00  0.00     0.066 A 
ATOM     12  C   UNL d   1      28.155 -13.672   5.255  0.00  0.00     0.105 C 
ATOM     13  C   UNL d   1      30.423 -14.652   3.759  0.00  0.00     0.266 C 
ATOM     14  N   UNL d   1      30.297 -14.851   5.103  0.00  0.00    -0.287 N 
ATOM     15  O   UNL d   1      31.496 -14.933   3.235  0.00  0.00    -0.266 OA
ATOM     16  N   UNL d   1      29.255 -14.395   5.912  0.00  0.00    -0.229 NA
ATOM     17  H   UNL d   1      31.154 -15.199   5.527  0.00  0.00     0.184 HD
ATOM     18  H   UNL d   1      28.881 -15.192   6.427  0.00  0.00     0.147 HD
ATOM     19  C   UNL d   1      28.163 -12.279   5.871  0.00  0.00     0.033 C 
ENDBRANCH   3   6
ENDBRANCH   1   2
BRANCH   1  20
ATOM     20  O   UNL d   1      27.613 -17.119  -1.347  0.00  0.00    -0.307 OA
BRANCH  20  21
ATOM     21  C   UNL d   1      26.863 -17.386  -0.253  0.00  0.00     0.315 C 
ATOM     22  O   UNL d   1      27.279 -17.278   0.893  0.00  0.00    -0.257 OA
BRANCH  21  23
ATOM     23  C   UNL d   1      25.435 -17.725  -0.561  0.00  0.00     0.163 A 
ATOM     24  N   UNL d   1      24.871 -18.830   0.018  0.00  0.00    -0.251 NA
ATOM     25  C   UNL d   1      23.523 -18.951  -0.145  0.00  0.00     0.137 A 
ATOM     26  C   UNL d   1      22.761 -18.031  -0.849  0.00  0.00     0.136 A 
ATOM     27  N   UNL d   1      23.314 -16.956  -1.448  0.00  0.00    -0.254 NA
ATOM     28  C   UNL d   1      24.668 -16.815  -1.292  0.00  0.00     0.127 A 
BRANCH  28  29
ATOM     29  C   UNL d   1      25.231 -15.612  -1.897  0.00  0.00     0.130 A 
ATOM     30  N   UNL d   1      25.156 -15.321  -3.178  0.00  0.00    -0.238 NA
ATOM     31  C   UNL d   1      25.649 -14.052  -3.396  0.00  0.00     0.075 A 
ATOM     32  C   UNL d   1      25.692 -13.399  -4.642  0.00  0.00     0.033 A 
ATOM     33  C   UNL d   1      26.142 -13.391  -2.269  0.00  0.00     0.035 A 
ATOM     34  C   UNL d   1      26.223 -12.112  -4.730  0.00  0.00     0.002 A 
ATOM     35  C   UNL d   1      26.695 -11.464  -3.593  0.00  0.00     0.002 A 
ATOM     36  C   UNL d   1      26.655 -12.087  -2.341  0.00  0.00     0.021 A 
ATOM     37  S   UNL d   1      26.012 -14.436  -0.910  0.00  0.00    -0.066 SA
ENDBRANCH  28  29
ENDBRANCH  21  23
ENDBRANCH  20  21
ENDBRANCH   1  20
TORSDOF 6
ENDMDL
MODEL 4
REMARK VINA RESULT:    -8.337      2.511      8.006
REMARK INTER + INTRA:         -12.369
REMARK INTER:                 -10.126
REMARK INTRA:                  -2.243
REMARK CONF_INDEPENDENT:        1.790
REMARK UNBOUND:                -2.243
REMARK  6 active torsions:
REMARK  status: ('A' for Active; 'I' for Inactive)
REMARK    1  A    between atoms: C_12  and  N_13 
REMARK       I    between atoms: N_13  and  C_14 
REMARK    2  A    between atoms: C_14  and  C_16 
REMARK    3  A    between atoms: C_16  and  O_17 
REMARK    4  A    between atoms: O_17  and  C_18 
REMARK    5  A    between atoms: C_18  and  C_20 
REMARK    6  A    between atoms: C_25  and  C_26 
ROOT
ATOM      1  C   UNL d   1      27.192 -13.978  -5.609  0.00  0.00     0.281 C 
ENDROOT
BRANCH   1   2
ATOM      2  C   UNL d   1      26.229 -14.306  -4.471  0.00  0.00     0.244 C 
ATOM      3  N   UNL d   1      26.762 -14.633  -3.236  0.00  0.00    -0.329 N 
ATOM      4  H   UNL d   1      27.698 -14.999  -3.145  0.00  0.00     0.165 HD
ATOM      5  O   UNL d   1      25.018 -14.313  -4.674  0.00  0.00    -0.271 OA
BRANCH   3   6
ATOM      6  C   UNL d   1      25.880 -14.822  -2.107  0.00  0.00     0.264 A 
ATOM      7  O   UNL d   1      24.702 -15.518  -2.601  0.00  0.00    -0.353 OA
ATOM      8  C   UNL d   1      24.548 -16.777  -1.884  0.00  0.00     0.152 A 
ATOM      9  C   UNL d   1      25.751 -16.865  -1.013  0.00  0.00    -0.017 A 
ATOM     10  C   UNL d   1      23.223 -16.786  -1.118  0.00  0.00     0.044 C 
ATOM     11  C   UNL d   1      26.472 -15.752  -1.130  0.00  0.00     0.066 A 
ATOM     12  C   UNL d   1      26.123 -18.008  -0.135  0.00  0.00     0.105 C 
ATOM     13  C   UNL d   1      27.655 -15.564  -0.293  0.00  0.00     0.266 C 
ATOM     14  N   UNL d   1      28.097 -16.657   0.394  0.00  0.00    -0.287 N 
ATOM     15  O   UNL d   1      28.272 -14.513  -0.157  0.00  0.00    -0.266 OA
ATOM     16  N   UNL d   1      27.419 -17.867   0.548  0.00  0.00    -0.229 NA
ATOM     17  H   UNL d   1      28.903 -16.449   0.980  0.00  0.00     0.184 HD
ATOM     18  H   UNL d   1      28.042 -18.620   0.256  0.00  0.00     0.147 HD
ATOM     19  C   UNL d   1      25.103 -18.225   0.975  0.00  0.00     0.033 C 
ENDBRANCH   3   6
ENDBRANCH   1   2
BRANCH   1  20
ATOM     20  O   UNL d   1      27.758 -15.216  -6.116  0.00  0.00    -0.307 OA
BRANCH  20  21
ATOM     21  C   UNL d   1      29.110 -15.227  -6.172  0.00  0.00     0.315 C 
ATOM     22  O   UNL d   1      29.747 -14.860  -7.150  0.00  0.00    -0.257 OA
BRANCH  21  23
ATOM     23  C   UNL d   1      29.770 -15.629  -4.887  0.00  0.00     0.163 A 
ATOM     24  N   UNL d   1      29.449 -14.963  -3.735  0.00  0.00    -0.251 NA
ATOM     25  C   UNL d   1      29.928 -15.520  -2.586  0.00  0.00     0.137 A 
ATOM     26  C   UNL d   1      30.693 -16.676  -2.568  0.00  0.00     0.136 A 
ATOM     27  N   UNL d   1      31.039 -17.320  -3.701  0.00  0.00    -0.254 NA
ATOM     28  C   UNL d   1      30.563 -16.779  -4.867  0.00  0.00     0.127 A 
BRANCH  28  29
ATOM     29  C   UNL d   1      30.900 -17.529  -6.072  0.00  0.00     0.130 A 
ATOM     30  N   UNL d   1      31.618 -17.054  -7.066  0.00  0.00    -0.238 NA
ATOM     31  C   UNL d   1      31.880 -18.058  -7.973  0.00  0.00     0.075 A 
ATOM     32  C   UNL d   1      32.651 -17.918  -9.142  0.00  0.00     0.033 A 
ATOM     33  C   UNL d   1      31.317 -19.302  -7.680  0.00  0.00     0.035 A 
ATOM     34  C   UNL d   1      32.837 -19.015  -9.983  0.00  0.00     0.002 A 
ATOM     35  C   UNL d   1      32.280 -20.250  -9.666  0.00  0.00     0.002 A 
ATOM     36  C   UNL d   1      31.518 -20.419  -8.505  0.00  0.00     0.021 A 
ATOM     37  S   UNL d   1      30.395 -19.168  -6.236  0.00  0.00    -0.066 SA
ENDBRANCH  28  29
ENDBRANCH  21  23
ENDBRANCH  20  21
ENDBRANCH   1  20
TORSDOF 6
ENDMDL
MODEL 5
REMARK VINA RESULT:    -7.981      2.043      2.722
REMARK INTER + INTRA:         -12.384
REMARK INTER:                  -9.771
REMARK INTRA:                  -2.613
REMARK CONF_INDEPENDENT:        1.790
REMARK UNBOUND:                -2.613
REMARK  6 active torsions:
REMARK  status: ('A' for Active; 'I' for Inactive)
REMARK    1  A    between atoms: C_12  and  N_13 
REMARK       I    between atoms: N_13  and  C_14 
REMARK    2  A    between atoms: C_14  and  C_16 
REMARK    3  A    between atoms: C_16  and  O_17 
REMARK    4  A    between atoms: O_17  and  C_18 
REMARK    5  A    between atoms: C_18  and  C_20 
REMARK    6  A    between atoms: C_25  and  C_26 
ROOT
ATOM      1  C   UNL d   1      27.063 -14.850  -5.744  0.00  0.00     0.281 C 
ENDROOT
BRANCH   1   2
ATOM      2  C   UNL d   1      28.538 -15.176  -5.524  0.00  0.00     0.244 C 
ATOM      3  N   UNL d   1      28.888 -15.904  -4.401  0.00  0.00    -0.329 N 
ATOM      4  H   UNL d   1      28.303 -15.920  -3.578  0.00  0.00     0.165 HD
ATOM      5  O   UNL d   1      29.382 -14.761  -6.313  0.00  0.00    -0.271 OA
BRANCH   3   6
ATOM      6  C   UNL d   1      30.256 -16.339  -4.231  0.00  0.00     0.264 A 
ATOM      7  O   UNL d   1      30.450 -16.584  -2.809  0.00  0.00    -0.353 OA
ATOM      8  C   UNL d   1      30.849 -17.970  -2.608  0.00  0.00     0.152 A 
ATOM      9  C   UNL d   1      30.778 -18.584  -3.961  0.00  0.00    -0.017 A 
ATOM     10  C   UNL d   1      32.240 -18.028  -1.970  0.00  0.00     0.044 C 
ATOM     11  C   UNL d   1      30.470 -17.653  -4.861  0.00  0.00     0.066 A 
ATOM     12  C   UNL d   1      31.008 -20.017  -4.292  0.00  0.00     0.105 C 
ATOM     13  C   UNL d   1      30.439 -17.999  -6.280  0.00  0.00     0.266 C 
ATOM     14  N   UNL d   1      30.489 -19.329  -6.586  0.00  0.00    -0.287 N 
ATOM     15  O   UNL d   1      30.378 -17.199  -7.208  0.00  0.00    -0.266 OA
ATOM     16  N   UNL d   1      30.780 -20.369  -5.703  0.00  0.00    -0.229 NA
ATOM     17  H   UNL d   1      30.495 -19.497  -7.589  0.00  0.00     0.184 HD
ATOM     18  H   UNL d   1      30.031 -21.058  -5.766  0.00  0.00     0.147 HD
ATOM     19  C   UNL d   1      32.439 -20.445  -3.995  0.00  0.00     0.033 C 
ENDBRANCH   3   6
ENDBRANCH   1   2
BRANCH   1  20
ATOM     20  O   UNL d   1      26.271 -15.586  -4.774  0.00  0.00    -0.307 OA
BRANCH  20  21
ATOM     21  C   UNL d   1      25.858 -14.848  -3.717  0.00  0.00     0.315 C 
ATOM     22  O   UNL d   1      24.705 -14.464  -3.573  0.00  0.00    -0.257 OA
BRANCH  21  23
ATOM     23  C   UNL d   1      26.916 -14.627  -2.678  0.00  0.00     0.163 A 
ATOM     24  N   UNL d   1      27.932 -13.747  -2.936  0.00  0.00    -0.251 NA
ATOM     25  C   UNL d   1      28.729 -13.447  -1.872  0.00  0.00     0.137 A 
ATOM     26  C   UNL d   1      28.541 -13.990  -0.609  0.00  0.00     0.136 A 
ATOM     27  N   UNL d   1      27.561 -14.881  -0.355  0.00  0.00    -0.254 NA
ATOM     28  C   UNL d   1      26.746 -15.192  -1.412  0.00  0.00     0.127 A 
BRANCH  28  29
ATOM     29  C   UNL d   1      25.657 -16.110  -1.095  0.00  0.00     0.130 A 
ATOM     30  N   UNL d   1      24.383 -15.783  -1.103  0.00  0.00    -0.238 NA
ATOM     31  C   UNL d   1      23.612 -16.909  -0.909  0.00  0.00     0.075 A 
ATOM     32  C   UNL d   1      22.205 -16.938  -0.895  0.00  0.00     0.033 A 
ATOM     33  C   UNL d   1      24.315 -18.098  -0.710  0.00  0.00     0.035 A 
ATOM     34  C   UNL d   1      21.541 -18.146  -0.682  0.00  0.00     0.002 A 
ATOM     35  C   UNL d   1      22.259 -19.324  -0.500  0.00  0.00     0.002 A 
ATOM     36  C   UNL d   1      23.658 -19.324  -0.520  0.00  0.00     0.021 A 
ATOM     37  S   UNL d   1      25.999 -17.758  -0.726  0.00  0.00    -0.066 SA
ENDBRANCH  28  29
ENDBRANCH  21  23
ENDBRANCH  20  21
ENDBRANCH   1  20
TORSDOF 6
ENDMDL
MODEL 6
REMARK VINA RESULT:    -7.768      2.541      7.322
REMARK INTER + INTRA:         -12.179
REMARK INTER:                  -9.558
REMARK INTRA:                  -2.621
REMARK CONF_INDEPENDENT:        1.790
REMARK UNBOUND:                -2.621
REMARK  6 active torsions:
REMARK  status: ('A' for Active; 'I' for Inactive)
REMARK    1  A    between atoms: C_12  and  N_13 
REMARK       I    between atoms: N_13  and  C_14 
REMARK    2  A    between atoms: C_14  and  C_16 
REMARK    3  A    between atoms: C_16  and  O_17 
REMARK    4  A    between atoms: O_17  and  C_18 
REMARK    5  A    between atoms: C_18  and  C_20 
REMARK    6  A    between atoms: C_25  and  C_26 
ROOT
ATOM      1  C   UNL d   1      26.766 -12.827  -5.105  0.00  0.00     0.281 C 
ENDROOT
BRANCH   1   2
ATOM      2  C   UNL d   1      25.934 -13.761  -4.231  0.00  0.00     0.244 C 
ATOM      3  N   UNL d   1      26.237 -13.842  -2.884  0.00  0.00    -0.329 N 
ATOM      4  H   UNL d   1      27.154 -13.608  -2.534  0.00  0.00     0.165 HD
ATOM      5  O   UNL d   1      25.048 -14.446  -4.736  0.00  0.00    -0.271 OA
BRANCH   3   6
ATOM      6  C   UNL d   1      25.388 -14.617  -2.007  0.00  0.00     0.264 A 
ATOM      7  O   UNL d   1      24.967 -15.792  -2.755  0.00  0.00    -0.353 OA
ATOM      8  C   UNL d   1      25.397 -16.993  -2.050  0.00  0.00     0.152 A 
ATOM      9  C   UNL d   1      26.196 -16.490  -0.902  0.00  0.00    -0.017 A 
ATOM     10  C   UNL d   1      24.179 -17.827  -1.645  0.00  0.00     0.044 C 
ATOM     11  C   UNL d   1      26.160 -15.160  -0.877  0.00  0.00     0.066 A 
ATOM     12  C   UNL d   1      26.938 -17.321   0.086  0.00  0.00     0.105 C 
ATOM     13  C   UNL d   1      26.795 -14.439   0.224  0.00  0.00     0.266 C 
ATOM     14  N   UNL d   1      27.608 -15.167   1.044  0.00  0.00    -0.287 N 
ATOM     15  O   UNL d   1      26.653 -13.246   0.470  0.00  0.00    -0.266 OA
ATOM     16  N   UNL d   1      27.725 -16.558   1.069  0.00  0.00    -0.229 NA
ATOM     17  H   UNL d   1      27.991 -14.611   1.805  0.00  0.00     0.184 HD
ATOM     18  H   UNL d   1      28.712 -16.795   0.974  0.00  0.00     0.147 HD
ATOM     19  C   UNL d   1      26.001 -18.193   0.911  0.00  0.00     0.033 C 
ENDBRANCH   3   6
ENDBRANCH   1   2
BRANCH   1  20
ATOM     20  O   UNL d   1      27.904 -13.562  -5.627  0.00  0.00    -0.307 OA
BRANCH  20  21
ATOM     21  C   UNL d   1      28.158 -14.725  -4.982  0.00  0.00     0.315 C 
ATOM     22  O   UNL d   1      27.751 -15.813  -5.367  0.00  0.00    -0.257 OA
BRANCH  21  23
ATOM     23  C   UNL d   1      29.077 -14.580  -3.806  0.00  0.00     0.163 A 
ATOM     24  N   UNL d   1      28.787 -13.652  -2.843  0.00  0.00    -0.251 NA
ATOM     25  C   UNL d   1      29.547 -13.725  -1.713  0.00  0.00     0.137 A 
ATOM     26  C   UNL d   1      30.551 -14.665  -1.538  0.00  0.00     0.136 A 
ATOM     27  N   UNL d   1      30.863 -15.563  -2.495  0.00  0.00    -0.254 NA
ATOM     28  C   UNL d   1      30.107 -15.508  -3.636  0.00  0.00     0.127 A 
BRANCH  28  29
ATOM     29  C   UNL d   1      30.424 -16.530  -4.629  0.00  0.00     0.130 A 
ATOM     30  N   UNL d   1      30.362 -17.825  -4.408  0.00  0.00    -0.238 NA
ATOM     31  C   UNL d   1      30.574 -18.509  -5.586  0.00  0.00     0.075 A 
ATOM     32  C   UNL d   1      30.545 -19.908  -5.730  0.00  0.00     0.033 A 
ATOM     33  C   UNL d   1      30.840 -17.719  -6.706  0.00  0.00     0.035 A 
ATOM     34  C   UNL d   1      30.782 -20.479  -6.980  0.00  0.00     0.002 A 
ATOM     35  C   UNL d   1      31.031 -19.675  -8.088  0.00  0.00     0.002 A 
ATOM     36  C   UNL d   1      31.056 -18.281  -7.974  0.00  0.00     0.021 A 
ATOM     37  S   UNL d   1      30.865 -16.068  -6.229  0.00  0.00    -0.066 SA
ENDBRANCH  28  29
ENDBRANCH  21  23
ENDBRANCH  20  21
ENDBRANCH   1  20
TORSDOF 6
ENDMDL
MODEL 7
REMARK VINA RESULT:    -7.458      4.080      6.272
REMARK INTER + INTRA:         -13.008
REMARK INTER:                  -9.247
REMARK INTRA:                  -3.760
REMARK CONF_INDEPENDENT:        1.790
REMARK UNBOUND:                -3.760
REMARK  6 active torsions:
REMARK  status: ('A' for Active; 'I' for Inactive)
REMARK    1  A    between atoms: C_12  and  N_13 
REMARK       I    between atoms: N_13  and  C_14 
REMARK    2  A    between atoms: C_14  and  C_16 
REMARK    3  A    between atoms: C_16  and  O_17 
REMARK    4  A    between atoms: O_17  and  C_18 
REMARK    5  A    between atoms: C_18  and  C_20 
REMARK    6  A    between atoms: C_25  and  C_26 
ROOT
ATOM      1  C   UNL d   1      27.207 -12.444   1.021  0.00  0.00     0.281 C 
ENDROOT
BRANCH   1   2
ATOM      2  C   UNL d   1      27.232 -11.983  -0.434  0.00  0.00     0.244 C 
ATOM      3  N   UNL d   1      26.657 -12.801  -1.391  0.00  0.00    -0.329 N 
ATOM      4  H   UNL d   1      26.550 -13.793  -1.242  0.00  0.00     0.165 HD
ATOM      5  O   UNL d   1      27.788 -10.930  -0.734  0.00  0.00    -0.271 OA
BRANCH   3   6
ATOM      6  C   UNL d   1      26.550 -12.335  -2.755  0.00  0.00     0.264 A 
ATOM      7  O   UNL d   1      27.712 -11.498  -3.010  0.00  0.00    -0.353 OA
ATOM      8  C   UNL d   1      28.470 -12.050  -4.125  0.00  0.00     0.152 A 
ATOM      9  C   UNL d   1      27.777 -13.322  -4.460  0.00  0.00    -0.017 A 
ATOM     10  C   UNL d   1      28.516 -11.043  -5.277  0.00  0.00     0.044 C 
ATOM     11  C   UNL d   1      26.690 -13.454  -3.703  0.00  0.00     0.066 A 
ATOM     12  C   UNL d   1      28.206 -14.318  -5.479  0.00  0.00     0.105 C 
ATOM     13  C   UNL d   1      25.789 -14.583  -3.920  0.00  0.00     0.266 C 
ATOM     14  N   UNL d   1      26.244 -15.582  -4.731  0.00  0.00    -0.287 N 
ATOM     15  O   UNL d   1      24.666 -14.701  -3.440  0.00  0.00    -0.266 OA
ATOM     16  N   UNL d   1      27.382 -15.536  -5.538  0.00  0.00    -0.229 NA
ATOM     17  H   UNL d   1      25.557 -16.319  -4.864  0.00  0.00     0.184 HD
ATOM     18  H   UNL d   1      27.958 -16.349  -5.321  0.00  0.00     0.147 HD
ATOM     19  C   UNL d   1      28.172 -13.740  -6.887  0.00  0.00     0.033 C 
ENDBRANCH   3   6
ENDBRANCH   1   2
BRANCH   1  20
ATOM     20  O   UNL d   1      26.855 -13.853   1.060  0.00  0.00    -0.307 OA
BRANCH  20  21
ATOM     21  C   UNL d   1      27.911 -14.686   1.214  0.00  0.00     0.315 C 
ATOM     22  O   UNL d   1      28.227 -15.183   2.287  0.00  0.00    -0.257 OA
BRANCH  21  23
ATOM     23  C   UNL d   1      28.603 -15.036  -0.070  0.00  0.00     0.163 A 
ATOM     24  N   UNL d   1      29.872 -14.572  -0.292  0.00  0.00    -0.251 NA
ATOM     25  C   UNL d   1      30.505 -15.101  -1.377  0.00  0.00     0.137 A 
ATOM     26  C   UNL d   1      29.918 -16.040  -2.211  0.00  0.00     0.136 A 
ATOM     27  N   UNL d   1      28.658 -16.479  -2.016  0.00  0.00    -0.254 NA
ATOM     28  C   UNL d   1      28.006 -15.962  -0.927  0.00  0.00     0.127 A 
BRANCH  28  29
ATOM     29  C   UNL d   1      26.668 -16.499  -0.705  0.00  0.00     0.130 A 
ATOM     30  N   UNL d   1      25.554 -15.847  -0.959  0.00  0.00    -0.238 NA
ATOM     31  C   UNL d   1      24.474 -16.685  -0.783  0.00  0.00     0.075 A 
ATOM     32  C   UNL d   1      23.129 -16.333  -1.001  0.00  0.00     0.033 A 
ATOM     33  C   UNL d   1      24.773 -17.978  -0.350  0.00  0.00     0.035 A 
ATOM     34  C   UNL d   1      22.124 -17.276  -0.780  0.00  0.00     0.002 A 
ATOM     35  C   UNL d   1      22.444 -18.564  -0.363  0.00  0.00     0.002 A 
ATOM     36  C   UNL d   1      23.773 -18.941  -0.148  0.00  0.00     0.021 A 
ATOM     37  S   UNL d   1      26.471 -18.107  -0.119  0.00  0.00    -0.066 SA
ENDBRANCH  28  29
ENDBRANCH  21  23
ENDBRANCH  20  21
ENDBRANCH   1  20
TORSDOF 6
ENDMDL
MODEL 8
REMARK VINA RESULT:    -7.419      2.643      4.975
REMARK INTER + INTRA:         -12.224
REMARK INTER:                  -9.209
REMARK INTRA:                  -3.015
REMARK CONF_INDEPENDENT:        1.790
REMARK UNBOUND:                -3.015
REMARK  6 active torsions:
REMARK  status: ('A' for Active; 'I' for Inactive)
REMARK    1  A    between atoms: C_12  and  N_13 
REMARK       I    between atoms: N_13  and  C_14 
REMARK    2  A    between atoms: C_14  and  C_16 
REMARK    3  A    between atoms: C_16  and  O_17 
REMARK    4  A    between atoms: O_17  and  C_18 
REMARK    5  A    between atoms: C_18  and  C_20 
REMARK    6  A    between atoms: C_25  and  C_26 
ROOT
ATOM      1  C   UNL d   1      25.494 -14.320  -4.295  0.00  0.00     0.281 C 
ENDROOT
BRANCH   1   2
ATOM      2  C   UNL d   1      26.931 -14.777  -4.539  0.00  0.00     0.244 C 
ATOM      3  N   UNL d   1      27.871 -14.534  -3.553  0.00  0.00    -0.329 N 
ATOM      4  H   UNL d   1      27.750 -13.794  -2.878  0.00  0.00     0.165 HD
ATOM      5  O   UNL d   1      27.233 -15.308  -5.603  0.00  0.00    -0.271 OA
BRANCH   3   6
ATOM      6  C   UNL d   1      29.208 -15.066  -3.697  0.00  0.00     0.264 A 
ATOM      7  O   UNL d   1      29.079 -16.512  -3.808  0.00  0.00    -0.353 OA
ATOM      8  C   UNL d   1      29.653 -16.952  -5.073  0.00  0.00     0.152 A 
ATOM      9  C   UNL d   1      30.032 -15.696  -5.773  0.00  0.00    -0.017 A 
ATOM     10  C   UNL d   1      30.827 -17.899  -4.813  0.00  0.00     0.044 C 
ATOM     11  C   UNL d   1      29.801 -14.652  -4.980  0.00  0.00     0.066 A 
ATOM     12  C   UNL d   1      30.586 -15.587  -7.150  0.00  0.00     0.105 C 
ATOM     13  C   UNL d   1      30.188 -13.312  -5.415  0.00  0.00     0.266 C 
ATOM     14  N   UNL d   1      30.546 -13.174  -6.725  0.00  0.00    -0.287 N 
ATOM     15  O   UNL d   1      30.221 -12.314  -4.704  0.00  0.00    -0.266 OA
ATOM     16  N   UNL d   1      30.785 -14.210  -7.630  0.00  0.00    -0.229 NA
ATOM     17  H   UNL d   1      30.833 -12.225  -6.952  0.00  0.00     0.184 HD
ATOM     18  H   UNL d   1      30.210 -14.049  -8.455  0.00  0.00     0.147 HD
ATOM     19  C   UNL d   1      31.950 -16.256  -7.267  0.00  0.00     0.033 C 
ENDBRANCH   3   6
ENDBRANCH   1   2
BRANCH   1  20
ATOM     20  O   UNL d   1      24.849 -15.263  -3.398  0.00  0.00    -0.307 OA
BRANCH  20  21
ATOM     21  C   UNL d   1      25.240 -15.158  -2.106  0.00  0.00     0.315 C 
ATOM     22  O   UNL d   1      25.987 -14.279  -1.697  0.00  0.00    -0.257 OA
BRANCH  21  23
ATOM     23  C   UNL d   1      24.591 -16.153  -1.191  0.00  0.00     0.163 A 
ATOM     24  N   UNL d   1      23.240 -16.352  -1.271  0.00  0.00    -0.251 NA
ATOM     25  C   UNL d   1      22.762 -17.412  -0.560  0.00  0.00     0.137 A 
ATOM     26  C   UNL d   1      23.574 -18.239   0.202  0.00  0.00     0.136 A 
ATOM     27  N   UNL d   1      24.902 -18.030   0.311  0.00  0.00    -0.254 NA
ATOM     28  C   UNL d   1      25.402 -16.971  -0.401  0.00  0.00     0.127 A 
BRANCH  28  29
ATOM     29  C   UNL d   1      26.849 -16.806  -0.315  0.00  0.00     0.130 A 
ATOM     30  N   UNL d   1      27.723 -17.601  -0.893  0.00  0.00    -0.238 NA
ATOM     31  C   UNL d   1      28.992 -17.085  -0.744  0.00  0.00     0.075 A 
ATOM     32  C   UNL d   1      30.168 -17.654  -1.266  0.00  0.00     0.033 A 
ATOM     33  C   UNL d   1      29.083 -15.902  -0.007  0.00  0.00     0.035 A 
ATOM     34  C   UNL d   1      31.397 -17.033  -1.039  0.00  0.00     0.002 A 
ATOM     35  C   UNL d   1      31.465 -15.847  -0.315  0.00  0.00     0.002 A 
ATOM     36  C   UNL d   1      30.310 -15.255   0.206  0.00  0.00     0.021 A 
ATOM     37  S   UNL d   1      27.514 -15.469   0.545  0.00  0.00    -0.066 SA
ENDBRANCH  28  29
ENDBRANCH  21  23
ENDBRANCH  20  21
ENDBRANCH   1  20
TORSDOF 6
ENDMDL
MODEL 9
REMARK VINA RESULT:    -6.997      3.737      6.052
REMARK INTER + INTRA:         -13.169
REMARK INTER:                  -8.787
REMARK INTRA:                  -4.382
REMARK CONF_INDEPENDENT:        1.790
REMARK UNBOUND:                -4.382
REMARK  6 active torsions:
REMARK  status: ('A' for Active; 'I' for Inactive)
REMARK    1  A    between atoms: C_12  and  N_13 
REMARK       I    between atoms: N_13  and  C_14 
REMARK    2  A    between atoms: C_14  and  C_16 
REMARK    3  A    between atoms: C_16  and  O_17 
REMARK    4  A    between atoms: O_17  and  C_18 
REMARK    5  A    between atoms: C_18  and  C_20 
REMARK    6  A    between atoms: C_25  and  C_26 
ROOT
ATOM      1  C   UNL d   1      29.077 -14.627  -5.538  0.00  0.00     0.281 C 
ENDROOT
BRANCH   1   2
ATOM      2  C   UNL d   1      29.349 -13.666  -4.384  0.00  0.00     0.244 C 
ATOM      3  N   UNL d   1      28.911 -14.019  -3.120  0.00  0.00    -0.329 N 
ATOM      4  H   UNL d   1      28.150 -14.668  -2.986  0.00  0.00     0.165 HD
ATOM      5  O   UNL d   1      29.907 -12.593  -4.598  0.00  0.00    -0.271 OA
BRANCH   3   6
ATOM      6  C   UNL d   1      29.265 -13.194  -1.987  0.00  0.00     0.264 A 
ATOM      7  O   UNL d   1      28.410 -12.017  -2.036  0.00  0.00    -0.353 OA
ATOM      8  C   UNL d   1      27.630 -11.935  -0.809  0.00  0.00     0.152 A 
ATOM      9  C   UNL d   1      27.967 -13.176  -0.063  0.00  0.00    -0.017 A 
ATOM     10  C   UNL d   1      27.970 -10.645  -0.058  0.00  0.00     0.044 C 
ATOM     11  C   UNL d   1      28.902 -13.857  -0.723  0.00  0.00     0.066 A 
ATOM     12  C   UNL d   1      27.369 -13.621   1.225  0.00  0.00     0.105 C 
ATOM     13  C   UNL d   1      29.468 -15.068  -0.134  0.00  0.00     0.266 C 
ATOM     14  N   UNL d   1      28.825 -15.574   0.959  0.00  0.00    -0.287 N 
ATOM     15  O   UNL d   1      30.465 -15.657  -0.536  0.00  0.00    -0.266 OA
ATOM     16  N   UNL d   1      27.821 -14.941   1.694  0.00  0.00    -0.229 NA
ATOM     17  H   UNL d   1      29.288 -16.397   1.336  0.00  0.00     0.184 HD
ATOM     18  H   UNL d   1      27.024 -15.574   1.754  0.00  0.00     0.147 HD
ATOM     19  C   UNL d   1      27.688 -12.659   2.361  0.00  0.00     0.033 C 
ENDBRANCH   3   6
ENDBRANCH   1   2
BRANCH   1  20
ATOM     20  O   UNL d   1      28.078 -15.594  -5.117  0.00  0.00    -0.307 OA
BRANCH  20  21
ATOM     21  C   UNL d   1      26.800 -15.200  -5.325  0.00  0.00     0.315 C 
ATOM     22  O   UNL d   1      25.944 -15.920  -5.821  0.00  0.00    -0.257 OA
BRANCH  21  23
ATOM     23  C   UNL d   1      26.491 -13.832  -4.793  0.00  0.00     0.163 A 
ATOM     24  N   UNL d   1      26.640 -12.747  -5.614  0.00  0.00    -0.251 NA
ATOM     25  C   UNL d   1      26.144 -11.575  -5.128  0.00  0.00     0.137 A 
ATOM     26  C   UNL d   1      25.532 -11.468  -3.888  0.00  0.00     0.136 A 
ATOM     27  N   UNL d   1      25.410 -12.526  -3.061  0.00  0.00    -0.254 NA
ATOM     28  C   UNL d   1      25.899 -13.716  -3.534  0.00  0.00     0.127 A 
BRANCH  28  29
ATOM     29  C   UNL d   1      25.698 -14.856  -2.645  0.00  0.00     0.130 A 
ATOM     30  N   UNL d   1      26.669 -15.595  -2.155  0.00  0.00    -0.238 NA
ATOM     31  C   UNL d   1      26.157 -16.487  -1.237  0.00  0.00     0.075 A 
ATOM     32  C   UNL d   1      26.914 -17.409  -0.491  0.00  0.00     0.033 A 
ATOM     33  C   UNL d   1      24.773 -16.449  -1.061  0.00  0.00     0.035 A 
ATOM     34  C   UNL d   1      26.272 -18.265   0.405  0.00  0.00     0.002 A 
ATOM     35  C   UNL d   1      24.893 -18.201   0.578  0.00  0.00     0.002 A 
ATOM     36  C   UNL d   1      24.119 -17.287  -0.145  0.00  0.00     0.021 A 
ATOM     37  S   UNL d   1      24.109 -15.276  -2.128  0.00  0.00    -0.066 SA
ENDBRANCH  28  29
ENDBRANCH  21  23
ENDBRANCH  20  21
ENDBRANCH   1  20
TORSDOF 6
ENDMDL
