MODEL 1
REMARK VINA RESULT:    -9.990      0.000      0.000
REMARK INTER + INTRA:         -16.603
REMARK INTER:                 -13.570
REMARK INTRA:                  -3.033
REMARK CONF_INDEPENDENT:        3.580
REMARK UNBOUND:                -3.033
REMARK  12 active torsions:
REMARK  status: ('A' for Active; 'I' for Inactive)
REMARK    1  A    between atoms: C_2  and  C_3 
REMARK    2  A    between atoms: C_4  and  C_5 
REMARK    3  A    between atoms: C_5  and  O_7 
REMARK    4  A    between atoms: C_12  and  C_13 
REMARK    5  A    between atoms: N_14  and  C_13 
REMARK    6  A    between atoms: N_14  and  C_26 
REMARK    7  A    between atoms: N_14  and  C_15 
REMARK    8  A    between atoms: C_15  and  C_16 
REMARK    9  A    between atoms: C_16  and  O_17 
REMARK   10  A    between atoms: C_16  and  C_18 
REMARK   11  A    between atoms: C_18  and  O_19 
REMARK   12  A    between atoms: O_19  and  C_20 
ROOT
ATOM      1  N   UNL d   1      30.246 -14.670   2.845  0.00  0.00    -0.058 N 
ATOM      2  H   UNL d   1      29.719 -15.558   2.853  0.00  0.00     0.281 HD
ENDROOT
BRANCH   1   3
ATOM      3  C   UNL d   1      31.589 -14.974   2.098  0.00  0.00     0.188 C 
ATOM      4  C   UNL d   1      32.262 -16.240   2.609  0.00  0.00     0.033 C 
ATOM      5  C   UNL d   1      33.366 -16.714   1.629  0.00  0.00     0.002 C 
ATOM      6  C   UNL d   1      32.857 -17.016   0.231  0.00  0.00     0.000 C 
ATOM      7  C   UNL d   1      32.266 -15.763  -0.325  0.00  0.00     0.002 C 
ATOM      8  C   UNL d   1      31.293 -15.206   0.660  0.00  0.00     0.033 C 
ENDBRANCH   1   3
BRANCH   1   9
ATOM      9  C   UNL d   1      30.476 -14.378   4.330  0.00  0.00     0.269 C 
BRANCH   9  10
ATOM     10  C   UNL d   1      29.139 -14.280   5.074  0.00  0.00     0.168 C 
BRANCH  10  11
ATOM     11  O   UNL d   1      28.237 -15.212   4.459  0.00  0.00    -0.392 OA
ATOM     12  H   UNL d   1      28.705 -16.053   4.300  0.00  0.00     0.210 HD
ENDBRANCH  10  11
BRANCH  10  13
ATOM     13  C   UNL d   1      29.315 -14.449   6.571  0.00  0.00     0.209 C 
BRANCH  13  14
ATOM     14  O   UNL d   1      28.508 -13.450   7.184  0.00  0.00    -0.349 OA
BRANCH  14  15
ATOM     15  C   UNL d   1      28.548 -13.426   8.547  0.00  0.00     0.068 A 
ATOM     16  C   UNL d   1      28.913 -14.627   9.153  0.00  0.00     0.037 A 
ATOM     17  C   UNL d   1      28.845 -14.758  10.538  0.00  0.00     0.003 A 
ATOM     18  C   UNL d   1      28.481 -13.664  11.322  0.00  0.00     0.000 A 
ATOM     19  C   UNL d   1      28.137 -12.456  10.719  0.00  0.00     0.003 A 
ATOM     20  C   UNL d   1      28.157 -12.340   9.331  0.00  0.00     0.037 A 
ENDBRANCH  14  15
ENDBRANCH  13  14
ENDBRANCH  10  13
ENDBRANCH   9  10
ENDBRANCH   1   9
BRANCH   1  21
ATOM     21  C   UNL d   1      29.251 -13.623   2.213  0.00  0.00     0.313 C 
BRANCH  21  22
ATOM     22  C   UNL d   1      28.005 -14.151   1.417  0.00  0.00     0.134 C 
ATOM     23  N   UNL d   1      27.293 -13.432   0.578  0.00  0.00    -0.225 NA
ATOM     24  C   UNL d   1      26.823 -14.146  -0.524  0.00  0.00     0.116 C 
ATOM     25  S   UNL d   1      26.346 -13.451  -2.059  0.00  0.00    -0.063 SA
ATOM     26  C   UNL d   1      26.816 -15.513  -0.609  0.00  0.00     0.076 C 
ATOM     27  C   UNL d   1      26.235 -15.004  -2.860  0.00  0.00     0.089 C 
ATOM     28  C   UNL d   1      26.224 -15.960  -1.842  0.00  0.00    -0.017 C 
ATOM     29  C   UNL d   1      27.084 -16.209   0.636  0.00  0.00     0.260 C 
ATOM     30  N   UNL d   1      27.868 -15.515   1.512  0.00  0.00    -0.309 N 
ATOM     31  O   UNL d   1      26.602 -17.296   0.961  0.00  0.00    -0.267 OA
ATOM     32  H   UNL d   1      27.929 -15.943   2.428  0.00  0.00     0.170 HD
BRANCH  27  33
ATOM     33  C   UNL d   1      25.870 -15.100  -4.292  0.00  0.00     0.300 C 
ATOM     34  O   UNL d   1      24.780 -14.817  -4.795  0.00  0.00    -0.259 OA
BRANCH  33  35
ATOM     35  O   UNL d   1      26.920 -15.575  -5.020  0.00  0.00    -0.322 OA
ATOM     36  C   UNL d   1      27.722 -14.652  -5.772  0.00  0.00     0.213 C 
ENDBRANCH  33  35
ENDBRANCH  27  33
BRANCH  28  37
ATOM     37  C   UNL d   1      25.376 -17.175  -1.814  0.00  0.00     0.037 C 
ATOM     38  C   UNL d   1      24.199 -16.796  -0.903  0.00  0.00     0.010 C 
ENDBRANCH  28  37
ENDBRANCH  21  22
ENDBRANCH   1  21
TORSDOF 12
ENDMDL
MODEL 2
REMARK VINA RESULT:    -9.910      3.783      8.890
REMARK INTER + INTRA:         -17.072
REMARK INTER:                 -13.490
REMARK INTRA:                  -3.582
REMARK CONF_INDEPENDENT:        3.580
REMARK UNBOUND:                -3.582
REMARK  12 active torsions:
REMARK  status: ('A' for Active; 'I' for Inactive)
REMARK    1  A    between atoms: C_2  and  C_3 
REMARK    2  A    between atoms: C_4  and  C_5 
REMARK    3  A    between atoms: C_5  and  O_7 
REMARK    4  A    between atoms: C_12  and  C_13 
REMARK    5  A    between atoms: N_14  and  C_13 
REMARK    6  A    between atoms: N_14  and  C_26 
REMARK    7  A    between atoms: N_14  and  C_15 
REMARK    8  A    between atoms: C_15  and  C_16 
REMARK    9  A    between atoms: C_16  and  O_17 
REMARK   10  A    between atoms: C_16  and  C_18 
REMARK   11  A    between atoms: C_18  and  O_19 
REMARK   12  A    between atoms: O_19  and  C_20 
ROOT
ATOM      1  N   UNL d   1      26.387 -16.104  -0.319  0.00  0.00    -0.058 N 
ATOM      2  H   UNL d   1      25.642 -15.592   0.180  0.00  0.00     0.281 HD
ENDROOT
BRANCH   1   3
ATOM      3  C   UNL d   1      26.541 -15.396  -1.708  0.00  0.00     0.188 C 
ATOM      4  C   UNL d   1      25.613 -15.984  -2.762  0.00  0.00     0.033 C 
ATOM      5  C   UNL d   1      25.514 -15.048  -3.995  0.00  0.00     0.002 C 
ATOM      6  C   UNL d   1      24.994 -13.660  -3.671  0.00  0.00     0.000 C 
ATOM      7  C   UNL d   1      25.937 -13.029  -2.700  0.00  0.00     0.002 C 
ATOM      8  C   UNL d   1      26.160 -13.968  -1.560  0.00  0.00     0.033 C 
ENDBRANCH   1   3
BRANCH   1   9
ATOM      9  C   UNL d   1      25.815 -17.517  -0.461  0.00  0.00     0.269 C 
BRANCH   9  10
ATOM     10  C   UNL d   1      24.347 -17.551  -0.022  0.00  0.00     0.168 C 
BRANCH  10  11
ATOM     11  O   UNL d   1      23.777 -16.271  -0.332  0.00  0.00    -0.392 OA
ATOM     12  H   UNL d   1      23.056 -16.391  -0.980  0.00  0.00     0.210 HD
ENDBRANCH  10  11
BRANCH  10  13
ATOM     13  C   UNL d   1      23.612 -18.741  -0.609  0.00  0.00     0.209 C 
BRANCH  13  14
ATOM     14  O   UNL d   1      22.366 -18.246  -1.085  0.00  0.00    -0.349 OA
BRANCH  14  15
ATOM     15  C   UNL d   1      21.261 -18.815  -0.525  0.00  0.00     0.068 A 
ATOM     16  C   UNL d   1      21.301 -18.953   0.862  0.00  0.00     0.037 A 
ATOM     17  C   UNL d   1      20.294 -19.652   1.523  0.00  0.00     0.003 A 
ATOM     18  C   UNL d   1      19.207 -20.149   0.805  0.00  0.00     0.000 A 
ATOM     19  C   UNL d   1      19.154 -19.992  -0.579  0.00  0.00     0.003 A 
ATOM     20  C   UNL d   1      20.187 -19.338  -1.246  0.00  0.00     0.037 A 
ENDBRANCH  14  15
ENDBRANCH  13  14
ENDBRANCH  10  13
ENDBRANCH   9  10
ENDBRANCH   1   9
BRANCH   1  21
ATOM     21  C   UNL d   1      27.612 -16.091   0.674  0.00  0.00     0.313 C 
BRANCH  21  22
ATOM     22  C   UNL d   1      28.023 -14.732   1.347  0.00  0.00     0.134 C 
ATOM     23  N   UNL d   1      28.166 -13.593   0.707  0.00  0.00    -0.225 NA
ATOM     24  C   UNL d   1      27.760 -12.478   1.438  0.00  0.00     0.116 C 
ATOM     25  S   UNL d   1      27.290 -10.932   0.761  0.00  0.00    -0.063 SA
ATOM     26  C   UNL d   1      27.524 -12.485   2.787  0.00  0.00     0.076 C 
ATOM     27  C   UNL d   1      26.672 -10.322   2.282  0.00  0.00     0.089 C 
ATOM     28  C   UNL d   1      27.170 -11.176   3.267  0.00  0.00    -0.017 C 
ATOM     29  C   UNL d   1      27.979 -13.674   3.485  0.00  0.00     0.260 C 
ATOM     30  N   UNL d   1      27.999 -14.804   2.719  0.00  0.00    -0.309 N 
ATOM     31  O   UNL d   1      28.403 -13.701   4.643  0.00  0.00    -0.267 OA
ATOM     32  H   UNL d   1      28.452 -15.591   3.169  0.00  0.00     0.170 HD
BRANCH  27  33
ATOM     33  C   UNL d   1      26.069  -8.972   2.374  0.00  0.00     0.300 C 
ATOM     34  O   UNL d   1      26.312  -8.113   3.224  0.00  0.00    -0.259 OA
BRANCH  33  35
ATOM     35  O   UNL d   1      25.160  -8.789   1.375  0.00  0.00    -0.322 OA
ATOM     36  C   UNL d   1      25.607  -8.280   0.109  0.00  0.00     0.213 C 
ENDBRANCH  33  35
ENDBRANCH  27  33
BRANCH  28  37
ATOM     37  C   UNL d   1      27.680 -10.752   4.594  0.00  0.00     0.037 C 
ATOM     38  C   UNL d   1      28.867  -9.835   4.269  0.00  0.00     0.010 C 
ENDBRANCH  28  37
ENDBRANCH  21  22
ENDBRANCH   1  21
TORSDOF 12
ENDMDL
MODEL 3
REMARK VINA RESULT:    -9.734      2.890      6.632
REMARK INTER + INTRA:         -16.865
REMARK INTER:                 -13.313
REMARK INTRA:                  -3.552
REMARK CONF_INDEPENDENT:        3.580
REMARK UNBOUND:                -3.552
REMARK  12 active torsions:
REMARK  status: ('A' for Active; 'I' for Inactive)
REMARK    1  A    between atoms: C_2  and  C_3 
REMARK    2  A    between atoms: C_4  and  C_5 
REMARK    3  A    between atoms: C_5  and  O_7 
REMARK    4  A    between atoms: C_12  and  C_13 
REMARK    5  A    between atoms: N_14  and  C_13 
REMARK    6  A    between atoms: N_14  and  C_26 
REMARK    7  A    between atoms: N_14  and  C_15 
REMARK    8  A    between atoms: C_15  and  C_16 
REMARK    9  A    between atoms: C_16  and  O_17 
REMARK   10  A    between atoms: C_16  and  C_18 
REMARK   11  A    between atoms: C_18  and  O_19 
REMARK   12  A    between atoms: O_19  and  C_20 
ROOT
ATOM      1  N   UNL d   1      28.973 -14.786   2.281  0.00  0.00    -0.058 N 
ATOM      2  H   UNL d   1      29.636 -15.575   2.357  0.00  0.00     0.281 HD
ENDROOT
BRANCH   1   3
ATOM      3  C   UNL d   1      28.434 -14.536   3.730  0.00  0.00     0.188 C 
ATOM      4  C   UNL d   1      29.479 -14.834   4.796  0.00  0.00     0.033 C 
ATOM      5  C   UNL d   1      29.059 -14.238   6.165  0.00  0.00     0.002 C 
ATOM      6  C   UNL d   1      28.864 -12.734   6.145  0.00  0.00     0.000 C 
ATOM      7  C   UNL d   1      27.781 -12.422   5.165  0.00  0.00     0.002 C 
ATOM      8  C   UNL d   1      28.089 -13.097   3.869  0.00  0.00     0.033 C 
ENDBRANCH   1   3
BRANCH   1   9
ATOM      9  C   UNL d   1      27.882 -15.326   1.354  0.00  0.00     0.269 C 
BRANCH   9  10
ATOM     10  C   UNL d   1      28.497 -16.148   0.216  0.00  0.00     0.168 C 
BRANCH  10  11
ATOM     11  O   UNL d   1      29.838 -16.482   0.605  0.00  0.00    -0.392 OA
ATOM     12  H   UNL d   1      29.972 -17.443   0.496  0.00  0.00     0.210 HD
ENDBRANCH  10  11
BRANCH  10  13
ATOM     13  C   UNL d   1      27.625 -17.330  -0.160  0.00  0.00     0.209 C 
BRANCH  13  14
ATOM     14  O   UNL d   1      26.663 -16.839  -1.087  0.00  0.00    -0.349 OA
BRANCH  14  15
ATOM     15  C   UNL d   1      25.370 -17.180  -0.820  0.00  0.00     0.068 A 
ATOM     16  C   UNL d   1      24.413 -16.260  -1.243  0.00  0.00     0.037 A 
ATOM     17  C   UNL d   1      23.075 -16.436  -0.895  0.00  0.00     0.003 A 
ATOM     18  C   UNL d   1      22.685 -17.570  -0.186  0.00  0.00     0.000 A 
ATOM     19  C   UNL d   1      23.639 -18.502   0.219  0.00  0.00     0.003 A 
ATOM     20  C   UNL d   1      24.983 -18.302  -0.086  0.00  0.00     0.037 A 
ENDBRANCH  14  15
ENDBRANCH  13  14
ENDBRANCH  10  13
ENDBRANCH   9  10
ENDBRANCH   1   9
BRANCH   1  21
ATOM     21  C   UNL d   1      29.797 -13.642   1.574  0.00  0.00     0.313 C 
BRANCH  21  22
ATOM     22  C   UNL d   1      29.355 -13.167   0.144  0.00  0.00     0.134 C 
ATOM     23  N   UNL d   1      29.728 -13.733  -0.982  0.00  0.00    -0.225 NA
ATOM     24  C   UNL d   1      28.741 -13.743  -1.967  0.00  0.00     0.116 C 
ATOM     25  S   UNL d   1      28.669 -14.846  -3.325  0.00  0.00    -0.063 SA
ATOM     26  C   UNL d   1      27.601 -12.985  -1.921  0.00  0.00     0.076 C 
ATOM     27  C   UNL d   1      27.049 -14.363  -3.780  0.00  0.00     0.089 C 
ATOM     28  C   UNL d   1      26.800 -13.169  -3.103  0.00  0.00    -0.017 C 
ATOM     29  C   UNL d   1      27.589 -11.950  -0.904  0.00  0.00     0.260 C 
ATOM     30  N   UNL d   1      28.349 -12.232   0.196  0.00  0.00    -0.309 N 
ATOM     31  O   UNL d   1      27.030 -10.856  -1.008  0.00  0.00    -0.267 OA
ATOM     32  H   UNL d   1      28.450 -11.449   0.830  0.00  0.00     0.170 HD
BRANCH  27  33
ATOM     33  C   UNL d   1      26.358 -14.995  -4.929  0.00  0.00     0.300 C 
ATOM     34  O   UNL d   1      25.155 -15.249  -5.016  0.00  0.00    -0.259 OA
BRANCH  33  35
ATOM     35  O   UNL d   1      27.251 -15.293  -5.915  0.00  0.00    -0.322 OA
ATOM     36  C   UNL d   1      28.156 -14.274  -6.368  0.00  0.00     0.213 C 
ENDBRANCH  33  35
ENDBRANCH  27  33
BRANCH  28  37
ATOM     37  C   UNL d   1      26.100 -11.990  -3.667  0.00  0.00     0.037 C 
ATOM     38  C   UNL d   1      27.216 -11.160  -4.316  0.00  0.00     0.010 C 
ENDBRANCH  28  37
ENDBRANCH  21  22
ENDBRANCH   1  21
TORSDOF 12
ENDMDL
MODEL 4
REMARK VINA RESULT:    -8.843      2.515      6.831
REMARK INTER + INTRA:         -16.152
REMARK INTER:                 -12.423
REMARK INTRA:                  -3.729
REMARK CONF_INDEPENDENT:        3.580
REMARK UNBOUND:                -3.729
REMARK  12 active torsions:
REMARK  status: ('A' for Active; 'I' for Inactive)
REMARK    1  A    between atoms: C_2  and  C_3 
REMARK    2  A    between atoms: C_4  and  C_5 
REMARK    3  A    between atoms: C_5  and  O_7 
REMARK    4  A    between atoms: C_12  and  C_13 
REMARK    5  A    between atoms: N_14  and  C_13 
REMARK    6  A    between atoms: N_14  and  C_26 
REMARK    7  A    between atoms: N_14  and  C_15 
REMARK    8  A    between atoms: C_15  and  C_16 
REMARK    9  A    between atoms: C_16  and  O_17 
REMARK   10  A    between atoms: C_16  and  C_18 
REMARK   11  A    between atoms: C_18  and  O_19 
REMARK   12  A    between atoms: O_19  and  C_20 
ROOT
ATOM      1  N   UNL d   1      29.078 -14.526   2.388  0.00  0.00    -0.058 N 
ATOM      2  H   UNL d   1      28.794 -15.492   2.619  0.00  0.00     0.281 HD
ENDROOT
BRANCH   1   3
ATOM      3  C   UNL d   1      29.098 -13.747   3.748  0.00  0.00     0.188 C 
ATOM      4  C   UNL d   1      27.710 -13.610   4.357  0.00  0.00     0.033 C 
ATOM      5  C   UNL d   1      27.798 -13.177   5.843  0.00  0.00     0.002 C 
ATOM      6  C   UNL d   1      28.573 -14.144   6.719  0.00  0.00     0.000 C 
ATOM      7  C   UNL d   1      29.967 -14.231   6.190  0.00  0.00     0.002 C 
ATOM      8  C   UNL d   1      29.913 -14.515   4.725  0.00  0.00     0.033 C 
ENDBRANCH   1   3
BRANCH   1   9
ATOM      9  C   UNL d   1      27.957 -14.035   1.469  0.00  0.00     0.269 C 
BRANCH   9  10
ATOM     10  C   UNL d   1      27.499 -15.155   0.529  0.00  0.00     0.168 C 
BRANCH  10  11
ATOM     11  O   UNL d   1      27.800 -16.403   1.171  0.00  0.00    -0.392 OA
ATOM     12  H   UNL d   1      28.717 -16.661   0.956  0.00  0.00     0.210 HD
ENDBRANCH  10  11
BRANCH  10  13
ATOM     13  C   UNL d   1      26.053 -14.982   0.109  0.00  0.00     0.209 C 
BRANCH  13  14
ATOM     14  O   UNL d   1      25.838 -15.883  -0.971  0.00  0.00    -0.349 OA
BRANCH  14  15
ATOM     15  C   UNL d   1      24.844 -16.796  -0.779  0.00  0.00     0.068 A 
ATOM     16  C   UNL d   1      23.548 -16.289  -0.862  0.00  0.00     0.037 A 
ATOM     17  C   UNL d   1      22.461 -17.099  -0.539  0.00  0.00     0.003 A 
ATOM     18  C   UNL d   1      22.666 -18.436  -0.205  0.00  0.00     0.000 A 
ATOM     19  C   UNL d   1      23.960 -18.950  -0.145  0.00  0.00     0.003 A 
ATOM     20  C   UNL d   1      25.050 -18.127  -0.418  0.00  0.00     0.037 A 
ENDBRANCH  14  15
ENDBRANCH  13  14
ENDBRANCH  10  13
ENDBRANCH   9  10
ENDBRANCH   1   9
BRANCH   1  21
ATOM     21  C   UNL d   1      30.429 -14.688   1.592  0.00  0.00     0.313 C 
BRANCH  21  22
ATOM     22  C   UNL d   1      30.383 -14.703   0.022  0.00  0.00     0.134 C 
ATOM     23  N   UNL d   1      29.960 -15.712  -0.706  0.00  0.00    -0.225 NA
ATOM     24  C   UNL d   1      29.279 -15.332  -1.861  0.00  0.00     0.116 C 
ATOM     25  S   UNL d   1      28.136 -16.325  -2.742  0.00  0.00    -0.063 SA
ATOM     26  C   UNL d   1      29.293 -14.066  -2.382  0.00  0.00     0.076 C 
ATOM     27  C   UNL d   1      27.592 -15.005  -3.756  0.00  0.00     0.089 C 
ATOM     28  C   UNL d   1      28.541 -13.992  -3.607  0.00  0.00    -0.017 C 
ATOM     29  C   UNL d   1      30.286 -13.175  -1.809  0.00  0.00     0.260 C 
ATOM     30  N   UNL d   1      30.618 -13.460  -0.515  0.00  0.00    -0.309 N 
ATOM     31  O   UNL d   1      30.873 -12.278  -2.418  0.00  0.00    -0.267 OA
ATOM     32  H   UNL d   1      31.410 -12.928  -0.174  0.00  0.00     0.170 HD
BRANCH  27  33
ATOM     33  C   UNL d   1      26.534 -15.209  -4.772  0.00  0.00     0.300 C 
ATOM     34  O   UNL d   1      26.700 -15.448  -5.970  0.00  0.00    -0.259 OA
BRANCH  33  35
ATOM     35  O   UNL d   1      25.300 -15.078  -4.207  0.00  0.00    -0.322 OA
ATOM     36  C   UNL d   1      25.026 -13.934  -3.385  0.00  0.00     0.213 C 
ENDBRANCH  33  35
ENDBRANCH  27  33
BRANCH  28  37
ATOM     37  C   UNL d   1      29.058 -13.132  -4.698  0.00  0.00     0.037 C 
ATOM     38  C   UNL d   1      29.660 -14.120  -5.707  0.00  0.00     0.010 C 
ENDBRANCH  28  37
ENDBRANCH  21  22
ENDBRANCH   1  21
TORSDOF 12
ENDMDL
MODEL 5
REMARK VINA RESULT:    -8.314      2.495      4.133
REMARK INTER + INTRA:         -16.017
REMARK INTER:                 -11.894
REMARK INTRA:                  -4.123
REMARK CONF_INDEPENDENT:        3.580
REMARK UNBOUND:                -4.123
REMARK  12 active torsions:
REMARK  status: ('A' for Active; 'I' for Inactive)
REMARK    1  A    between atoms: C_2  and  C_3 
REMARK    2  A    between atoms: C_4  and  C_5 
REMARK    3  A    between atoms: C_5  and  O_7 
REMARK    4  A    between atoms: C_12  and  C_13 
REMARK    5  A    between atoms: N_14  and  C_13 
REMARK    6  A    between atoms: N_14  and  C_26 
REMARK    7  A    between atoms: N_14  and  C_15 
REMARK    8  A    between atoms: C_15  and  C_16 
REMARK    9  A    between atoms: C_16  and  O_17 
REMARK   10  A    between atoms: C_16  and  C_18 
REMARK   11  A    between atoms: C_18  and  O_19 
REMARK   12  A    between atoms: O_19  and  C_20 
ROOT
ATOM      1  N   UNL d   1      30.369 -15.068   1.782  0.00  0.00    -0.058 N 
ATOM      2  H   UNL d   1      29.704 -15.575   2.388  0.00  0.00     0.281 HD
ENDROOT
BRANCH   1   3
ATOM      3  C   UNL d   1      31.547 -14.624   2.714  0.00  0.00     0.188 C 
ATOM      4  C   UNL d   1      32.911 -14.895   2.094  0.00  0.00     0.033 C 
ATOM      5  C   UNL d   1      34.025 -14.127   2.851  0.00  0.00     0.002 C 
ATOM      6  C   UNL d   1      33.834 -12.621   2.861  0.00  0.00     0.000 C 
ATOM      7  C   UNL d   1      32.539 -12.325   3.542  0.00  0.00     0.002 C 
ATOM      8  C   UNL d   1      31.463 -13.155   2.922  0.00  0.00     0.033 C 
ENDBRANCH   1   3
BRANCH   1   9
ATOM      9  C   UNL d   1      29.557 -13.871   1.282  0.00  0.00     0.269 C 
BRANCH   9  10
ATOM     10  C   UNL d   1      28.063 -14.082   1.552  0.00  0.00     0.168 C 
BRANCH  10  11
ATOM     11  O   UNL d   1      27.897 -15.430   2.017  0.00  0.00    -0.392 OA
ATOM     12  H   UNL d   1      28.403 -16.032   1.438  0.00  0.00     0.210 HD
ENDBRANCH  10  11
BRANCH  10  13
ATOM     13  C   UNL d   1      27.501 -13.013   2.469  0.00  0.00     0.209 C 
BRANCH  13  14
ATOM     14  O   UNL d   1      26.973 -13.694   3.602  0.00  0.00    -0.349 OA
BRANCH  14  15
ATOM     15  C   UNL d   1      27.828 -13.818   4.657  0.00  0.00     0.068 A 
ATOM     16  C   UNL d   1      27.780 -12.782   5.587  0.00  0.00     0.037 A 
ATOM     17  C   UNL d   1      28.709 -12.731   6.624  0.00  0.00     0.003 A 
ATOM     18  C   UNL d   1      29.640 -13.758   6.773  0.00  0.00     0.000 A 
ATOM     19  C   UNL d   1      29.675 -14.807   5.857  0.00  0.00     0.003 A 
ATOM     20  C   UNL d   1      28.778 -14.831   4.790  0.00  0.00     0.037 A 
ENDBRANCH  14  15
ENDBRANCH  13  14
ENDBRANCH  10  13
ENDBRANCH   9  10
ENDBRANCH   1   9
BRANCH   1  21
ATOM     21  C   UNL d   1      30.677 -16.071   0.604  0.00  0.00     0.313 C 
BRANCH  21  22
ATOM     22  C   UNL d   1      29.505 -16.492  -0.353  0.00  0.00     0.134 C 
ATOM     23  N   UNL d   1      28.694 -17.505  -0.144  0.00  0.00    -0.225 NA
ATOM     24  C   UNL d   1      27.384 -17.279  -0.562  0.00  0.00     0.116 C 
ATOM     25  S   UNL d   1      25.967 -18.121   0.028  0.00  0.00    -0.063 SA
ATOM     26  C   UNL d   1      27.006 -16.252  -1.386  0.00  0.00     0.076 C 
ATOM     27  C   UNL d   1      24.847 -17.026  -0.752  0.00  0.00     0.089 C 
ATOM     28  C   UNL d   1      25.599 -16.308  -1.683  0.00  0.00    -0.017 C 
ATOM     29  C   UNL d   1      28.097 -15.546  -2.032  0.00  0.00     0.260 C 
ATOM     30  N   UNL d   1      29.267 -15.552  -1.327  0.00  0.00    -0.309 N 
ATOM     31  O   UNL d   1      28.052 -15.041  -3.155  0.00  0.00    -0.267 OA
ATOM     32  H   UNL d   1      30.055 -15.185  -1.847  0.00  0.00     0.170 HD
BRANCH  27  33
ATOM     33  C   UNL d   1      23.383 -17.198  -0.605  0.00  0.00     0.300 C 
ATOM     34  O   UNL d   1      22.567 -16.331  -0.283  0.00  0.00    -0.259 OA
BRANCH  33  35
ATOM     35  O   UNL d   1      23.028 -18.489  -0.863  0.00  0.00    -0.322 OA
ATOM     36  C   UNL d   1      21.732 -18.952  -0.453  0.00  0.00     0.213 C 
ENDBRANCH  33  35
ENDBRANCH  27  33
BRANCH  28  37
ATOM     37  C   UNL d   1      25.155 -15.947  -3.051  0.00  0.00     0.037 C 
ATOM     38  C   UNL d   1      24.848 -14.445  -2.966  0.00  0.00     0.010 C 
ENDBRANCH  28  37
ENDBRANCH  21  22
ENDBRANCH   1  21
TORSDOF 12
ENDMDL
MODEL 6
REMARK VINA RESULT:    -7.839      3.398      8.258
REMARK INTER + INTRA:         -16.334
REMARK INTER:                 -11.418
REMARK INTRA:                  -4.916
REMARK CONF_INDEPENDENT:        3.580
REMARK UNBOUND:                -4.916
REMARK  12 active torsions:
REMARK  status: ('A' for Active; 'I' for Inactive)
REMARK    1  A    between atoms: C_2  and  C_3 
REMARK    2  A    between atoms: C_4  and  C_5 
REMARK    3  A    between atoms: C_5  and  O_7 
REMARK    4  A    between atoms: C_12  and  C_13 
REMARK    5  A    between atoms: N_14  and  C_13 
REMARK    6  A    between atoms: N_14  and  C_26 
REMARK    7  A    between atoms: N_14  and  C_15 
REMARK    8  A    between atoms: C_15  and  C_16 
REMARK    9  A    between atoms: C_16  and  O_17 
REMARK   10  A    between atoms: C_16  and  C_18 
REMARK   11  A    between atoms: C_18  and  O_19 
REMARK   12  A    between atoms: O_19  and  C_20 
ROOT
ATOM      1  N   UNL d   1      29.934 -15.205   1.316  0.00  0.00    -0.058 N 
ATOM      2  H   UNL d   1      30.023 -16.226   1.443  0.00  0.00     0.281 HD
ENDROOT
BRANCH   1   3
ATOM      3  C   UNL d   1      28.469 -14.846   1.738  0.00  0.00     0.188 C 
ATOM      4  C   UNL d   1      28.385 -14.351   3.176  0.00  0.00     0.033 C 
ATOM      5  C   UNL d   1      27.021 -13.665   3.446  0.00  0.00     0.002 C 
ATOM      6  C   UNL d   1      26.746 -12.472   2.550  0.00  0.00     0.000 C 
ATOM      7  C   UNL d   1      26.740 -12.948   1.135  0.00  0.00     0.002 C 
ATOM      8  C   UNL d   1      27.984 -13.732   0.881  0.00  0.00     0.033 C 
ENDBRANCH   1   3
BRANCH   1   9
ATOM      9  C   UNL d   1      30.157 -15.011  -0.186  0.00  0.00     0.269 C 
BRANCH   9  10
ATOM     10  C   UNL d   1      30.112 -16.358  -0.916  0.00  0.00     0.168 C 
BRANCH  10  11
ATOM     11  O   UNL d   1      30.692 -17.339  -0.044  0.00  0.00    -0.392 OA
ATOM     12  H   UNL d   1      29.979 -17.876   0.351  0.00  0.00     0.210 HD
ENDBRANCH  10  11
BRANCH  10  13
ATOM     13  C   UNL d   1      28.715 -16.683  -1.410  0.00  0.00     0.209 C 
BRANCH  13  14
ATOM     14  O   UNL d   1      28.012 -17.222  -0.295  0.00  0.00    -0.349 OA
BRANCH  14  15
ATOM     15  C   UNL d   1      26.654 -17.142  -0.371  0.00  0.00     0.068 A 
ATOM     16  C   UNL d   1      25.960 -18.112   0.352  0.00  0.00     0.037 A 
ATOM     17  C   UNL d   1      24.576 -18.215   0.230  0.00  0.00     0.003 A 
ATOM     18  C   UNL d   1      23.878 -17.301  -0.557  0.00  0.00     0.000 A 
ATOM     19  C   UNL d   1      24.568 -16.317  -1.263  0.00  0.00     0.003 A 
ATOM     20  C   UNL d   1      25.957 -16.245  -1.181  0.00  0.00     0.037 A 
ENDBRANCH  14  15
ENDBRANCH  13  14
ENDBRANCH  10  13
ENDBRANCH   9  10
ENDBRANCH   1   9
BRANCH   1  21
ATOM     21  C   UNL d   1      31.129 -14.596   2.146  0.00  0.00     0.313 C 
BRANCH  21  22
ATOM     22  C   UNL d   1      31.021 -13.111   2.646  0.00  0.00     0.134 C 
ATOM     23  N   UNL d   1      30.645 -12.095   1.901  0.00  0.00    -0.225 NA
ATOM     24  C   UNL d   1      29.892 -11.140   2.582  0.00  0.00     0.116 C 
ATOM     25  S   UNL d   1      28.792  -9.995   1.843  0.00  0.00    -0.063 SA
ATOM     26  C   UNL d   1      29.791 -11.069   3.946  0.00  0.00     0.076 C 
ATOM     27  C   UNL d   1      28.111  -9.484   3.373  0.00  0.00     0.089 C 
ATOM     28  C   UNL d   1      28.987  -9.948   4.356  0.00  0.00    -0.017 C 
ATOM     29  C   UNL d   1      30.737 -11.892   4.677  0.00  0.00     0.260 C 
ATOM     30  N   UNL d   1      31.141 -13.013   4.011  0.00  0.00    -0.309 N 
ATOM     31  O   UNL d   1      31.231 -11.607   5.771  0.00  0.00    -0.267 OA
ATOM     32  H   UNL d   1      31.904 -13.501   4.465  0.00  0.00     0.170 HD
BRANCH  27  33
ATOM     33  C   UNL d   1      27.031  -8.472   3.428  0.00  0.00     0.300 C 
ATOM     34  O   UNL d   1      27.077  -7.375   3.990  0.00  0.00    -0.259 OA
BRANCH  33  35
ATOM     35  O   UNL d   1      25.925  -8.921   2.770  0.00  0.00    -0.322 OA
ATOM     36  C   UNL d   1      25.805  -8.681   1.360  0.00  0.00     0.213 C 
ENDBRANCH  33  35
ENDBRANCH  27  33
BRANCH  28  37
ATOM     37  C   UNL d   1      29.394  -9.197   5.568  0.00  0.00     0.037 C 
ATOM     38  C   UNL d   1      28.905 -10.067   6.735  0.00  0.00     0.010 C 
ENDBRANCH  28  37
ENDBRANCH  21  22
ENDBRANCH   1  21
TORSDOF 12
ENDMDL
MODEL 7
REMARK VINA RESULT:    -7.809      3.647      9.300
REMARK INTER + INTRA:         -16.059
REMARK INTER:                 -11.389
REMARK INTRA:                  -4.670
REMARK CONF_INDEPENDENT:        3.580
REMARK UNBOUND:                -4.670
REMARK  12 active torsions:
REMARK  status: ('A' for Active; 'I' for Inactive)
REMARK    1  A    between atoms: C_2  and  C_3 
REMARK    2  A    between atoms: C_4  and  C_5 
REMARK    3  A    between atoms: C_5  and  O_7 
REMARK    4  A    between atoms: C_12  and  C_13 
REMARK    5  A    between atoms: N_14  and  C_13 
REMARK    6  A    between atoms: N_14  and  C_26 
REMARK    7  A    between atoms: N_14  and  C_15 
REMARK    8  A    between atoms: C_15  and  C_16 
REMARK    9  A    between atoms: C_16  and  O_17 
REMARK   10  A    between atoms: C_16  and  C_18 
REMARK   11  A    between atoms: C_18  and  O_19 
REMARK   12  A    between atoms: O_19  and  C_20 
ROOT
ATOM      1  N   UNL d   1      27.173 -15.563  -0.998  0.00  0.00    -0.058 N 
ATOM      2  H   UNL d   1      27.639 -15.486  -1.916  0.00  0.00     0.281 HD
ENDROOT
BRANCH   1   3
ATOM      3  C   UNL d   1      26.269 -16.840  -1.080  0.00  0.00     0.188 C 
ATOM      4  C   UNL d   1      26.150 -17.553   0.259  0.00  0.00     0.033 C 
ATOM      5  C   UNL d   1      24.982 -18.573   0.241  0.00  0.00     0.002 C 
ATOM      6  C   UNL d   1      23.629 -17.951  -0.051  0.00  0.00     0.000 C 
ATOM      7  C   UNL d   1      23.695 -17.316  -1.401  0.00  0.00     0.002 C 
ATOM      8  C   UNL d   1      24.893 -16.427  -1.461  0.00  0.00     0.033 C 
ENDBRANCH   1   3
BRANCH   1   9
ATOM      9  C   UNL d   1      26.340 -14.282  -0.911  0.00  0.00     0.269 C 
BRANCH   9  10
ATOM     10  C   UNL d   1      26.687 -13.333  -2.063  0.00  0.00     0.168 C 
BRANCH  10  11
ATOM     11  O   UNL d   1      28.117 -13.305  -2.180  0.00  0.00    -0.392 OA
ATOM     12  H   UNL d   1      28.489 -12.802  -1.430  0.00  0.00     0.210 HD
ENDBRANCH  10  11
BRANCH  10  13
ATOM     13  C   UNL d   1      25.947 -13.700  -3.335  0.00  0.00     0.209 C 
BRANCH  13  14
ATOM     14  O   UNL d   1      26.338 -15.030  -3.657  0.00  0.00    -0.349 OA
BRANCH  14  15
ATOM     15  C   UNL d   1      27.479 -15.138  -4.395  0.00  0.00     0.068 A 
ATOM     16  C   UNL d   1      27.403 -14.624  -5.688  0.00  0.00     0.037 A 
ATOM     17  C   UNL d   1      28.459 -14.811  -6.577  0.00  0.00     0.003 A 
ATOM     18  C   UNL d   1      29.622 -15.448  -6.150  0.00  0.00     0.000 A 
ATOM     19  C   UNL d   1      29.709 -15.944  -4.850  0.00  0.00     0.003 A 
ATOM     20  C   UNL d   1      28.633 -15.801  -3.976  0.00  0.00     0.037 A 
ENDBRANCH  14  15
ENDBRANCH  13  14
ENDBRANCH  10  13
ENDBRANCH   9  10
ENDBRANCH   1   9
BRANCH   1  21
ATOM     21  C   UNL d   1      28.352 -15.540   0.049  0.00  0.00     0.313 C 
BRANCH  21  22
ATOM     22  C   UNL d   1      28.558 -14.254   0.926  0.00  0.00     0.134 C 
ATOM     23  N   UNL d   1      28.751 -13.045   0.448  0.00  0.00    -0.225 NA
ATOM     24  C   UNL d   1      28.158 -12.035   1.203  0.00  0.00     0.116 C 
ATOM     25  S   UNL d   1      27.735 -10.440   0.617  0.00  0.00    -0.063 SA
ATOM     26  C   UNL d   1      27.680 -12.204   2.476  0.00  0.00     0.076 C 
ATOM     27  C   UNL d   1      26.817 -10.028   2.050  0.00  0.00     0.089 C 
ATOM     28  C   UNL d   1      27.173 -10.971   3.016  0.00  0.00    -0.017 C 
ATOM     29  C   UNL d   1      28.065 -13.448   3.118  0.00  0.00     0.260 C 
ATOM     30  N   UNL d   1      28.287 -14.482   2.254  0.00  0.00    -0.309 N 
ATOM     31  O   UNL d   1      28.271 -13.592   4.325  0.00  0.00    -0.267 OA
ATOM     32  H   UNL d   1      28.693 -15.299   2.696  0.00  0.00     0.170 HD
BRANCH  27  33
ATOM     33  C   UNL d   1      26.133  -8.719   2.169  0.00  0.00     0.300 C 
ATOM     34  O   UNL d   1      25.224  -8.296   1.453  0.00  0.00    -0.259 OA
BRANCH  33  35
ATOM     35  O   UNL d   1      26.661  -7.999   3.199  0.00  0.00    -0.322 OA
ATOM     36  C   UNL d   1      27.893  -7.290   2.995  0.00  0.00     0.213 C 
ENDBRANCH  33  35
ENDBRANCH  27  33
BRANCH  28  37
ATOM     37  C   UNL d   1      27.407 -10.683   4.452  0.00  0.00     0.037 C 
ATOM     38  C   UNL d   1      28.919 -10.434   4.546  0.00  0.00     0.010 C 
ENDBRANCH  28  37
ENDBRANCH  21  22
ENDBRANCH   1  21
TORSDOF 12
ENDMDL
MODEL 8
REMARK VINA RESULT:    -7.641      2.999      8.294
REMARK INTER + INTRA:         -16.296
REMARK INTER:                 -11.221
REMARK INTRA:                  -5.075
REMARK CONF_INDEPENDENT:        3.580
REMARK UNBOUND:                -5.075
REMARK  12 active torsions:
REMARK  status: ('A' for Active; 'I' for Inactive)
REMARK    1  A    between atoms: C_2  and  C_3 
REMARK    2  A    between atoms: C_4  and  C_5 
REMARK    3  A    between atoms: C_5  and  O_7 
REMARK    4  A    between atoms: C_12  and  C_13 
REMARK    5  A    between atoms: N_14  and  C_13 
REMARK    6  A    between atoms: N_14  and  C_26 
REMARK    7  A    between atoms: N_14  and  C_15 
REMARK    8  A    between atoms: C_15  and  C_16 
REMARK    9  A    between atoms: C_16  and  O_17 
REMARK   10  A    between atoms: C_16  and  C_18 
REMARK   11  A    between atoms: C_18  and  O_19 
REMARK   12  A    between atoms: O_19  and  C_20 
ROOT
ATOM      1  N   UNL d   1      30.170 -15.246   0.892  0.00  0.00    -0.058 N 
ATOM      2  H   UNL d   1      29.820 -16.169   1.198  0.00  0.00     0.281 HD
ENDROOT
BRANCH   1   3
ATOM      3  C   UNL d   1      28.910 -14.320   0.796  0.00  0.00     0.188 C 
ATOM      4  C   UNL d   1      27.934 -14.549   1.940  0.00  0.00     0.033 C 
ATOM      5  C   UNL d   1      26.904 -13.393   2.030  0.00  0.00     0.002 C 
ATOM      6  C   UNL d   1      27.531 -12.028   2.248  0.00  0.00     0.000 C 
ATOM      7  C   UNL d   1      28.432 -11.743   1.092  0.00  0.00     0.002 C 
ATOM      8  C   UNL d   1      29.351 -12.904   0.895  0.00  0.00     0.033 C 
ENDBRANCH   1   3
BRANCH   1   9
ATOM      9  C   UNL d   1      30.772 -15.532  -0.486  0.00  0.00     0.269 C 
BRANCH   9  10
ATOM     10  C   UNL d   1      30.466 -16.970  -0.921  0.00  0.00     0.168 C 
BRANCH  10  11
ATOM     11  O   UNL d   1      30.923 -17.840   0.125  0.00  0.00    -0.392 OA
ATOM     12  H   UNL d   1      30.151 -18.197   0.604  0.00  0.00     0.210 HD
ENDBRANCH  10  11
BRANCH  10  13
ATOM     13  C   UNL d   1      29.011 -17.142  -1.309  0.00  0.00     0.209 C 
BRANCH  13  14
ATOM     14  O   UNL d   1      28.277 -17.215  -0.092  0.00  0.00    -0.349 OA
BRANCH  14  15
ATOM     15  C   UNL d   1      26.922 -17.136  -0.223  0.00  0.00     0.068 A 
ATOM     16  C   UNL d   1      26.199 -18.093   0.485  0.00  0.00     0.037 A 
ATOM     17  C   UNL d   1      24.821 -18.198   0.309  0.00  0.00     0.003 A 
ATOM     18  C   UNL d   1      24.156 -17.295  -0.520  0.00  0.00     0.000 A 
ATOM     19  C   UNL d   1      24.876 -16.322  -1.211  0.00  0.00     0.003 A 
ATOM     20  C   UNL d   1      26.260 -16.250  -1.074  0.00  0.00     0.037 A 
ENDBRANCH  14  15
ENDBRANCH  13  14
ENDBRANCH  10  13
ENDBRANCH   9  10
ENDBRANCH   1   9
BRANCH   1  21
ATOM     21  C   UNL d   1      31.296 -14.882   1.934  0.00  0.00     0.313 C 
BRANCH  21  22
ATOM     22  C   UNL d   1      30.902 -14.070   3.219  0.00  0.00     0.134 C 
ATOM     23  N   UNL d   1      31.281 -12.838   3.472  0.00  0.00    -0.225 NA
ATOM     24  C   UNL d   1      30.317 -12.070   4.122  0.00  0.00     0.116 C 
ATOM     25  S   UNL d   1      30.238 -10.320   4.122  0.00  0.00    -0.063 SA
ATOM     26  C   UNL d   1      29.201 -12.585   4.727  0.00  0.00     0.076 C 
ATOM     27  C   UNL d   1      28.645 -10.275   4.846  0.00  0.00     0.089 C 
ATOM     28  C   UNL d   1      28.421 -11.554   5.358  0.00  0.00    -0.017 C 
ATOM     29  C   UNL d   1      29.201 -14.027   4.893  0.00  0.00     0.260 C 
ATOM     30  N   UNL d   1      29.926 -14.702   3.952  0.00  0.00    -0.309 N 
ATOM     31  O   UNL d   1      28.680 -14.636   5.829  0.00  0.00    -0.267 OA
ATOM     32  H   UNL d   1      30.038 -15.687   4.159  0.00  0.00     0.170 HD
BRANCH  27  33
ATOM     33  C   UNL d   1      27.960  -8.987   5.104  0.00  0.00     0.300 C 
ATOM     34  O   UNL d   1      28.162  -8.222   6.050  0.00  0.00    -0.259 OA
BRANCH  33  35
ATOM     35  O   UNL d   1      27.028  -8.742   4.140  0.00  0.00    -0.322 OA
ATOM     36  C   UNL d   1      27.397  -8.885   2.760  0.00  0.00     0.213 C 
ENDBRANCH  33  35
ENDBRANCH  27  33
BRANCH  28  37
ATOM     37  C   UNL d   1      27.772 -11.858   6.656  0.00  0.00     0.037 C 
ATOM     38  C   UNL d   1      28.757 -11.326   7.706  0.00  0.00     0.010 C 
ENDBRANCH  28  37
ENDBRANCH  21  22
ENDBRANCH   1  21
TORSDOF 12
ENDMDL
MODEL 9
REMARK VINA RESULT:    -7.037      5.193      8.524
REMARK INTER + INTRA:         -16.709
REMARK INTER:                 -10.617
REMARK INTRA:                  -6.092
REMARK CONF_INDEPENDENT:        3.580
REMARK UNBOUND:                -6.092
REMARK  12 active torsions:
REMARK  status: ('A' for Active; 'I' for Inactive)
REMARK    1  A    between atoms: C_2  and  C_3 
REMARK    2  A    between atoms: C_4  and  C_5 
REMARK    3  A    between atoms: C_5  and  O_7 
REMARK    4  A    between atoms: C_12  and  C_13 
REMARK    5  A    between atoms: N_14  and  C_13 
REMARK    6  A    between atoms: N_14  and  C_26 
REMARK    7  A    between atoms: N_14  and  C_15 
REMARK    8  A    between atoms: C_15  and  C_16 
REMARK    9  A    between atoms: C_16  and  O_17 
REMARK   10  A    between atoms: C_16  and  C_18 
REMARK   11  A    between atoms: C_18  and  O_19 
REMARK   12  A    between atoms: O_19  and  C_20 
ROOT
ATOM      1  N   UNL d   1      27.488 -16.670  -0.469  0.00  0.00    -0.058 N 
ATOM      2  H   UNL d   1      27.604 -15.936  -1.187  0.00  0.00     0.281 HD
ENDROOT
BRANCH   1   3
ATOM      3  C   UNL d   1      26.146 -17.401  -0.817  0.00  0.00     0.188 C 
ATOM      4  C   UNL d   1      25.588 -18.179   0.367  0.00  0.00     0.033 C 
ATOM      5  C   UNL d   1      24.110 -18.576   0.120  0.00  0.00     0.002 C 
ATOM      6  C   UNL d   1      23.186 -17.394  -0.110  0.00  0.00     0.000 C 
ATOM      7  C   UNL d   1      23.666 -16.662  -1.320  0.00  0.00     0.002 C 
ATOM      8  C   UNL d   1      25.125 -16.382  -1.171  0.00  0.00     0.033 C 
ENDBRANCH   1   3
BRANCH   1   9
ATOM      9  C   UNL d   1      27.382 -15.878   0.836  0.00  0.00     0.269 C 
BRANCH   9  10
ATOM     10  C   UNL d   1      28.025 -14.496   0.684  0.00  0.00     0.168 C 
BRANCH  10  11
ATOM     11  O   UNL d   1      29.420 -14.699   0.414  0.00  0.00    -0.392 OA
ATOM     12  H   UNL d   1      29.644 -14.283  -0.440  0.00  0.00     0.210 HD
ENDBRANCH  10  11
BRANCH  10  13
ATOM     13  C   UNL d   1      27.292 -13.644  -0.334  0.00  0.00     0.209 C 
BRANCH  13  14
ATOM     14  O   UNL d   1      27.934 -13.872  -1.584  0.00  0.00    -0.349 OA
BRANCH  14  15
ATOM     15  C   UNL d   1      27.098 -13.995  -2.654  0.00  0.00     0.068 A 
ATOM     16  C   UNL d   1      26.187 -12.953  -2.820  0.00  0.00     0.037 A 
ATOM     17  C   UNL d   1      25.192 -13.044  -3.790  0.00  0.00     0.003 A 
ATOM     18  C   UNL d   1      25.152 -14.146  -4.643  0.00  0.00     0.000 A 
ATOM     19  C   UNL d   1      26.076 -15.178  -4.493  0.00  0.00     0.003 A 
ATOM     20  C   UNL d   1      27.041 -15.110  -3.489  0.00  0.00     0.037 A 
ENDBRANCH  14  15
ENDBRANCH  13  14
ENDBRANCH  10  13
ENDBRANCH   9  10
ENDBRANCH   1   9
BRANCH   1  21
ATOM     21  C   UNL d   1      28.831 -17.493  -0.521  0.00  0.00     0.313 C 
BRANCH  21  22
ATOM     22  C   UNL d   1      29.805 -17.273  -1.734  0.00  0.00     0.134 C 
ATOM     23  N   UNL d   1      30.524 -18.218  -2.298  0.00  0.00    -0.225 NA
ATOM     24  C   UNL d   1      30.663 -18.078  -3.678  0.00  0.00     0.116 C 
ATOM     25  S   UNL d   1      31.048 -19.367  -4.799  0.00  0.00    -0.063 SA
ATOM     26  C   UNL d   1      30.364 -16.934  -4.369  0.00  0.00     0.076 C 
ATOM     27  C   UNL d   1      30.705 -18.396  -6.215  0.00  0.00     0.089 C 
ATOM     28  C   UNL d   1      30.660 -17.074  -5.771  0.00  0.00    -0.017 C 
ATOM     29  C   UNL d   1      30.138 -15.759  -3.548  0.00  0.00     0.260 C 
ATOM     30  N   UNL d   1      29.658 -16.029  -2.298  0.00  0.00    -0.309 N 
ATOM     31  O   UNL d   1      30.418 -14.602  -3.868  0.00  0.00    -0.267 OA
ATOM     32  H   UNL d   1      29.641 -15.221  -1.687  0.00  0.00     0.170 HD
BRANCH  27  33
ATOM     33  C   UNL d   1      30.828 -18.964  -7.578  0.00  0.00     0.300 C 
ATOM     34  O   UNL d   1      31.162 -18.361  -8.599  0.00  0.00    -0.259 OA
BRANCH  33  35
ATOM     35  O   UNL d   1      30.496 -20.286  -7.573  0.00  0.00    -0.322 OA
ATOM     36  C   UNL d   1      31.543 -21.269  -7.599  0.00  0.00     0.213 C 
ENDBRANCH  33  35
ENDBRANCH  27  33
BRANCH  28  37
ATOM     37  C   UNL d   1      31.222 -15.906  -6.490  0.00  0.00     0.037 C 
ATOM     38  C   UNL d   1      29.992 -15.081  -6.894  0.00  0.00     0.010 C 
ENDBRANCH  28  37
ENDBRANCH  21  22
ENDBRANCH   1  21
TORSDOF 12
ENDMDL
