MODEL 1
REMARK VINA RESULT:   -29.851      0.000      0.000
REMARK INTER + INTRA:         -34.212
REMARK INTER:                 -31.939
REMARK INTRA:                  -2.272
REMARK CONF_INDEPENDENT:        2.088
REMARK UNBOUND:                -2.272
REMARK  7 active torsions:
REMARK  status: ('A' for Active; 'I' for Inactive)
REMARK    1  A    between atoms: N_1  and  C_2 
REMARK    2  A    between atoms: C_6  and  N_7 
REMARK    3  A    between atoms: C_10  and  C_11 
REMARK       I    between atoms: C_11  and  N_13 
REMARK    4  A    between atoms: N_13  and  N_14 
REMARK    5  A    between atoms: C_15  and  C_16 
REMARK    6  A    between atoms: C_25  and  C_26 
REMARK    7  A    between atoms: C_26  and  N_27 
ROOT
ATOM      1  N   UNL d   1      23.418 -17.809  -0.300  0.00  0.00    -0.215 N 
ATOM      2  N   UNL d   1      24.024 -18.573   0.638  0.00  0.00     0.012 NA
ATOM      3  N   UNL d   1      25.340 -18.503   0.485  0.00  0.00    -0.152 NA
ATOM      4  C   UNL d   1      25.642 -17.566  -0.473  0.00  0.00     0.170 C 
ATOM      5  C   UNL d   1      24.420 -17.026  -0.919  0.00  0.00     0.096 C 
ENDROOT
BRANCH   4   6
ATOM      6  C   UNL d   1      27.066 -17.256  -0.879  0.00  0.00     0.293 C 
ATOM      7  O   UNL d   1      27.327 -16.930  -2.047  0.00  0.00    -0.264 OA
ATOM      8  N   UNL d   1      28.068 -17.328   0.115  0.00  0.00    -0.242 N 
ATOM      9  H   UNL d   1      27.897 -17.582   1.060  0.00  0.00     0.192 HD
BRANCH   8  10
ATOM     10  N   UNL d   1      29.394 -17.053  -0.122  0.00  0.00    -0.183 NA
ATOM     11  C   UNL d   1      30.065 -17.908  -0.843  0.00  0.00     0.150 C 
BRANCH  11  12
ATOM     12  C   UNL d   1      31.500 -17.685  -1.141  0.00  0.00    -0.014 A 
ATOM     13  C   UNL d   1      31.975 -18.151  -2.379  0.00  0.00     0.016 A 
ATOM     14  C   UNL d   1      33.331 -18.066  -2.699  0.00  0.00     0.040 A 
ATOM     15  C   UNL d   1      34.179 -17.522  -1.760  0.00  0.00     0.105 A 
ATOM     16  C   UNL d   1      33.716 -17.041  -0.556  0.00  0.00     0.105 A 
ATOM     17  O   UNL d   1      35.527 -17.406  -1.891  0.00  0.00    -0.323 OA
ATOM     18  C   UNL d   1      32.372 -17.082  -0.218  0.00  0.00     0.052 A 
ATOM     19  O   UNL d   1      34.732 -16.574   0.224  0.00  0.00    -0.323 OA
ATOM     20  C   UNL d   1      35.885 -16.896  -0.592  0.00  0.00     0.352 A 
ENDBRANCH  11  12
ENDBRANCH   8  10
ENDBRANCH   4   6
BRANCH   5  21
ATOM     21  C   UNL d   1      24.323 -15.893  -1.855  0.00  0.00     0.296 C 
BRANCH  21  22
ATOM     22  N   UNL d   1      25.457 -15.201  -2.531  0.00  0.00    -0.066 N 
ATOM     23  C   UNL d   1      25.550 -15.728  -3.908  0.00  0.00     0.235 C 
ATOM     24  C   UNL d   1      26.452 -14.943  -4.839  0.00  0.00     0.028 C 
ATOM     25  C   UNL d   1      26.517 -13.437  -4.655  0.00  0.00     0.003 C 
ATOM     26  C   UNL d   1      26.637 -13.101  -3.189  0.00  0.00     0.028 C 
ATOM     27  C   UNL d   1      25.517 -13.702  -2.345  0.00  0.00     0.235 C 
ATOM     28  H   UNL d   1      26.305 -15.548  -2.068  0.00  0.00     0.280 HD
ENDBRANCH  21  22
ENDBRANCH   5  21
BRANCH   1  29
ATOM     29  C   UNL d   1      21.996 -17.899  -0.505  0.00  0.00     0.225 A 
ATOM     30  N   UNL d   1      21.385 -16.829  -1.026  0.00  0.00    -0.081 NA
ATOM     31  O   UNL d   1      20.079 -17.251  -1.270  0.00  0.00    -0.103 OA
ATOM     32  N   UNL d   1      19.902 -18.577  -0.895  0.00  0.00    -0.083 NA
ATOM     33  C   UNL d   1      21.079 -18.993  -0.432  0.00  0.00     0.201 A 
BRANCH  33  34
ATOM     34  N   UNL d   1      21.313 -20.302  -0.130  0.00  0.00    -0.379 N 
ATOM     35  H   UNL d   1      22.045 -20.522   0.552  0.00  0.00     0.158 HD
ATOM     36  H   UNL d   1      20.606 -21.029  -0.155  0.00  0.00     0.158 HD
ENDBRANCH  33  34
ENDBRANCH   1  29
TORSDOF 7
ENDMDL
MODEL 2
REMARK VINA RESULT:   -29.690      2.176      2.469
REMARK INTER + INTRA:         -34.207
REMARK INTER:                 -31.778
REMARK INTRA:                  -2.429
REMARK CONF_INDEPENDENT:        2.088
REMARK UNBOUND:                -2.429
REMARK  7 active torsions:
REMARK  status: ('A' for Active; 'I' for Inactive)
REMARK    1  A    between atoms: N_1  and  C_2 
REMARK    2  A    between atoms: C_6  and  N_7 
REMARK    3  A    between atoms: C_10  and  C_11 
REMARK       I    between atoms: C_11  and  N_13 
REMARK    4  A    between atoms: N_13  and  N_14 
REMARK    5  A    between atoms: C_15  and  C_16 
REMARK    6  A    between atoms: C_25  and  C_26 
REMARK    7  A    between atoms: C_26  and  N_27 
ROOT
ATOM      1  N   UNL d   1      23.387 -17.766  -0.188  0.00  0.00    -0.215 N 
ATOM      2  N   UNL d   1      23.980 -18.557   0.735  0.00  0.00     0.012 NA
ATOM      3  N   UNL d   1      25.298 -18.458   0.625  0.00  0.00    -0.152 NA
ATOM      4  C   UNL d   1      25.610 -17.476  -0.284  0.00  0.00     0.170 C 
ATOM      5  C   UNL d   1      24.392 -16.940  -0.743  0.00  0.00     0.096 C 
ENDROOT
BRANCH   4   6
ATOM      6  C   UNL d   1      27.039 -17.123  -0.633  0.00  0.00     0.293 C 
ATOM      7  O   UNL d   1      27.411 -17.115  -1.817  0.00  0.00    -0.264 OA
ATOM      8  N   UNL d   1      27.915 -16.785   0.423  0.00  0.00    -0.242 N 
ATOM      9  H   UNL d   1      27.653 -16.777   1.381  0.00  0.00     0.192 HD
BRANCH   8  10
ATOM     10  N   UNL d   1      29.230 -16.430   0.236  0.00  0.00    -0.183 NA
ATOM     11  C   UNL d   1      29.596 -15.248   0.646  0.00  0.00     0.150 C 
BRANCH  11  12
ATOM     12  C   UNL d   1      30.996 -14.789   0.479  0.00  0.00    -0.014 A 
ATOM     13  C   UNL d   1      31.973 -15.419   1.269  0.00  0.00     0.016 A 
ATOM     14  C   UNL d   1      33.299 -14.984   1.242  0.00  0.00     0.040 A 
ATOM     15  C   UNL d   1      33.608 -13.917   0.427  0.00  0.00     0.105 A 
ATOM     16  C   UNL d   1      32.660 -13.312  -0.367  0.00  0.00     0.105 A 
ATOM     17  O   UNL d   1      34.834 -13.340   0.317  0.00  0.00    -0.323 OA
ATOM     18  C   UNL d   1      31.341 -13.738  -0.388  0.00  0.00     0.052 A 
ATOM     19  O   UNL d   1      33.183 -12.265  -1.068  0.00  0.00    -0.323 OA
ATOM     20  C   UNL d   1      34.539 -12.233  -0.556  0.00  0.00     0.352 A 
ENDBRANCH  11  12
ENDBRANCH   8  10
ENDBRANCH   4   6
BRANCH   5  21
ATOM     21  C   UNL d   1      24.300 -15.770  -1.634  0.00  0.00     0.296 C 
BRANCH  21  22
ATOM     22  N   UNL d   1      25.440 -15.019  -2.233  0.00  0.00    -0.066 N 
ATOM     23  C   UNL d   1      24.947 -14.348  -3.454  0.00  0.00     0.235 C 
ATOM     24  C   UNL d   1      25.881 -13.307  -4.039  0.00  0.00     0.028 C 
ATOM     25  C   UNL d   1      26.717 -12.487  -3.072  0.00  0.00     0.003 C 
ATOM     26  C   UNL d   1      27.315 -13.383  -2.017  0.00  0.00     0.028 C 
ATOM     27  C   UNL d   1      26.269 -14.203  -1.267  0.00  0.00     0.235 C 
ATOM     28  H   UNL d   1      26.088 -15.735  -2.581  0.00  0.00     0.280 HD
ENDBRANCH  21  22
ENDBRANCH   5  21
BRANCH   1  29
ATOM     29  C   UNL d   1      21.974 -17.872  -0.439  0.00  0.00     0.225 A 
ATOM     30  N   UNL d   1      21.368 -16.811  -0.985  0.00  0.00    -0.081 NA
ATOM     31  O   UNL d   1      20.076 -17.249  -1.270  0.00  0.00    -0.103 OA
ATOM     32  N   UNL d   1      19.902 -18.576  -0.895  0.00  0.00    -0.083 NA
ATOM     33  C   UNL d   1      21.067 -18.976  -0.392  0.00  0.00     0.201 A 
BRANCH  33  34
ATOM     34  N   UNL d   1      21.305 -20.281  -0.076  0.00  0.00    -0.379 N 
ATOM     35  H   UNL d   1      22.224 -20.531   0.302  0.00  0.00     0.158 HD
ATOM     36  H   UNL d   1      20.592 -20.934   0.233  0.00  0.00     0.158 HD
ENDBRANCH  33  34
ENDBRANCH   1  29
TORSDOF 7
ENDMDL
