MODEL 1
REMARK VINA RESULT:    -9.037      0.000      0.000
REMARK INTER + INTRA:         -11.398
REMARK INTER:                 -10.529
REMARK INTRA:                  -0.870
REMARK CONF_INDEPENDENT:        1.492
REMARK UNBOUND:                -0.870
REMARK  5 active torsions:
REMARK  status: ('A' for Active; 'I' for Inactive)
REMARK    1  A    between atoms: C_4  and  C_5 
REMARK    2  A    between atoms: C_12  and  C_13 
REMARK       I    between atoms: C_13  and  N_15 
REMARK    3  A    between atoms: N_15  and  C_16 
REMARK    4  A    between atoms: C_19  and  C_20 
REMARK    5  A    between atoms: C_20  and  N_21 
REMARK       I    between atoms: N_21  and  C_22 
REMARK       I    between atoms: C_22  and  N_23 
ROOT
ATOM      1  C   UNL d   1      25.104 -15.687  -1.233  0.00  0.00     0.265 C 
ATOM      2  O   UNL d   1      26.130 -15.312  -0.653  0.00  0.00    -0.267 OA
ATOM      3  N   UNL d   1      24.607 -15.000  -2.344  0.00  0.00    -0.322 N 
ATOM      4  H   UNL d   1      23.691 -15.198  -2.701  0.00  0.00     0.169 HD
ENDROOT
BRANCH   3   5
ATOM      5  C   UNL d   1      25.251 -13.925  -2.984  0.00  0.00     0.035 A 
ATOM      6  C   UNL d   1      25.228 -13.825  -4.380  0.00  0.00     0.030 A 
ATOM      7  C   UNL d   1      25.902 -12.773  -5.020  0.00  0.00     0.011 A 
ATOM      8  C   UNL d   1      26.587 -11.799  -4.272  0.00  0.00    -0.040 A 
ATOM      9  C   UNL d   1      26.651 -11.967  -2.883  0.00  0.00     0.011 A 
ATOM     10  C   UNL d   1      25.983 -13.008  -2.248  0.00  0.00     0.030 A 
BRANCH   8  11
ATOM     11  C   UNL d   1      27.163 -10.592  -4.981  0.00  0.00     0.162 C 
BRANCH  11  12
ATOM     12  N   UNL d   1      27.102  -9.348  -4.239  0.00  0.00    -0.339 N 
ATOM     13  C   UNL d   1      26.028  -8.726  -3.727  0.00  0.00     0.314 C 
ATOM     14  N   UNL d   1      24.829  -9.294  -3.918  0.00  0.00    -0.352 N 
ATOM     15  O   UNL d   1      26.146  -7.668  -3.110  0.00  0.00    -0.248 OA
ATOM     16  H   UNL d   1      24.701 -10.177  -4.381  0.00  0.00     0.160 HD
ATOM     17  H   UNL d   1      24.029  -8.826  -3.519  0.00  0.00     0.160 HD
ATOM     18  H   UNL d   1      27.949  -8.853  -4.008  0.00  0.00     0.164 HD
ENDBRANCH  11  12
ENDBRANCH   8  11
ENDBRANCH   3   5
BRANCH   1  19
ATOM     19  C   UNL d   1      24.328 -16.838  -0.760  0.00  0.00     0.099 A 
ATOM     20  S   UNL d   1      22.594 -16.820  -0.892  0.00  0.00    -0.062 SA
ATOM     21  C   UNL d   1      22.499 -18.366  -0.152  0.00  0.00     0.109 A 
ATOM     22  N   UNL d   1      23.663 -18.881   0.182  0.00  0.00    -0.244 NA
ATOM     23  C   UNL d   1      24.704 -18.040  -0.179  0.00  0.00     0.054 A 
ATOM     24  C   UNL d   1      26.077 -18.520   0.109  0.00  0.00     0.072 C 
BRANCH  21  25
ATOM     25  C   UNL d   1      21.219 -19.058   0.076  0.00  0.00    -0.000 A 
ATOM     26  C   UNL d   1      20.368 -19.330  -1.010  0.00  0.00     0.014 A 
ATOM     27  C   UNL d   1      19.068 -19.806  -0.804  0.00  0.00     0.001 A 
ATOM     28  C   UNL d   1      18.622 -20.080   0.487  0.00  0.00     0.000 A 
ATOM     29  C   UNL d   1      19.461 -19.840   1.574  0.00  0.00     0.001 A 
ATOM     30  C   UNL d   1      20.748 -19.325   1.370  0.00  0.00     0.014 A 
ENDBRANCH  21  25
ENDBRANCH   1  19
TORSDOF 5
ENDMDL
MODEL 2
REMARK VINA RESULT:    -8.807      2.236      2.825
REMARK INTER + INTRA:         -11.206
REMARK INTER:                 -10.298
REMARK INTRA:                  -0.908
REMARK CONF_INDEPENDENT:        1.492
REMARK UNBOUND:                -0.908
REMARK  5 active torsions:
REMARK  status: ('A' for Active; 'I' for Inactive)
REMARK    1  A    between atoms: C_4  and  C_5 
REMARK    2  A    between atoms: C_12  and  C_13 
REMARK       I    between atoms: C_13  and  N_15 
REMARK    3  A    between atoms: N_15  and  C_16 
REMARK    4  A    between atoms: C_19  and  C_20 
REMARK    5  A    between atoms: C_20  and  N_21 
REMARK       I    between atoms: N_21  and  C_22 
REMARK       I    between atoms: C_22  and  N_23 
ROOT
ATOM      1  C   UNL d   1      25.089 -15.894  -1.298  0.00  0.00     0.265 C 
ATOM      2  O   UNL d   1      25.947 -15.304  -0.632  0.00  0.00    -0.267 OA
ATOM      3  N   UNL d   1      24.836 -15.544  -2.628  0.00  0.00    -0.322 N 
ATOM      4  H   UNL d   1      24.030 -15.900  -3.107  0.00  0.00     0.169 HD
ENDROOT
BRANCH   3   5
ATOM      5  C   UNL d   1      25.577 -14.608  -3.373  0.00  0.00     0.035 A 
ATOM      6  C   UNL d   1      25.415 -13.238  -3.138  0.00  0.00     0.030 A 
ATOM      7  C   UNL d   1      26.127 -12.305  -3.908  0.00  0.00     0.011 A 
ATOM      8  C   UNL d   1      27.025 -12.731  -4.904  0.00  0.00    -0.040 A 
ATOM      9  C   UNL d   1      27.111 -14.105  -5.161  0.00  0.00     0.011 A 
ATOM     10  C   UNL d   1      26.407 -15.030  -4.399  0.00  0.00     0.030 A 
BRANCH   8  11
ATOM     11  C   UNL d   1      27.897 -11.708  -5.600  0.00  0.00     0.162 C 
BRANCH  11  12
ATOM     12  N   UNL d   1      27.671 -11.567  -7.025  0.00  0.00    -0.339 N 
ATOM     13  C   UNL d   1      28.145 -12.320  -8.030  0.00  0.00     0.314 C 
ATOM     14  N   UNL d   1      28.949 -13.345  -7.714  0.00  0.00    -0.352 N 
ATOM     15  O   UNL d   1      27.851 -12.071  -9.198  0.00  0.00    -0.248 OA
ATOM     16  H   UNL d   1      29.176 -13.601  -6.770  0.00  0.00     0.160 HD
ATOM     17  H   UNL d   1      29.292 -13.913  -8.475  0.00  0.00     0.160 HD
ATOM     18  H   UNL d   1      27.053 -10.851  -7.373  0.00  0.00     0.164 HD
ENDBRANCH  11  12
ENDBRANCH   8  11
ENDBRANCH   3   5
BRANCH   1  19
ATOM     19  C   UNL d   1      24.259 -16.956  -0.720  0.00  0.00     0.099 A 
ATOM     20  S   UNL d   1      22.532 -16.900  -0.914  0.00  0.00    -0.062 SA
ATOM     21  C   UNL d   1      22.360 -18.343   0.001  0.00  0.00     0.109 A 
ATOM     22  N   UNL d   1      23.495 -18.851   0.433  0.00  0.00    -0.244 NA
ATOM     23  C   UNL d   1      24.575 -18.091   0.012  0.00  0.00     0.054 A 
ATOM     24  C   UNL d   1      25.921 -18.575   0.402  0.00  0.00     0.072 C 
BRANCH  21  25
ATOM     25  C   UNL d   1      21.051 -18.963   0.264  0.00  0.00    -0.000 A 
ATOM     26  C   UNL d   1      20.700 -19.325   1.577  0.00  0.00     0.014 A 
ATOM     27  C   UNL d   1      19.554 -20.089   1.831  0.00  0.00     0.001 A 
ATOM     28  C   UNL d   1      18.708 -20.446   0.785  0.00  0.00     0.000 A 
ATOM     29  C   UNL d   1      19.027 -20.075  -0.520  0.00  0.00     0.001 A 
ATOM     30  C   UNL d   1      20.195 -19.345  -0.780  0.00  0.00     0.014 A 
ENDBRANCH  21  25
ENDBRANCH   1  19
TORSDOF 5
ENDMDL
MODEL 3
REMARK VINA RESULT:    -8.151      4.138     10.407
REMARK INTER + INTRA:         -10.367
REMARK INTER:                  -9.642
REMARK INTRA:                  -0.724
REMARK CONF_INDEPENDENT:        1.492
REMARK UNBOUND:                -0.724
REMARK  5 active torsions:
REMARK  status: ('A' for Active; 'I' for Inactive)
REMARK    1  A    between atoms: C_4  and  C_5 
REMARK    2  A    between atoms: C_12  and  C_13 
REMARK       I    between atoms: C_13  and  N_15 
REMARK    3  A    between atoms: N_15  and  C_16 
REMARK    4  A    between atoms: C_19  and  C_20 
REMARK    5  A    between atoms: C_20  and  N_21 
REMARK       I    between atoms: N_21  and  C_22 
REMARK       I    between atoms: C_22  and  N_23 
ROOT
ATOM      1  C   UNL d   1      26.118 -14.749  -4.173  0.00  0.00     0.265 C 
ATOM      2  O   UNL d   1      24.977 -14.783  -4.645  0.00  0.00    -0.267 OA
ATOM      3  N   UNL d   1      26.397 -15.291  -2.915  0.00  0.00    -0.322 N 
ATOM      4  H   UNL d   1      27.274 -15.109  -2.461  0.00  0.00     0.169 HD
ENDROOT
BRANCH   3   5
ATOM      5  C   UNL d   1      25.487 -16.019  -2.128  0.00  0.00     0.035 A 
ATOM      6  C   UNL d   1      24.158 -15.595  -2.018  0.00  0.00     0.030 A 
ATOM      7  C   UNL d   1      23.260 -16.301  -1.202  0.00  0.00     0.011 A 
ATOM      8  C   UNL d   1      23.674 -17.451  -0.506  0.00  0.00    -0.040 A 
ATOM      9  C   UNL d   1      25.026 -17.809  -0.581  0.00  0.00     0.011 A 
ATOM     10  C   UNL d   1      25.916 -17.111  -1.390  0.00  0.00     0.030 A 
BRANCH   8  11
ATOM     11  C   UNL d   1      22.644 -18.281   0.230  0.00  0.00     0.162 C 
BRANCH  11  12
ATOM     12  N   UNL d   1      21.464 -18.629  -0.537  0.00  0.00    -0.339 N 
ATOM     13  C   UNL d   1      20.508 -19.525  -0.248  0.00  0.00     0.314 C 
ATOM     14  N   UNL d   1      20.630 -20.221   0.891  0.00  0.00    -0.352 N 
ATOM     15  O   UNL d   1      19.557 -19.700  -1.008  0.00  0.00    -0.248 OA
ATOM     16  H   UNL d   1      21.372 -20.075   1.553  0.00  0.00     0.160 HD
ATOM     17  H   UNL d   1      19.900 -20.885   1.106  0.00  0.00     0.160 HD
ATOM     18  H   UNL d   1      21.254 -18.142  -1.394  0.00  0.00     0.164 HD
ENDBRANCH  11  12
ENDBRANCH   8  11
ENDBRANCH   3   5
BRANCH   1  19
ATOM     19  C   UNL d   1      27.226 -14.096  -4.877  0.00  0.00     0.099 A 
ATOM     20  S   UNL d   1      28.314 -15.050  -5.842  0.00  0.00    -0.062 SA
ATOM     21  C   UNL d   1      29.230 -13.652  -6.234  0.00  0.00     0.109 A 
ATOM     22  N   UNL d   1      28.779 -12.539  -5.694  0.00  0.00    -0.244 NA
ATOM     23  C   UNL d   1      27.635 -12.772  -4.947  0.00  0.00     0.054 A 
ATOM     24  C   UNL d   1      27.003 -11.592  -4.312  0.00  0.00     0.072 C 
BRANCH  21  25
ATOM     25  C   UNL d   1      30.412 -13.698  -7.110  0.00  0.00    -0.000 A 
ATOM     26  C   UNL d   1      30.633 -12.667  -8.041  0.00  0.00     0.014 A 
ATOM     27  C   UNL d   1      31.632 -12.779  -9.015  0.00  0.00     0.001 A 
ATOM     28  C   UNL d   1      32.467 -13.893  -9.034  0.00  0.00     0.000 A 
ATOM     29  C   UNL d   1      32.277 -14.914  -8.103  0.00  0.00     0.001 A 
ATOM     30  C   UNL d   1      31.252 -14.821  -7.153  0.00  0.00     0.014 A 
ENDBRANCH  21  25
ENDBRANCH   1  19
TORSDOF 5
ENDMDL
MODEL 4
REMARK VINA RESULT:    -7.815      1.413      1.914
REMARK INTER + INTRA:         -10.227
REMARK INTER:                  -9.306
REMARK INTRA:                  -0.921
REMARK CONF_INDEPENDENT:        1.492
REMARK UNBOUND:                -0.921
REMARK  5 active torsions:
REMARK  status: ('A' for Active; 'I' for Inactive)
REMARK    1  A    between atoms: C_4  and  C_5 
REMARK    2  A    between atoms: C_12  and  C_13 
REMARK       I    between atoms: C_13  and  N_15 
REMARK    3  A    between atoms: N_15  and  C_16 
REMARK    4  A    between atoms: C_19  and  C_20 
REMARK    5  A    between atoms: C_20  and  N_21 
REMARK       I    between atoms: N_21  and  C_22 
REMARK       I    between atoms: C_22  and  N_23 
ROOT
ATOM      1  C   UNL d   1      25.011 -15.808  -1.286  0.00  0.00     0.265 C 
ATOM      2  O   UNL d   1      25.977 -15.351  -0.665  0.00  0.00    -0.267 OA
ATOM      3  N   UNL d   1      24.623 -15.271  -2.517  0.00  0.00    -0.322 N 
ATOM      4  H   UNL d   1      23.745 -15.523  -2.932  0.00  0.00     0.169 HD
ENDROOT
BRANCH   3   5
ATOM      5  C   UNL d   1      25.326 -14.279  -3.225  0.00  0.00     0.035 A 
ATOM      6  C   UNL d   1      25.900 -14.576  -4.466  0.00  0.00     0.030 A 
ATOM      7  C   UNL d   1      26.633 -13.597  -5.154  0.00  0.00     0.011 A 
ATOM      8  C   UNL d   1      26.781 -12.304  -4.620  0.00  0.00    -0.040 A 
ATOM      9  C   UNL d   1      26.255 -12.059  -3.346  0.00  0.00     0.011 A 
ATOM     10  C   UNL d   1      25.528 -13.029  -2.663  0.00  0.00     0.030 A 
BRANCH   8  11
ATOM     11  C   UNL d   1      27.435 -11.227  -5.460  0.00  0.00     0.162 C 
BRANCH  11  12
ATOM     12  N   UNL d   1      28.299 -10.315  -4.737  0.00  0.00    -0.339 N 
ATOM     13  C   UNL d   1      29.360 -10.596  -3.966  0.00  0.00     0.314 C 
ATOM     14  N   UNL d   1      29.692 -11.884  -3.808  0.00  0.00    -0.352 N 
ATOM     15  O   UNL d   1      30.000  -9.697  -3.421  0.00  0.00    -0.248 OA
ATOM     16  H   UNL d   1      29.217 -12.640  -4.270  0.00  0.00     0.160 HD
ATOM     17  H   UNL d   1      30.500 -12.086  -3.236  0.00  0.00     0.160 HD
ATOM     18  H   UNL d   1      28.162  -9.319  -4.813  0.00  0.00     0.164 HD
ENDBRANCH  11  12
ENDBRANCH   8  11
ENDBRANCH   3   5
BRANCH   1  19
ATOM     19  C   UNL d   1      24.192 -16.898  -0.748  0.00  0.00     0.099 A 
ATOM     20  S   UNL d   1      22.461 -16.828  -0.894  0.00  0.00    -0.062 SA
ATOM     21  C   UNL d   1      22.306 -18.319  -0.058  0.00  0.00     0.109 A 
ATOM     22  N   UNL d   1      23.450 -18.852   0.317  0.00  0.00    -0.244 NA
ATOM     23  C   UNL d   1      24.522 -18.073  -0.088  0.00  0.00     0.054 A 
ATOM     24  C   UNL d   1      25.875 -18.581   0.241  0.00  0.00     0.072 C 
BRANCH  21  25
ATOM     25  C   UNL d   1      21.002 -18.950   0.203  0.00  0.00    -0.000 A 
ATOM     26  C   UNL d   1      20.656 -19.325   1.514  0.00  0.00     0.014 A 
ATOM     27  C   UNL d   1      19.516 -20.098   1.765  0.00  0.00     0.001 A 
ATOM     28  C   UNL d   1      18.670 -20.454   0.717  0.00  0.00     0.000 A 
ATOM     29  C   UNL d   1      18.985 -20.070  -0.585  0.00  0.00     0.001 A 
ATOM     30  C   UNL d   1      20.146 -19.330  -0.842  0.00  0.00     0.014 A 
ENDBRANCH  21  25
ENDBRANCH   1  19
TORSDOF 5
ENDMDL
MODEL 5
REMARK VINA RESULT:    -7.689      1.542      1.780
REMARK INTER + INTRA:          -9.918
REMARK INTER:                  -9.180
REMARK INTRA:                  -0.737
REMARK CONF_INDEPENDENT:        1.492
REMARK UNBOUND:                -0.737
REMARK  5 active torsions:
REMARK  status: ('A' for Active; 'I' for Inactive)
REMARK    1  A    between atoms: C_4  and  C_5 
REMARK    2  A    between atoms: C_12  and  C_13 
REMARK       I    between atoms: C_13  and  N_15 
REMARK    3  A    between atoms: N_15  and  C_16 
REMARK    4  A    between atoms: C_19  and  C_20 
REMARK    5  A    between atoms: C_20  and  N_21 
REMARK       I    between atoms: N_21  and  C_22 
REMARK       I    between atoms: C_22  and  N_23 
ROOT
ATOM      1  C   UNL d   1      24.757 -15.808  -1.463  0.00  0.00     0.265 C 
ATOM      2  O   UNL d   1      24.654 -15.528  -2.662  0.00  0.00    -0.267 OA
ATOM      3  N   UNL d   1      25.593 -15.073  -0.617  0.00  0.00    -0.322 N 
ATOM      4  H   UNL d   1      25.809 -15.405   0.305  0.00  0.00     0.169 HD
ENDROOT
BRANCH   3   5
ATOM      5  C   UNL d   1      26.287 -13.905  -0.981  0.00  0.00     0.035 A 
ATOM      6  C   UNL d   1      26.665 -13.699  -2.313  0.00  0.00     0.030 A 
ATOM      7  C   UNL d   1      27.390 -12.551  -2.668  0.00  0.00     0.011 A 
ATOM      8  C   UNL d   1      27.724 -11.585  -1.702  0.00  0.00    -0.040 A 
ATOM      9  C   UNL d   1      27.393 -11.854  -0.368  0.00  0.00     0.011 A 
ATOM     10  C   UNL d   1      26.674 -12.991  -0.015  0.00  0.00     0.030 A 
BRANCH   8  11
ATOM     11  C   UNL d   1      28.360 -10.285  -2.145  0.00  0.00     0.162 C 
BRANCH  11  12
ATOM     12  N   UNL d   1      27.870  -9.096  -1.476  0.00  0.00    -0.339 N 
ATOM     13  C   UNL d   1      26.666  -8.512  -1.572  0.00  0.00     0.314 C 
ATOM     14  N   UNL d   1      25.768  -9.069  -2.398  0.00  0.00    -0.352 N 
ATOM     15  O   UNL d   1      26.401  -7.499  -0.926  0.00  0.00    -0.248 OA
ATOM     16  H   UNL d   1      25.936  -9.917  -2.909  0.00  0.00     0.160 HD
ATOM     17  H   UNL d   1      24.860  -8.630  -2.455  0.00  0.00     0.160 HD
ATOM     18  H   UNL d   1      28.450  -8.616  -0.806  0.00  0.00     0.164 HD
ENDBRANCH  11  12
ENDBRANCH   8  11
ENDBRANCH   3   5
BRANCH   1  19
ATOM     19  C   UNL d   1      24.052 -16.950  -0.873  0.00  0.00     0.099 A 
ATOM     20  S   UNL d   1      22.314 -16.995  -0.895  0.00  0.00    -0.062 SA
ATOM     21  C   UNL d   1      22.318 -18.493  -0.058  0.00  0.00     0.109 A 
ATOM     22  N   UNL d   1      23.518 -18.950   0.231  0.00  0.00    -0.244 NA
ATOM     23  C   UNL d   1      24.505 -18.102  -0.245  0.00  0.00     0.054 A 
ATOM     24  C   UNL d   1      25.909 -18.519  -0.017  0.00  0.00     0.072 C 
BRANCH  21  25
ATOM     25  C   UNL d   1      21.080 -19.209   0.292  0.00  0.00    -0.000 A 
ATOM     26  C   UNL d   1      20.219 -19.657  -0.725  0.00  0.00     0.014 A 
ATOM     27  C   UNL d   1      18.950 -20.163  -0.423  0.00  0.00     0.001 A 
ATOM     28  C   UNL d   1      18.547 -20.290   0.904  0.00  0.00     0.000 A 
ATOM     29  C   UNL d   1      19.398 -19.874   1.927  0.00  0.00     0.001 A 
ATOM     30  C   UNL d   1      20.653 -19.331   1.623  0.00  0.00     0.014 A 
ENDBRANCH  21  25
ENDBRANCH   1  19
TORSDOF 5
ENDMDL
MODEL 6
REMARK VINA RESULT:    -7.354      4.718      5.691
REMARK INTER + INTRA:          -9.632
REMARK INTER:                  -8.846
REMARK INTRA:                  -0.786
REMARK CONF_INDEPENDENT:        1.492
REMARK UNBOUND:                -0.786
REMARK  5 active torsions:
REMARK  status: ('A' for Active; 'I' for Inactive)
REMARK    1  A    between atoms: C_4  and  C_5 
REMARK    2  A    between atoms: C_12  and  C_13 
REMARK       I    between atoms: C_13  and  N_15 
REMARK    3  A    between atoms: N_15  and  C_16 
REMARK    4  A    between atoms: C_19  and  C_20 
REMARK    5  A    between atoms: C_20  and  N_21 
REMARK       I    between atoms: N_21  and  C_22 
REMARK       I    between atoms: C_22  and  N_23 
ROOT
ATOM      1  C   UNL d   1      26.601 -17.289  -0.085  0.00  0.00     0.265 C 
ATOM      2  O   UNL d   1      27.268 -18.302   0.150  0.00  0.00    -0.267 OA
ATOM      3  N   UNL d   1      27.180 -16.017  -0.051  0.00  0.00    -0.322 N 
ATOM      4  H   UNL d   1      26.608 -15.192  -0.069  0.00  0.00     0.169 HD
ENDROOT
BRANCH   3   5
ATOM      5  C   UNL d   1      28.553 -15.758   0.119  0.00  0.00     0.035 A 
ATOM      6  C   UNL d   1      28.973 -14.748   0.992  0.00  0.00     0.030 A 
ATOM      7  C   UNL d   1      30.340 -14.465   1.133  0.00  0.00     0.011 A 
ATOM      8  C   UNL d   1      31.303 -15.202   0.421  0.00  0.00    -0.040 A 
ATOM      9  C   UNL d   1      30.847 -16.157  -0.497  0.00  0.00     0.011 A 
ATOM     10  C   UNL d   1      29.493 -16.439  -0.637  0.00  0.00     0.030 A 
BRANCH   8  11
ATOM     11  C   UNL d   1      32.771 -14.984   0.718  0.00  0.00     0.162 C 
BRANCH  11  12
ATOM     12  N   UNL d   1      33.158 -13.607   0.957  0.00  0.00    -0.339 N 
ATOM     13  C   UNL d   1      33.212 -12.939   2.120  0.00  0.00     0.314 C 
ATOM     14  N   UNL d   1      32.856 -13.595   3.233  0.00  0.00    -0.352 N 
ATOM     15  O   UNL d   1      33.571 -11.763   2.155  0.00  0.00    -0.248 OA
ATOM     16  H   UNL d   1      32.597 -14.566   3.245  0.00  0.00     0.160 HD
ATOM     17  H   UNL d   1      32.911 -13.088   4.104  0.00  0.00     0.160 HD
ATOM     18  H   UNL d   1      33.478 -13.030   0.195  0.00  0.00     0.164 HD
ENDBRANCH  11  12
ENDBRANCH   8  11
ENDBRANCH   3   5
BRANCH   1  19
ATOM     19  C   UNL d   1      25.162 -17.357  -0.360  0.00  0.00     0.099 A 
ATOM     20  S   UNL d   1      24.187 -18.551   0.445  0.00  0.00    -0.062 SA
ATOM     21  C   UNL d   1      22.791 -18.009  -0.394  0.00  0.00     0.109 A 
ATOM     22  N   UNL d   1      23.008 -17.011  -1.224  0.00  0.00    -0.244 NA
ATOM     23  C   UNL d   1      24.337 -16.618  -1.195  0.00  0.00     0.054 A 
ATOM     24  C   UNL d   1      24.711 -15.473  -2.060  0.00  0.00     0.072 C 
BRANCH  21  25
ATOM     25  C   UNL d   1      21.461 -18.607  -0.189  0.00  0.00    -0.000 A 
ATOM     26  C   UNL d   1      21.041 -18.951   1.109  0.00  0.00     0.014 A 
ATOM     27  C   UNL d   1      19.873 -19.694   1.314  0.00  0.00     0.001 A 
ATOM     28  C   UNL d   1      19.072 -20.049   0.232  0.00  0.00     0.000 A 
ATOM     29  C   UNL d   1      19.460 -19.695  -1.059  0.00  0.00     0.001 A 
ATOM     30  C   UNL d   1      20.650 -18.986  -1.269  0.00  0.00     0.014 A 
ENDBRANCH  21  25
ENDBRANCH   1  19
TORSDOF 5
ENDMDL
MODEL 7
REMARK VINA RESULT:    -7.306      6.865      9.882
REMARK INTER + INTRA:          -9.455
REMARK INTER:                  -8.798
REMARK INTRA:                  -0.657
REMARK CONF_INDEPENDENT:        1.492
REMARK UNBOUND:                -0.657
REMARK  5 active torsions:
REMARK  status: ('A' for Active; 'I' for Inactive)
REMARK    1  A    between atoms: C_4  and  C_5 
REMARK    2  A    between atoms: C_12  and  C_13 
REMARK       I    between atoms: C_13  and  N_15 
REMARK    3  A    between atoms: N_15  and  C_16 
REMARK    4  A    between atoms: C_19  and  C_20 
REMARK    5  A    between atoms: C_20  and  N_21 
REMARK       I    between atoms: N_21  and  C_22 
REMARK       I    between atoms: C_22  and  N_23 
ROOT
ATOM      1  C   UNL d   1      27.531 -14.354   1.595  0.00  0.00     0.265 C 
ATOM      2  O   UNL d   1      26.770 -13.408   1.830  0.00  0.00    -0.267 OA
ATOM      3  N   UNL d   1      28.443 -14.804   2.554  0.00  0.00    -0.322 N 
ATOM      4  H   UNL d   1      29.172 -15.448   2.305  0.00  0.00     0.169 HD
ENDROOT
BRANCH   3   5
ATOM      5  C   UNL d   1      28.516 -14.342   3.881  0.00  0.00     0.035 A 
ATOM      6  C   UNL d   1      29.686 -14.528   4.625  0.00  0.00     0.030 A 
ATOM      7  C   UNL d   1      29.745 -14.101   5.961  0.00  0.00     0.011 A 
ATOM      8  C   UNL d   1      28.643 -13.464   6.560  0.00  0.00    -0.040 A 
ATOM      9  C   UNL d   1      27.464 -13.357   5.812  0.00  0.00     0.011 A 
ATOM     10  C   UNL d   1      27.405 -13.779   4.488  0.00  0.00     0.030 A 
BRANCH   8  11
ATOM     11  C   UNL d   1      28.794 -12.870   7.944  0.00  0.00     0.162 C 
BRANCH  11  12
ATOM     12  N   UNL d   1      28.529 -13.778   9.042  0.00  0.00    -0.339 N 
ATOM     13  C   UNL d   1      28.171 -13.492  10.303  0.00  0.00     0.314 C 
ATOM     14  N   UNL d   1      28.042 -12.200  10.635  0.00  0.00    -0.352 N 
ATOM     15  O   UNL d   1      27.975 -14.388  11.123  0.00  0.00    -0.248 OA
ATOM     16  H   UNL d   1      28.155 -11.445   9.982  0.00  0.00     0.160 HD
ATOM     17  H   UNL d   1      27.760 -11.994  11.583  0.00  0.00     0.160 HD
ATOM     18  H   UNL d   1      28.563 -14.775   8.895  0.00  0.00     0.164 HD
ENDBRANCH  11  12
ENDBRANCH   8  11
ENDBRANCH   3   5
BRANCH   1  19
ATOM     19  C   UNL d   1      27.554 -15.020   0.289  0.00  0.00     0.099 A 
ATOM     20  S   UNL d   1      28.011 -14.122  -1.128  0.00  0.00    -0.062 SA
ATOM     21  C   UNL d   1      27.759 -15.505  -2.114  0.00  0.00     0.109 A 
ATOM     22  N   UNL d   1      27.361 -16.574  -1.458  0.00  0.00    -0.244 NA
ATOM     23  C   UNL d   1      27.266 -16.321  -0.098  0.00  0.00     0.054 A 
ATOM     24  C   UNL d   1      26.861 -17.457   0.764  0.00  0.00     0.072 C 
BRANCH  21  25
ATOM     25  C   UNL d   1      27.985 -15.493  -3.569  0.00  0.00    -0.000 A 
ATOM     26  C   UNL d   1      29.188 -15.996  -4.094  0.00  0.00     0.014 A 
ATOM     27  C   UNL d   1      29.513 -15.821  -5.444  0.00  0.00     0.001 A 
ATOM     28  C   UNL d   1      28.610 -15.198  -6.304  0.00  0.00     0.000 A 
ATOM     29  C   UNL d   1      27.402 -14.716  -5.805  0.00  0.00     0.001 A 
ATOM     30  C   UNL d   1      27.094 -14.855  -4.445  0.00  0.00     0.014 A 
ENDBRANCH  21  25
ENDBRANCH   1  19
TORSDOF 5
ENDMDL
MODEL 8
REMARK VINA RESULT:    -7.157      3.284      5.378
REMARK INTER + INTRA:          -9.486
REMARK INTER:                  -8.648
REMARK INTRA:                  -0.837
REMARK CONF_INDEPENDENT:        1.492
REMARK UNBOUND:                -0.837
REMARK  5 active torsions:
REMARK  status: ('A' for Active; 'I' for Inactive)
REMARK    1  A    between atoms: C_4  and  C_5 
REMARK    2  A    between atoms: C_12  and  C_13 
REMARK       I    between atoms: C_13  and  N_15 
REMARK    3  A    between atoms: N_15  and  C_16 
REMARK    4  A    between atoms: C_19  and  C_20 
REMARK    5  A    between atoms: C_20  and  N_21 
REMARK       I    between atoms: N_21  and  C_22 
REMARK       I    between atoms: C_22  and  N_23 
ROOT
ATOM      1  C   UNL d   1      26.042 -12.179  -4.833  0.00  0.00     0.265 C 
ATOM      2  O   UNL d   1      26.358 -11.954  -6.006  0.00  0.00    -0.267 OA
ATOM      3  N   UNL d   1      25.643 -11.145  -3.980  0.00  0.00    -0.322 N 
ATOM      4  H   UNL d   1      25.557 -11.300  -2.992  0.00  0.00     0.169 HD
ENDROOT
BRANCH   3   5
ATOM      5  C   UNL d   1      25.440  -9.808  -4.368  0.00  0.00     0.035 A 
ATOM      6  C   UNL d   1      25.156  -9.501  -5.704  0.00  0.00     0.030 A 
ATOM      7  C   UNL d   1      24.990  -8.164  -6.097  0.00  0.00     0.011 A 
ATOM      8  C   UNL d   1      25.085  -7.122  -5.158  0.00  0.00    -0.040 A 
ATOM      9  C   UNL d   1      25.440  -7.456  -3.845  0.00  0.00     0.011 A 
ATOM     10  C   UNL d   1      25.603  -8.781  -3.453  0.00  0.00     0.030 A 
BRANCH   8  11
ATOM     11  C   UNL d   1      24.740  -5.710  -5.581  0.00  0.00     0.162 C 
BRANCH  11  12
ATOM     12  N   UNL d   1      23.463  -5.558  -6.250  0.00  0.00    -0.339 N 
ATOM     13  C   UNL d   1      22.244  -5.934  -5.833  0.00  0.00     0.314 C 
ATOM     14  N   UNL d   1      22.155  -6.548  -4.645  0.00  0.00    -0.352 N 
ATOM     15  O   UNL d   1      21.248  -5.724  -6.523  0.00  0.00    -0.248 OA
ATOM     16  H   UNL d   1      22.942  -6.699  -4.038  0.00  0.00     0.160 HD
ATOM     17  H   UNL d   1      21.233  -6.817  -4.333  0.00  0.00     0.160 HD
ATOM     18  H   UNL d   1      23.408  -5.078  -7.135  0.00  0.00     0.164 HD
ENDBRANCH  11  12
ENDBRANCH   8  11
ENDBRANCH   3   5
BRANCH   1  19
ATOM     19  C   UNL d   1      26.115 -13.525  -4.258  0.00  0.00     0.099 A 
ATOM     20  S   UNL d   1      25.155 -13.919  -2.862  0.00  0.00    -0.062 SA
ATOM     21  C   UNL d   1      25.807 -15.507  -2.834  0.00  0.00     0.109 A 
ATOM     22  N   UNL d   1      26.682 -15.752  -3.785  0.00  0.00    -0.244 NA
ATOM     23  C   UNL d   1      26.846 -14.650  -4.610  0.00  0.00     0.054 A 
ATOM     24  C   UNL d   1      27.782 -14.805  -5.749  0.00  0.00     0.072 C 
BRANCH  21  25
ATOM     25  C   UNL d   1      25.406 -16.511  -1.834  0.00  0.00    -0.000 A 
ATOM     26  C   UNL d   1      24.044 -16.805  -1.645  0.00  0.00     0.014 A 
ATOM     27  C   UNL d   1      23.621 -17.603  -0.576  0.00  0.00     0.001 A 
ATOM     28  C   UNL d   1      24.558 -18.173   0.283  0.00  0.00     0.000 A 
ATOM     29  C   UNL d   1      25.915 -17.912   0.096  0.00  0.00     0.001 A 
ATOM     30  C   UNL d   1      26.335 -17.081  -0.951  0.00  0.00     0.014 A 
ENDBRANCH  21  25
ENDBRANCH   1  19
TORSDOF 5
ENDMDL
MODEL 9
REMARK VINA RESULT:    -7.147      6.998      8.751
REMARK INTER + INTRA:          -9.406
REMARK INTER:                  -8.638
REMARK INTRA:                  -0.768
REMARK CONF_INDEPENDENT:        1.492
REMARK UNBOUND:                -0.768
REMARK  5 active torsions:
REMARK  status: ('A' for Active; 'I' for Inactive)
REMARK    1  A    between atoms: C_4  and  C_5 
REMARK    2  A    between atoms: C_12  and  C_13 
REMARK       I    between atoms: C_13  and  N_15 
REMARK    3  A    between atoms: N_15  and  C_16 
REMARK    4  A    between atoms: C_19  and  C_20 
REMARK    5  A    between atoms: C_20  and  N_21 
REMARK       I    between atoms: N_21  and  C_22 
REMARK       I    between atoms: C_22  and  N_23 
ROOT
ATOM      1  C   UNL d   1      27.590 -13.929   2.853  0.00  0.00     0.265 C 
ATOM      2  O   UNL d   1      26.707 -13.112   2.571  0.00  0.00    -0.267 OA
ATOM      3  N   UNL d   1      27.920 -14.970   1.980  0.00  0.00    -0.322 N 
ATOM      4  H   UNL d   1      28.506 -15.726   2.282  0.00  0.00     0.169 HD
ENDROOT
BRANCH   3   5
ATOM      5  C   UNL d   1      27.402 -15.131   0.682  0.00  0.00     0.035 A 
ATOM      6  C   UNL d   1      27.180 -14.012  -0.129  0.00  0.00     0.030 A 
ATOM      7  C   UNL d   1      26.629 -14.171  -1.410  0.00  0.00     0.011 A 
ATOM      8  C   UNL d   1      26.314 -15.450  -1.903  0.00  0.00    -0.040 A 
ATOM      9  C   UNL d   1      26.483 -16.542  -1.042  0.00  0.00     0.011 A 
ATOM     10  C   UNL d   1      27.030 -16.386   0.227  0.00  0.00     0.030 A 
BRANCH   8  11
ATOM     11  C   UNL d   1      25.877 -15.600  -3.344  0.00  0.00     0.162 C 
BRANCH  11  12
ATOM     12  N   UNL d   1      26.586 -14.770  -4.298  0.00  0.00    -0.339 N 
ATOM     13  C   UNL d   1      26.221 -13.588  -4.817  0.00  0.00     0.314 C 
ATOM     14  N   UNL d   1      25.042 -13.077  -4.437  0.00  0.00    -0.352 N 
ATOM     15  O   UNL d   1      26.945 -13.000  -5.619  0.00  0.00    -0.248 OA
ATOM     16  H   UNL d   1      24.444 -13.510  -3.754  0.00  0.00     0.160 HD
ATOM     17  H   UNL d   1      24.780 -12.182  -4.823  0.00  0.00     0.160 HD
ATOM     18  H   UNL d   1      27.500 -15.040  -4.626  0.00  0.00     0.164 HD
ENDBRANCH  11  12
ENDBRANCH   8  11
ENDBRANCH   3   5
BRANCH   1  19
ATOM     19  C   UNL d   1      28.302 -13.885   4.134  0.00  0.00     0.099 A 
ATOM     20  S   UNL d   1      27.430 -13.518   5.593  0.00  0.00    -0.062 SA
ATOM     21  C   UNL d   1      28.876 -13.626   6.512  0.00  0.00     0.109 A 
ATOM     22  N   UNL d   1      29.949 -13.913   5.806  0.00  0.00    -0.244 NA
ATOM     23  C   UNL d   1      29.634 -14.086   4.467  0.00  0.00     0.054 A 
ATOM     24  C   UNL d   1      30.752 -14.449   3.563  0.00  0.00     0.072 C 
BRANCH  21  25
ATOM     25  C   UNL d   1      28.904 -13.427   7.971  0.00  0.00    -0.000 A 
ATOM     26  C   UNL d   1      29.385 -14.450   8.807  0.00  0.00     0.014 A 
ATOM     27  C   UNL d   1      29.244 -14.369  10.197  0.00  0.00     0.001 A 
ATOM     28  C   UNL d   1      28.680 -13.235  10.777  0.00  0.00     0.000 A 
ATOM     29  C   UNL d   1      28.221 -12.200   9.964  0.00  0.00     0.001 A 
ATOM     30  C   UNL d   1      28.325 -12.298   8.570  0.00  0.00     0.014 A 
ENDBRANCH  21  25
ENDBRANCH   1  19
TORSDOF 5
ENDMDL
