MODEL 1
REMARK VINA RESULT:    -8.067      0.000      0.000
REMARK INTER + INTRA:         -10.145
REMARK INTER:                  -9.260
REMARK INTRA:                  -0.885
REMARK CONF_INDEPENDENT:        1.193
REMARK UNBOUND:                -0.885
REMARK  4 active torsions:
REMARK  status: ('A' for Active; 'I' for Inactive)
REMARK    1  A    between atoms: C_5  and  C_6 
REMARK    2  A    between atoms: C_9  and  C_10 
REMARK       I    between atoms: C_10  and  N_12 
REMARK    3  A    between atoms: N_12  and  C_13 
REMARK    4  A    between atoms: C_13  and  C_14 
ROOT
ATOM      1  C   UNL d   1      25.503 -16.068  -1.757  0.00  0.00     0.256 C 
ATOM      2  O   UNL d   1      24.822 -16.227  -2.770  0.00  0.00    -0.267 OA
ATOM      3  N   UNL d   1      26.127 -14.876  -1.686  0.00  0.00    -0.352 N 
ATOM      4  H   UNL d   1      26.665 -14.662  -0.881  0.00  0.00     0.163 HD
ENDROOT
BRANCH   3   5
ATOM      5  C   UNL d   1      25.950 -13.921  -2.756  0.00  0.00     0.161 C 
BRANCH   5   6
ATOM      6  C   UNL d   1      26.875 -14.170  -3.905  0.00  0.00    -0.040 A 
ATOM      7  C   UNL d   1      26.843 -13.373  -5.058  0.00  0.00     0.011 A 
ATOM      8  C   UNL d   1      27.658 -13.606  -6.145  0.00  0.00     0.031 A 
ATOM      9  C   UNL d   1      28.533 -14.670  -6.040  0.00  0.00     0.043 A 
ATOM     10  N   UNL d   1      29.427 -15.123  -6.964  0.00  0.00    -0.359 N 
ATOM     11  C   UNL d   1      28.636 -15.483  -4.916  0.00  0.00    -0.001 A 
ATOM     12  C   UNL d   1      30.117 -16.192  -6.470  0.00  0.00     0.012 A 
ATOM     13  H   UNL d   1      29.542 -14.713  -7.880  0.00  0.00     0.166 HD
ATOM     14  C   UNL d   1      31.145 -16.865  -7.290  0.00  0.00     0.068 C 
ATOM     15  C   UNL d   1      29.658 -16.443  -5.187  0.00  0.00    -0.027 A 
ATOM     16  C   UNL d   1      30.121 -17.508  -4.262  0.00  0.00     0.051 C 
ATOM     17  C   UNL d   1      27.790 -15.232  -3.821  0.00  0.00     0.023 A 
ENDBRANCH   5   6
ENDBRANCH   3   5
BRANCH   1  18
ATOM     18  C   UNL d   1      25.694 -17.021  -0.661  0.00  0.00     0.090 A 
ATOM     19  C   UNL d   1      24.715 -17.792  -0.036  0.00  0.00     0.100 A 
ATOM     20  O   UNL d   1      25.292 -18.575   0.920  0.00  0.00    -0.216 OA
ATOM     21  N   UNL d   1      26.644 -18.333   0.975  0.00  0.00    -0.132 NA
ATOM     22  C   UNL d   1      26.887 -17.411   0.038  0.00  0.00     0.076 A 
ATOM     23  C   UNL d   1      28.280 -16.942  -0.146  0.00  0.00     0.074 C 
BRANCH  19  24
ATOM     24  C   UNL d   1      23.229 -17.968  -0.169  0.00  0.00     0.038 C 
ATOM     25  C   UNL d   1      22.530 -16.659  -0.520  0.00  0.00     0.016 C 
ATOM     26  C   UNL d   1      22.875 -18.950  -1.260  0.00  0.00     0.016 C 
ENDBRANCH  19  24
ENDBRANCH   1  18
TORSDOF 4
ENDMDL
MODEL 2
REMARK VINA RESULT:    -7.797      1.452      2.861
REMARK INTER + INTRA:          -9.704
REMARK INTER:                  -8.990
REMARK INTRA:                  -0.714
REMARK CONF_INDEPENDENT:        1.193
REMARK UNBOUND:                -0.714
REMARK  4 active torsions:
REMARK  status: ('A' for Active; 'I' for Inactive)
REMARK    1  A    between atoms: C_5  and  C_6 
REMARK    2  A    between atoms: C_9  and  C_10 
REMARK       I    between atoms: C_10  and  N_12 
REMARK    3  A    between atoms: N_12  and  C_13 
REMARK    4  A    between atoms: C_13  and  C_14 
ROOT
ATOM      1  C   UNL d   1      25.582 -15.546  -1.947  0.00  0.00     0.256 C 
ATOM      2  O   UNL d   1      24.757 -15.404  -2.848  0.00  0.00    -0.267 OA
ATOM      3  N   UNL d   1      26.411 -14.498  -1.778  0.00  0.00    -0.352 N 
ATOM      4  H   UNL d   1      27.080 -14.525  -1.047  0.00  0.00     0.163 HD
ENDROOT
BRANCH   3   5
ATOM      5  C   UNL d   1      26.266 -13.339  -2.630  0.00  0.00     0.161 C 
BRANCH   5   6
ATOM      6  C   UNL d   1      26.914 -13.525  -3.965  0.00  0.00    -0.040 A 
ATOM      7  C   UNL d   1      27.572 -14.716  -4.301  0.00  0.00     0.011 A 
ATOM      8  C   UNL d   1      28.210 -14.898  -5.510  0.00  0.00     0.031 A 
ATOM      9  C   UNL d   1      28.158 -13.839  -6.397  0.00  0.00     0.043 A 
ATOM     10  N   UNL d   1      28.711 -13.750  -7.639  0.00  0.00    -0.359 N 
ATOM     11  C   UNL d   1      27.499 -12.641  -6.139  0.00  0.00    -0.001 A 
ATOM     12  C   UNL d   1      28.420 -12.540  -8.201  0.00  0.00     0.012 A 
ATOM     13  H   UNL d   1      29.261 -14.485  -8.062  0.00  0.00     0.166 HD
ATOM     14  C   UNL d   1      28.915 -12.202  -9.551  0.00  0.00     0.068 C 
ATOM     15  C   UNL d   1      27.655 -11.821  -7.297  0.00  0.00    -0.027 A 
ATOM     16  C   UNL d   1      27.103 -10.454  -7.479  0.00  0.00     0.051 C 
ATOM     17  C   UNL d   1      26.861 -12.475  -4.896  0.00  0.00     0.023 A 
ENDBRANCH   5   6
ENDBRANCH   3   5
BRANCH   1  18
ATOM     18  C   UNL d   1      25.744 -16.710  -1.072  0.00  0.00     0.090 A 
ATOM     19  C   UNL d   1      24.757 -17.613  -0.682  0.00  0.00     0.100 A 
ATOM     20  O   UNL d   1      25.306 -18.575   0.115  0.00  0.00    -0.216 OA
ATOM     21  N   UNL d   1      26.647 -18.329   0.295  0.00  0.00    -0.132 NA
ATOM     22  C   UNL d   1      26.910 -17.222  -0.407  0.00  0.00     0.076 A 
ATOM     23  C   UNL d   1      28.298 -16.702  -0.410  0.00  0.00     0.074 C 
BRANCH  19  24
ATOM     24  C   UNL d   1      23.285 -17.781  -0.931  0.00  0.00     0.038 C 
ATOM     25  C   UNL d   1      22.704 -18.950  -0.144  0.00  0.00     0.016 C 
ATOM     26  C   UNL d   1      22.503 -16.556  -0.520  0.00  0.00     0.016 C 
ENDBRANCH  19  24
ENDBRANCH   1  18
TORSDOF 4
ENDMDL
MODEL 3
REMARK VINA RESULT:    -7.324      0.748      2.482
REMARK INTER + INTRA:          -9.521
REMARK INTER:                  -8.517
REMARK INTRA:                  -1.004
REMARK CONF_INDEPENDENT:        1.193
REMARK UNBOUND:                -1.004
REMARK  4 active torsions:
REMARK  status: ('A' for Active; 'I' for Inactive)
REMARK    1  A    between atoms: C_5  and  C_6 
REMARK    2  A    between atoms: C_9  and  C_10 
REMARK       I    between atoms: C_10  and  N_12 
REMARK    3  A    between atoms: N_12  and  C_13 
REMARK    4  A    between atoms: C_13  and  C_14 
ROOT
ATOM      1  C   UNL d   1      25.430 -15.783  -2.006  0.00  0.00     0.256 C 
ATOM      2  O   UNL d   1      24.963 -15.793  -3.145  0.00  0.00    -0.267 OA
ATOM      3  N   UNL d   1      26.079 -14.649  -1.680  0.00  0.00    -0.352 N 
ATOM      4  H   UNL d   1      26.452 -14.553  -0.765  0.00  0.00     0.163 HD
ENDROOT
BRANCH   3   5
ATOM      5  C   UNL d   1      26.168 -13.582  -2.649  0.00  0.00     0.161 C 
BRANCH   5   6
ATOM      6  C   UNL d   1      27.016 -13.945  -3.826  0.00  0.00    -0.040 A 
ATOM      7  C   UNL d   1      26.942 -13.233  -5.031  0.00  0.00     0.011 A 
ATOM      8  C   UNL d   1      27.685 -13.572  -6.143  0.00  0.00     0.031 A 
ATOM      9  C   UNL d   1      28.530 -14.657  -6.008  0.00  0.00     0.043 A 
ATOM     10  N   UNL d   1      29.354 -15.207  -6.944  0.00  0.00    -0.359 N 
ATOM     11  C   UNL d   1      28.673 -15.390  -4.834  0.00  0.00    -0.001 A 
ATOM     12  C   UNL d   1      30.038 -16.262  -6.412  0.00  0.00     0.012 A 
ATOM     13  H   UNL d   1      29.428 -14.869  -7.893  0.00  0.00     0.166 HD
ATOM     14  C   UNL d   1      30.995 -17.028  -7.236  0.00  0.00     0.068 C 
ATOM     15  C   UNL d   1      29.646 -16.403  -5.090  0.00  0.00    -0.027 A 
ATOM     16  C   UNL d   1      30.129 -17.414  -4.116  0.00  0.00     0.051 C 
ATOM     17  C   UNL d   1      27.900 -15.031  -3.715  0.00  0.00     0.023 A 
ENDBRANCH   5   6
ENDBRANCH   3   5
BRANCH   1  18
ATOM     18  C   UNL d   1      25.349 -16.852  -1.008  0.00  0.00     0.090 A 
ATOM     19  C   UNL d   1      26.349 -17.258  -0.127  0.00  0.00     0.100 A 
ATOM     20  O   UNL d   1      25.881 -18.268   0.662  0.00  0.00    -0.216 OA
ATOM     21  N   UNL d   1      24.586 -18.575   0.316  0.00  0.00    -0.132 NA
ATOM     22  C   UNL d   1      24.267 -17.737  -0.675  0.00  0.00     0.076 A 
ATOM     23  C   UNL d   1      22.910 -17.826  -1.265  0.00  0.00     0.074 C 
BRANCH  19  24
ATOM     24  C   UNL d   1      27.767 -16.854   0.160  0.00  0.00     0.038 C 
ATOM     25  C   UNL d   1      28.598 -16.748  -1.114  0.00  0.00     0.016 C 
ATOM     26  C   UNL d   1      27.841 -15.504   0.834  0.00  0.00     0.016 C 
ENDBRANCH  19  24
ENDBRANCH   1  18
TORSDOF 4
ENDMDL
MODEL 4
REMARK VINA RESULT:    -7.300      2.523      4.665
REMARK INTER + INTRA:          -9.208
REMARK INTER:                  -8.493
REMARK INTRA:                  -0.715
REMARK CONF_INDEPENDENT:        1.193
REMARK UNBOUND:                -0.715
REMARK  4 active torsions:
REMARK  status: ('A' for Active; 'I' for Inactive)
REMARK    1  A    between atoms: C_5  and  C_6 
REMARK    2  A    between atoms: C_9  and  C_10 
REMARK       I    between atoms: C_10  and  N_12 
REMARK    3  A    between atoms: N_12  and  C_13 
REMARK    4  A    between atoms: C_13  and  C_14 
ROOT
ATOM      1  C   UNL d   1      25.361 -16.017  -2.233  0.00  0.00     0.256 C 
ATOM      2  O   UNL d   1      24.429 -15.246  -2.459  0.00  0.00    -0.267 OA
ATOM      3  N   UNL d   1      26.371 -15.946  -3.120  0.00  0.00    -0.352 N 
ATOM      4  H   UNL d   1      27.173 -16.513  -2.983  0.00  0.00     0.163 HD
ENDROOT
BRANCH   3   5
ATOM      5  C   UNL d   1      26.285 -15.007  -4.215  0.00  0.00     0.161 C 
BRANCH   5   6
ATOM      6  C   UNL d   1      26.373 -13.585  -3.759  0.00  0.00    -0.040 A 
ATOM      7  C   UNL d   1      26.856 -13.252  -2.485  0.00  0.00     0.011 A 
ATOM      8  C   UNL d   1      26.911 -11.953  -2.027  0.00  0.00     0.031 A 
ATOM      9  C   UNL d   1      26.473 -10.975  -2.900  0.00  0.00     0.043 A 
ATOM     10  N   UNL d   1      26.407  -9.629  -2.697  0.00  0.00    -0.359 N 
ATOM     11  C   UNL d   1      26.009 -11.233  -4.186  0.00  0.00    -0.001 A 
ATOM     12  C   UNL d   1      25.930  -9.005  -3.813  0.00  0.00     0.012 A 
ATOM     13  H   UNL d   1      26.673  -9.180  -1.832  0.00  0.00     0.166 HD
ATOM     14  C   UNL d   1      25.763  -7.537  -3.838  0.00  0.00     0.068 C 
ATOM     15  C   UNL d   1      25.678  -9.973  -4.772  0.00  0.00    -0.027 A 
ATOM     16  C   UNL d   1      25.155  -9.760  -6.145  0.00  0.00     0.051 C 
ATOM     17  C   UNL d   1      25.955 -12.567  -4.631  0.00  0.00     0.023 A 
ENDBRANCH   5   6
ENDBRANCH   3   5
BRANCH   1  18
ATOM     18  C   UNL d   1      25.467 -16.974  -1.129  0.00  0.00     0.090 A 
ATOM     19  C   UNL d   1      24.460 -17.795  -0.626  0.00  0.00     0.100 A 
ATOM     20  O   UNL d   1      24.958 -18.563   0.386  0.00  0.00    -0.216 OA
ATOM     21  N   UNL d   1      26.283 -18.263   0.597  0.00  0.00    -0.132 NA
ATOM     22  C   UNL d   1      26.589 -17.320  -0.299  0.00  0.00     0.076 A 
ATOM     23  C   UNL d   1      27.972 -16.788  -0.320  0.00  0.00     0.074 C 
BRANCH  19  24
ATOM     24  C   UNL d   1      23.008 -18.034  -0.929  0.00  0.00     0.038 C 
ATOM     25  C   UNL d   1      22.450 -19.217  -0.145  0.00  0.00     0.016 C 
ATOM     26  C   UNL d   1      22.155 -16.841  -0.570  0.00  0.00     0.016 C 
ENDBRANCH  19  24
ENDBRANCH   1  18
TORSDOF 4
ENDMDL
MODEL 5
REMARK VINA RESULT:    -7.064      1.591      3.677
REMARK INTER + INTRA:          -9.061
REMARK INTER:                  -8.257
REMARK INTRA:                  -0.804
REMARK CONF_INDEPENDENT:        1.193
REMARK UNBOUND:                -0.804
REMARK  4 active torsions:
REMARK  status: ('A' for Active; 'I' for Inactive)
REMARK    1  A    between atoms: C_5  and  C_6 
REMARK    2  A    between atoms: C_9  and  C_10 
REMARK       I    between atoms: C_10  and  N_12 
REMARK    3  A    between atoms: N_12  and  C_13 
REMARK    4  A    between atoms: C_13  and  C_14 
ROOT
ATOM      1  C   UNL d   1      25.155 -15.494  -1.869  0.00  0.00     0.256 C 
ATOM      2  O   UNL d   1      24.289 -15.199  -2.693  0.00  0.00    -0.267 OA
ATOM      3  N   UNL d   1      26.142 -14.585  -1.748  0.00  0.00    -0.352 N 
ATOM      4  H   UNL d   1      26.857 -14.738  -1.077  0.00  0.00     0.163 HD
ENDROOT
BRANCH   3   5
ATOM      5  C   UNL d   1      26.103 -13.388  -2.555  0.00  0.00     0.161 C 
BRANCH   5   6
ATOM      6  C   UNL d   1      26.742 -13.578  -3.894  0.00  0.00    -0.040 A 
ATOM      7  C   UNL d   1      27.245 -14.823  -4.296  0.00  0.00     0.011 A 
ATOM      8  C   UNL d   1      27.873 -15.015  -5.508  0.00  0.00     0.031 A 
ATOM      9  C   UNL d   1      27.976 -13.909  -6.329  0.00  0.00     0.043 A 
ATOM     10  N   UNL d   1      28.557 -13.820  -7.559  0.00  0.00    -0.359 N 
ATOM     11  C   UNL d   1      27.475 -12.652  -6.004  0.00  0.00    -0.001 A 
ATOM     12  C   UNL d   1      28.435 -12.551  -8.048  0.00  0.00     0.012 A 
ATOM     13  H   UNL d   1      29.012 -14.594  -8.020  0.00  0.00     0.166 HD
ATOM     14  C   UNL d   1      28.993 -12.202  -9.371  0.00  0.00     0.068 C 
ATOM     15  C   UNL d   1      27.756 -11.792  -7.109  0.00  0.00    -0.027 A 
ATOM     16  C   UNL d   1      27.391 -10.356  -7.212  0.00  0.00     0.051 C 
ATOM     17  C   UNL d   1      26.844 -12.477  -4.759  0.00  0.00     0.023 A 
ENDBRANCH   5   6
ENDBRANCH   3   5
BRANCH   1  18
ATOM     18  C   UNL d   1      25.212 -16.701  -1.040  0.00  0.00     0.090 A 
ATOM     19  C   UNL d   1      26.344 -17.274  -0.465  0.00  0.00     0.100 A 
ATOM     20  O   UNL d   1      25.983 -18.375   0.256  0.00  0.00    -0.216 OA
ATOM     21  N   UNL d   1      24.627 -18.576   0.161  0.00  0.00    -0.132 NA
ATOM     22  C   UNL d   1      24.165 -17.585  -0.608  0.00  0.00     0.076 A 
ATOM     23  C   UNL d   1      22.712 -17.531  -0.893  0.00  0.00     0.074 C 
BRANCH  19  24
ATOM     24  C   UNL d   1      27.816 -16.972  -0.440  0.00  0.00     0.038 C 
ATOM     25  C   UNL d   1      28.358 -16.670  -1.833  0.00  0.00     0.016 C 
ATOM     26  C   UNL d   1      28.127 -15.766   0.413  0.00  0.00     0.016 C 
ENDBRANCH  19  24
ENDBRANCH   1  18
TORSDOF 4
ENDMDL
MODEL 6
REMARK VINA RESULT:    -7.043      5.125      8.235
REMARK INTER + INTRA:          -8.873
REMARK INTER:                  -8.236
REMARK INTRA:                  -0.637
REMARK CONF_INDEPENDENT:        1.193
REMARK UNBOUND:                -0.637
REMARK  4 active torsions:
REMARK  status: ('A' for Active; 'I' for Inactive)
REMARK    1  A    between atoms: C_5  and  C_6 
REMARK    2  A    between atoms: C_9  and  C_10 
REMARK       I    between atoms: C_10  and  N_12 
REMARK    3  A    between atoms: N_12  and  C_13 
REMARK    4  A    between atoms: C_13  and  C_14 
ROOT
ATOM      1  C   UNL d   1      27.269 -15.265  -0.471  0.00  0.00     0.256 C 
ATOM      2  O   UNL d   1      28.410 -15.669  -0.694  0.00  0.00    -0.267 OA
ATOM      3  N   UNL d   1      27.070 -14.821   0.785  0.00  0.00    -0.352 N 
ATOM      4  H   UNL d   1      26.184 -14.447   1.029  0.00  0.00     0.163 HD
ENDROOT
BRANCH   3   5
ATOM      5  C   UNL d   1      28.166 -14.850   1.726  0.00  0.00     0.161 C 
BRANCH   5   6
ATOM      6  C   UNL d   1      28.036 -13.807   2.790  0.00  0.00    -0.040 A 
ATOM      7  C   UNL d   1      27.500 -12.541   2.514  0.00  0.00     0.011 A 
ATOM      8  C   UNL d   1      27.405 -11.550   3.468  0.00  0.00     0.031 A 
ATOM      9  C   UNL d   1      27.857 -11.870   4.733  0.00  0.00     0.043 A 
ATOM     10  N   UNL d   1      27.892 -11.080   5.844  0.00  0.00    -0.359 N 
ATOM     11  C   UNL d   1      28.374 -13.114   5.082  0.00  0.00    -0.001 A 
ATOM     12  C   UNL d   1      28.400 -11.775   6.904  0.00  0.00     0.012 A 
ATOM     13  H   UNL d   1      27.586 -10.118   5.856  0.00  0.00     0.166 HD
ATOM     14  C   UNL d   1      28.542 -11.129   8.225  0.00  0.00     0.068 C 
ATOM     15  C   UNL d   1      28.705 -13.055   6.471  0.00  0.00    -0.027 A 
ATOM     16  C   UNL d   1      29.276 -14.162   7.279  0.00  0.00     0.051 C 
ATOM     17  C   UNL d   1      28.468 -14.109   4.092  0.00  0.00     0.023 A 
ENDBRANCH   5   6
ENDBRANCH   3   5
BRANCH   1  18
ATOM     18  C   UNL d   1      26.146 -15.226  -1.411  0.00  0.00     0.090 A 
ATOM     19  C   UNL d   1      24.974 -15.976  -1.353  0.00  0.00     0.100 A 
ATOM     20  O   UNL d   1      24.161 -15.635  -2.395  0.00  0.00    -0.216 OA
ATOM     21  N   UNL d   1      24.770 -14.683  -3.176  0.00  0.00    -0.132 NA
ATOM     22  C   UNL d   1      25.950 -14.437  -2.596  0.00  0.00     0.076 A 
ATOM     23  C   UNL d   1      26.847 -13.435  -3.217  0.00  0.00     0.074 C 
BRANCH  19  24
ATOM     24  C   UNL d   1      24.406 -17.027  -0.442  0.00  0.00     0.038 C 
ATOM     25  C   UNL d   1      23.304 -17.834  -1.120  0.00  0.00     0.016 C 
ATOM     26  C   UNL d   1      25.457 -18.018  -0.004  0.00  0.00     0.016 C 
ENDBRANCH  19  24
ENDBRANCH   1  18
TORSDOF 4
ENDMDL
MODEL 7
REMARK VINA RESULT:    -6.999      4.924      8.373
REMARK INTER + INTRA:          -8.980
REMARK INTER:                  -8.193
REMARK INTRA:                  -0.787
REMARK CONF_INDEPENDENT:        1.193
REMARK UNBOUND:                -0.787
REMARK  4 active torsions:
REMARK  status: ('A' for Active; 'I' for Inactive)
REMARK    1  A    between atoms: C_5  and  C_6 
REMARK    2  A    between atoms: C_9  and  C_10 
REMARK       I    between atoms: C_10  and  N_12 
REMARK    3  A    between atoms: N_12  and  C_13 
REMARK    4  A    between atoms: C_13  and  C_14 
ROOT
ATOM      1  C   UNL d   1      26.752 -13.261  -0.799  0.00  0.00     0.256 C 
ATOM      2  O   UNL d   1      27.536 -12.357  -1.091  0.00  0.00    -0.267 OA
ATOM      3  N   UNL d   1      26.470 -13.351   0.514  0.00  0.00    -0.352 N 
ATOM      4  H   UNL d   1      25.818 -14.034   0.821  0.00  0.00     0.163 HD
ENDROOT
BRANCH   3   5
ATOM      5  C   UNL d   1      27.079 -12.418   1.434  0.00  0.00     0.161 C 
BRANCH   5   6
ATOM      6  C   UNL d   1      27.552 -13.078   2.690  0.00  0.00    -0.040 A 
ATOM      7  C   UNL d   1      27.755 -14.463   2.759  0.00  0.00     0.011 A 
ATOM      8  C   UNL d   1      28.154 -15.100   3.915  0.00  0.00     0.031 A 
ATOM      9  C   UNL d   1      28.361 -14.295   5.019  0.00  0.00     0.043 A 
ATOM     10  N   UNL d   1      28.739 -14.665   6.276  0.00  0.00    -0.359 N 
ATOM     11  C   UNL d   1      28.205 -12.913   5.013  0.00  0.00    -0.001 A 
ATOM     12  C   UNL d   1      28.847 -13.567   7.079  0.00  0.00     0.012 A 
ATOM     13  H   UNL d   1      28.903 -15.622   6.552  0.00  0.00     0.166 HD
ATOM     14  C   UNL d   1      29.241 -13.711   8.496  0.00  0.00     0.068 C 
ATOM     15  C   UNL d   1      28.531 -12.449   6.324  0.00  0.00    -0.027 A 
ATOM     16  C   UNL d   1      28.518 -11.035   6.777  0.00  0.00     0.051 C 
ATOM     17  C   UNL d   1      27.791 -12.285   3.824  0.00  0.00     0.023 A 
ENDBRANCH   5   6
ENDBRANCH   3   5
BRANCH   1  18
ATOM     18  C   UNL d   1      26.123 -14.215  -1.716  0.00  0.00     0.090 A 
ATOM     19  C   UNL d   1      25.771 -15.535  -1.445  0.00  0.00     0.100 A 
ATOM     20  O   UNL d   1      25.186 -16.087  -2.547  0.00  0.00    -0.216 OA
ATOM     21  N   UNL d   1      25.155 -15.173  -3.573  0.00  0.00    -0.132 NA
ATOM     22  C   UNL d   1      25.712 -14.060  -3.084  0.00  0.00     0.076 A 
ATOM     23  C   UNL d   1      25.820 -12.877  -3.970  0.00  0.00     0.074 C 
BRANCH  19  24
ATOM     24  C   UNL d   1      25.868 -16.460  -0.265  0.00  0.00     0.038 C 
ATOM     25  C   UNL d   1      24.714 -17.456  -0.225  0.00  0.00     0.016 C 
ATOM     26  C   UNL d   1      27.138 -17.277  -0.295  0.00  0.00     0.016 C 
ENDBRANCH  19  24
ENDBRANCH   1  18
TORSDOF 4
ENDMDL
MODEL 8
REMARK VINA RESULT:    -6.772      1.651      2.269
REMARK INTER + INTRA:          -8.700
REMARK INTER:                  -7.965
REMARK INTRA:                  -0.735
REMARK CONF_INDEPENDENT:        1.193
REMARK UNBOUND:                -0.735
REMARK  4 active torsions:
REMARK  status: ('A' for Active; 'I' for Inactive)
REMARK    1  A    between atoms: C_5  and  C_6 
REMARK    2  A    between atoms: C_9  and  C_10 
REMARK       I    between atoms: C_10  and  N_12 
REMARK    3  A    between atoms: N_12  and  C_13 
REMARK    4  A    between atoms: C_13  and  C_14 
ROOT
ATOM      1  C   UNL d   1      25.306 -15.927  -2.772  0.00  0.00     0.256 C 
ATOM      2  O   UNL d   1      25.530 -16.246  -3.940  0.00  0.00    -0.267 OA
ATOM      3  N   UNL d   1      24.781 -14.696  -2.621  0.00  0.00    -0.352 N 
ATOM      4  H   UNL d   1      24.541 -14.384  -1.710  0.00  0.00     0.163 HD
ENDROOT
BRANCH   3   5
ATOM      5  C   UNL d   1      24.530 -13.886  -3.791  0.00  0.00     0.161 C 
BRANCH   5   6
ATOM      6  C   UNL d   1      25.768 -13.225  -4.306  0.00  0.00    -0.040 A 
ATOM      7  C   UNL d   1      26.009 -11.860  -4.102  0.00  0.00     0.011 A 
ATOM      8  C   UNL d   1      27.124 -11.219  -4.601  0.00  0.00     0.031 A 
ATOM      9  C   UNL d   1      28.015 -12.000  -5.312  0.00  0.00     0.043 A 
ATOM     10  N   UNL d   1      29.175 -11.619  -5.918  0.00  0.00    -0.359 N 
ATOM     11  C   UNL d   1      27.851 -13.364  -5.528  0.00  0.00    -0.001 A 
ATOM     12  C   UNL d   1      29.776 -12.695  -6.506  0.00  0.00     0.012 A 
ATOM     13  H   UNL d   1      29.518 -10.670  -5.924  0.00  0.00     0.166 HD
ATOM     14  C   UNL d   1      31.051 -12.536  -7.234  0.00  0.00     0.068 C 
ATOM     15  C   UNL d   1      28.983 -13.808  -6.276  0.00  0.00    -0.027 A 
ATOM     16  C   UNL d   1      29.242 -15.200  -6.724  0.00  0.00     0.051 C 
ATOM     17  C   UNL d   1      26.703 -13.997  -5.016  0.00  0.00     0.023 A 
ENDBRANCH   5   6
ENDBRANCH   3   5
BRANCH   1  18
ATOM     18  C   UNL d   1      25.551 -16.733  -1.574  0.00  0.00     0.090 A 
ATOM     19  C   UNL d   1      24.612 -17.448  -0.833  0.00  0.00     0.100 A 
ATOM     20  O   UNL d   1      25.235 -18.091   0.196  0.00  0.00    -0.216 OA
ATOM     21  N   UNL d   1      26.580 -17.808   0.184  0.00  0.00    -0.132 NA
ATOM     22  C   UNL d   1      26.772 -17.001  -0.864  0.00  0.00     0.076 A 
ATOM     23  C   UNL d   1      28.146 -16.521  -1.143  0.00  0.00     0.074 C 
BRANCH  19  24
ATOM     24  C   UNL d   1      23.129 -17.679  -0.902  0.00  0.00     0.038 C 
ATOM     25  C   UNL d   1      22.639 -18.575   0.230  0.00  0.00     0.016 C 
ATOM     26  C   UNL d   1      22.354 -16.388  -0.794  0.00  0.00     0.016 C 
ENDBRANCH  19  24
ENDBRANCH   1  18
TORSDOF 4
ENDMDL
MODEL 9
REMARK VINA RESULT:    -6.751      2.297      4.082
REMARK INTER + INTRA:          -8.669
REMARK INTER:                  -7.944
REMARK INTRA:                  -0.725
REMARK CONF_INDEPENDENT:        1.193
REMARK UNBOUND:                -0.725
REMARK  4 active torsions:
REMARK  status: ('A' for Active; 'I' for Inactive)
REMARK    1  A    between atoms: C_5  and  C_6 
REMARK    2  A    between atoms: C_9  and  C_10 
REMARK       I    between atoms: C_10  and  N_12 
REMARK    3  A    between atoms: N_12  and  C_13 
REMARK    4  A    between atoms: C_13  and  C_14 
ROOT
ATOM      1  C   UNL d   1      27.782 -15.546  -3.205  0.00  0.00     0.256 C 
ATOM      2  O   UNL d   1      28.254 -16.581  -2.735  0.00  0.00    -0.267 OA
ATOM      3  N   UNL d   1      28.693 -14.713  -3.745  0.00  0.00    -0.352 N 
ATOM      4  H   UNL d   1      28.383 -13.875  -4.176  0.00  0.00     0.163 HD
ENDROOT
BRANCH   3   5
ATOM      5  C   UNL d   1      30.088 -15.088  -3.733  0.00  0.00     0.161 C 
BRANCH   5   6
ATOM      6  C   UNL d   1      30.494 -15.826  -4.969  0.00  0.00    -0.040 A 
ATOM      7  C   UNL d   1      30.954 -15.151  -6.108  0.00  0.00     0.011 A 
ATOM      8  C   UNL d   1      31.297 -15.806  -7.272  0.00  0.00     0.031 A 
ATOM      9  C   UNL d   1      31.178 -17.182  -7.261  0.00  0.00     0.043 A 
ATOM     10  N   UNL d   1      31.434 -18.061  -8.271  0.00  0.00    -0.359 N 
ATOM     11  C   UNL d   1      30.756 -17.916  -6.157  0.00  0.00    -0.001 A 
ATOM     12  C   UNL d   1      31.206 -19.341  -7.854  0.00  0.00     0.012 A 
ATOM     13  H   UNL d   1      31.742 -17.782  -9.191  0.00  0.00     0.166 HD
ATOM     14  C   UNL d   1      31.410 -20.477  -8.775  0.00  0.00     0.068 C 
ATOM     15  C   UNL d   1      30.789 -19.293  -6.533  0.00  0.00    -0.027 A 
ATOM     16  C   UNL d   1      30.432 -20.444  -5.665  0.00  0.00     0.051 C 
ATOM     17  C   UNL d   1      30.403 -17.227  -4.982  0.00  0.00     0.023 A 
ENDBRANCH   5   6
ENDBRANCH   3   5
BRANCH   1  18
ATOM     18  C   UNL d   1      26.372 -15.149  -3.229  0.00  0.00     0.090 A 
ATOM     19  C   UNL d   1      25.334 -15.685  -2.470  0.00  0.00     0.100 A 
ATOM     20  O   UNL d   1      24.172 -15.031  -2.759  0.00  0.00    -0.216 OA
ATOM     21  N   UNL d   1      24.395 -14.074  -3.721  0.00  0.00    -0.132 NA
ATOM     22  C   UNL d   1      25.700 -14.142  -4.003  0.00  0.00     0.076 A 
ATOM     23  C   UNL d   1      26.251 -13.215  -5.020  0.00  0.00     0.074 C 
BRANCH  19  24
ATOM     24  C   UNL d   1      25.197 -16.766  -1.436  0.00  0.00     0.038 C 
ATOM     25  C   UNL d   1      26.087 -16.511  -0.224  0.00  0.00     0.016 C 
ATOM     26  C   UNL d   1      23.783 -16.869  -0.916  0.00  0.00     0.016 C 
ENDBRANCH  19  24
ENDBRANCH   1  18
TORSDOF 4
ENDMDL
