MODEL 1
REMARK VINA RESULT:    -7.910      0.000      0.000
REMARK INTER + INTRA:          -9.925
REMARK INTER:                  -9.104
REMARK INTRA:                  -0.822
REMARK CONF_INDEPENDENT:        1.193
REMARK UNBOUND:                -0.822
REMARK  4 active torsions:
REMARK  status: ('A' for Active; 'I' for Inactive)
REMARK    1  A    between atoms: C_5  and  C_6 
REMARK       I    between atoms: C_6  and  N_7 
REMARK    2  A    between atoms: C_10  and  N_11 
REMARK       I    between atoms: N_11  and  C_12 
REMARK    3  A    between atoms: C_12  and  C_14 
REMARK    4  A    between atoms: C_17  and  C_18 
ROOT
ATOM      1  N   UNL d   1      27.838 -16.559  -1.043  0.00  0.00    -0.322 N 
ATOM      2  C   UNL d   1      26.807 -16.608  -0.113  0.00  0.00     0.256 C 
ATOM      3  O   UNL d   1      26.991 -16.218   1.039  0.00  0.00    -0.267 OA
ATOM      4  H   UNL d   1      28.752 -16.742  -0.640  0.00  0.00     0.169 HD
ENDROOT
BRANCH   1   5
ATOM      5  C   UNL d   1      27.821 -16.001  -2.357  0.00  0.00     0.042 C 
ATOM      6  C   UNL d   1      26.696 -15.219  -2.727  0.00  0.00     0.047 C 
ATOM      7  C   UNL d   1      26.660 -14.535  -3.964  0.00  0.00     0.034 C 
ATOM      8  C   UNL d   1      27.762 -14.619  -4.812  0.00  0.00     0.017 C 
ATOM      9  C   UNL d   1      28.843 -15.414  -4.478  0.00  0.00     0.010 C 
ATOM     10  C   UNL d   1      28.858 -16.172  -3.304  0.00  0.00    -0.035 C 
ATOM     11  C   UNL d   1      30.018 -17.120  -3.200  0.00  0.00     0.050 C 
BRANCH   7  12
ATOM     12  C   UNL d   1      25.464 -13.716  -4.351  0.00  0.00     0.249 C 
ATOM     13  N   UNL d   1      25.597 -12.344  -4.367  0.00  0.00    -0.366 N 
ATOM     14  H   UNL d   1      26.432 -11.827  -4.148  0.00  0.00     0.159 HD
ATOM     15  H   UNL d   1      24.788 -11.800  -4.637  0.00  0.00     0.159 HD
ATOM     16  O   UNL d   1      24.404 -14.232  -4.646  0.00  0.00    -0.268 OA
ENDBRANCH   7  12
ENDBRANCH   1   5
BRANCH   2  17
ATOM     17  C   UNL d   1      25.462 -17.172  -0.507  0.00  0.00     0.032 C 
ATOM     18  C   UNL d   1      25.149 -18.498  -0.146  0.00  0.00     0.018 C 
ATOM     19  C   UNL d   1      23.817 -18.946  -0.187  0.00  0.00     0.017 C 
ATOM     20  C   UNL d   1      22.778 -18.071  -0.549  0.00  0.00     0.048 C 
ATOM     21  C   UNL d   1      23.093 -16.748  -0.884  0.00  0.00     0.017 C 
ATOM     22  C   UNL d   1      24.425 -16.326  -0.947  0.00  0.00     0.018 C 
BRANCH  20  23
ATOM     23  C   UNL d   1      21.348 -18.546  -0.628  0.00  0.00     0.417 C 
ATOM     24  F   UNL d   1      21.250 -19.696  -1.348  0.00  0.00    -0.166 F 
ATOM     25  F   UNL d   1      20.792 -18.807   0.586  0.00  0.00    -0.166 F 
ATOM     26  F   UNL d   1      20.516 -17.654  -1.235  0.00  0.00    -0.166 F 
ENDBRANCH  20  23
ENDBRANCH   2  17
TORSDOF 4
ENDMDL
MODEL 2
REMARK VINA RESULT:    -7.520      4.789      6.850
REMARK INTER + INTRA:          -9.455
REMARK INTER:                  -8.713
REMARK INTRA:                  -0.742
REMARK CONF_INDEPENDENT:        1.193
REMARK UNBOUND:                -0.742
REMARK  4 active torsions:
REMARK  status: ('A' for Active; 'I' for Inactive)
REMARK    1  A    between atoms: C_5  and  C_6 
REMARK       I    between atoms: C_6  and  N_7 
REMARK    2  A    between atoms: C_10  and  N_11 
REMARK       I    between atoms: N_11  and  C_12 
REMARK    3  A    between atoms: C_12  and  C_14 
REMARK    4  A    between atoms: C_17  and  C_18 
ROOT
ATOM      1  N   UNL d   1      25.648 -16.160  -2.924  0.00  0.00    -0.322 N 
ATOM      2  C   UNL d   1      25.488 -14.806  -3.197  0.00  0.00     0.256 C 
ATOM      3  O   UNL d   1      25.018 -14.441  -4.273  0.00  0.00    -0.267 OA
ATOM      4  H   UNL d   1      25.900 -16.707  -3.742  0.00  0.00     0.169 HD
ENDROOT
BRANCH   1   5
ATOM      5  C   UNL d   1      25.214 -16.890  -1.777  0.00  0.00     0.042 C 
ATOM      6  C   UNL d   1      23.824 -17.143  -1.643  0.00  0.00     0.047 C 
ATOM      7  C   UNL d   1      23.331 -17.961  -0.600  0.00  0.00     0.034 C 
ATOM      8  C   UNL d   1      24.235 -18.539   0.288  0.00  0.00     0.017 C 
ATOM      9  C   UNL d   1      25.586 -18.260   0.191  0.00  0.00     0.010 C 
ATOM     10  C   UNL d   1      26.084 -17.381  -0.775  0.00  0.00    -0.035 C 
ATOM     11  C   UNL d   1      27.538 -17.048  -0.610  0.00  0.00     0.050 C 
BRANCH   7  12
ATOM     12  C   UNL d   1      21.859 -18.218  -0.461  0.00  0.00     0.249 C 
ATOM     13  N   UNL d   1      21.463 -19.364   0.196  0.00  0.00    -0.366 N 
ATOM     14  H   UNL d   1      22.071 -20.054   0.605  0.00  0.00     0.159 HD
ATOM     15  H   UNL d   1      20.469 -19.526   0.292  0.00  0.00     0.159 HD
ATOM     16  O   UNL d   1      21.030 -17.450  -0.906  0.00  0.00    -0.268 OA
ENDBRANCH   7  12
ENDBRANCH   1   5
BRANCH   2  17
ATOM     17  C   UNL d   1      25.922 -13.776  -2.181  0.00  0.00     0.032 C 
ATOM     18  C   UNL d   1      26.280 -14.207  -0.887  0.00  0.00     0.018 C 
ATOM     19  C   UNL d   1      26.998 -13.355  -0.031  0.00  0.00     0.017 C 
ATOM     20  C   UNL d   1      27.403 -12.080  -0.465  0.00  0.00     0.048 C 
ATOM     21  C   UNL d   1      27.065 -11.666  -1.760  0.00  0.00     0.017 C 
ATOM     22  C   UNL d   1      26.260 -12.467  -2.577  0.00  0.00     0.018 C 
BRANCH  20  23
ATOM     23  C   UNL d   1      28.147 -11.143   0.453  0.00  0.00     0.417 C 
ATOM     24  F   UNL d   1      27.296 -10.498   1.296  0.00  0.00    -0.166 F 
ATOM     25  F   UNL d   1      29.065 -11.764   1.241  0.00  0.00    -0.166 F 
ATOM     26  F   UNL d   1      28.827 -10.164  -0.210  0.00  0.00    -0.166 F 
ENDBRANCH  20  23
ENDBRANCH   2  17
TORSDOF 4
ENDMDL
MODEL 3
REMARK VINA RESULT:    -7.486      3.159      5.217
REMARK INTER + INTRA:          -9.723
REMARK INTER:                  -8.680
REMARK INTRA:                  -1.044
REMARK CONF_INDEPENDENT:        1.193
REMARK UNBOUND:                -1.044
REMARK  4 active torsions:
REMARK  status: ('A' for Active; 'I' for Inactive)
REMARK    1  A    between atoms: C_5  and  C_6 
REMARK       I    between atoms: C_6  and  N_7 
REMARK    2  A    between atoms: C_10  and  N_11 
REMARK       I    between atoms: N_11  and  C_12 
REMARK    3  A    between atoms: C_12  and  C_14 
REMARK    4  A    between atoms: C_17  and  C_18 
ROOT
ATOM      1  N   UNL d   1      28.590 -15.349  -0.010  0.00  0.00    -0.322 N 
ATOM      2  C   UNL d   1      28.357 -16.696  -0.266  0.00  0.00     0.256 C 
ATOM      3  O   UNL d   1      29.296 -17.489  -0.317  0.00  0.00    -0.267 OA
ATOM      4  H   UNL d   1      29.456 -15.007  -0.418  0.00  0.00     0.169 HD
ENDROOT
BRANCH   1   5
ATOM      5  C   UNL d   1      27.969 -14.510   0.964  0.00  0.00     0.042 C 
ATOM      6  C   UNL d   1      28.176 -14.825   2.332  0.00  0.00     0.047 C 
ATOM      7  C   UNL d   1      27.694 -13.974   3.355  0.00  0.00     0.034 C 
ATOM      8  C   UNL d   1      27.030 -12.803   3.000  0.00  0.00     0.017 C 
ATOM      9  C   UNL d   1      26.786 -12.514   1.669  0.00  0.00     0.010 C 
ATOM     10  C   UNL d   1      27.171 -13.387   0.648  0.00  0.00    -0.035 C 
ATOM     11  C   UNL d   1      26.655 -13.007  -0.710  0.00  0.00     0.050 C 
BRANCH   7  12
ATOM     12  C   UNL d   1      27.911 -14.317   4.799  0.00  0.00     0.249 C 
ATOM     13  N   UNL d   1      28.748 -15.371   5.095  0.00  0.00    -0.366 N 
ATOM     14  H   UNL d   1      29.243 -15.941   4.428  0.00  0.00     0.159 HD
ATOM     15  H   UNL d   1      28.895 -15.591   6.072  0.00  0.00     0.159 HD
ATOM     16  O   UNL d   1      27.373 -13.694   5.693  0.00  0.00    -0.268 OA
ENDBRANCH   7  12
ENDBRANCH   1   5
BRANCH   2  17
ATOM     17  C   UNL d   1      26.949 -17.183  -0.512  0.00  0.00     0.032 C 
ATOM     18  C   UNL d   1      26.336 -18.005   0.456  0.00  0.00     0.018 C 
ATOM     19  C   UNL d   1      24.944 -18.200   0.438  0.00  0.00     0.017 C 
ATOM     20  C   UNL d   1      24.142 -17.549  -0.516  0.00  0.00     0.048 C 
ATOM     21  C   UNL d   1      24.754 -16.715  -1.460  0.00  0.00     0.017 C 
ATOM     22  C   UNL d   1      26.148 -16.601  -1.513  0.00  0.00     0.018 C 
BRANCH  20  23
ATOM     23  C   UNL d   1      22.651 -17.773  -0.566  0.00  0.00     0.417 C 
ATOM     24  F   UNL d   1      22.322 -18.694  -1.511  0.00  0.00    -0.166 F 
ATOM     25  F   UNL d   1      22.127 -18.225   0.605  0.00  0.00    -0.166 F 
ATOM     26  F   UNL d   1      21.947 -16.649  -0.880  0.00  0.00    -0.166 F 
ENDBRANCH  20  23
ENDBRANCH   2  17
TORSDOF 4
ENDMDL
MODEL 4
REMARK VINA RESULT:    -7.308      4.727      6.879
REMARK INTER + INTRA:          -9.287
REMARK INTER:                  -8.501
REMARK INTRA:                  -0.786
REMARK CONF_INDEPENDENT:        1.193
REMARK UNBOUND:                -0.786
REMARK  4 active torsions:
REMARK  status: ('A' for Active; 'I' for Inactive)
REMARK    1  A    between atoms: C_5  and  C_6 
REMARK       I    between atoms: C_6  and  N_7 
REMARK    2  A    between atoms: C_10  and  N_11 
REMARK       I    between atoms: N_11  and  C_12 
REMARK    3  A    between atoms: C_12  and  C_14 
REMARK    4  A    between atoms: C_17  and  C_18 
ROOT
ATOM      1  N   UNL d   1      25.531 -16.326  -3.058  0.00  0.00    -0.322 N 
ATOM      2  C   UNL d   1      25.641 -14.957  -3.271  0.00  0.00     0.256 C 
ATOM      3  O   UNL d   1      25.111 -14.436  -4.250  0.00  0.00    -0.267 OA
ATOM      4  H   UNL d   1      25.529 -16.867  -3.918  0.00  0.00     0.169 HD
ENDROOT
BRANCH   1   5
ATOM      5  C   UNL d   1      25.120 -17.010  -1.874  0.00  0.00     0.042 C 
ATOM      6  C   UNL d   1      23.735 -17.279  -1.715  0.00  0.00     0.047 C 
ATOM      7  C   UNL d   1      23.265 -18.056  -0.630  0.00  0.00     0.034 C 
ATOM      8  C   UNL d   1      24.187 -18.577   0.274  0.00  0.00     0.017 C 
ATOM      9  C   UNL d   1      25.533 -18.282   0.150  0.00  0.00     0.010 C 
ATOM     10  C   UNL d   1      26.007 -17.440  -0.860  0.00  0.00    -0.035 C 
ATOM     11  C   UNL d   1      27.457 -17.077  -0.725  0.00  0.00     0.050 C 
BRANCH   7  12
ATOM     12  C   UNL d   1      21.800 -18.330  -0.465  0.00  0.00     0.249 C 
ATOM     13  N   UNL d   1      21.428 -19.478   0.201  0.00  0.00    -0.366 N 
ATOM     14  H   UNL d   1      22.051 -20.161   0.599  0.00  0.00     0.159 HD
ATOM     15  H   UNL d   1      20.438 -19.652   0.315  0.00  0.00     0.159 HD
ATOM     16  O   UNL d   1      20.954 -17.572  -0.897  0.00  0.00    -0.268 OA
ENDBRANCH   7  12
ENDBRANCH   1   5
BRANCH   2  17
ATOM     17  C   UNL d   1      26.442 -14.108  -2.311  0.00  0.00     0.032 C 
ATOM     18  C   UNL d   1      27.119 -12.976  -2.809  0.00  0.00     0.018 C 
ATOM     19  C   UNL d   1      27.584 -11.986  -1.926  0.00  0.00     0.017 C 
ATOM     20  C   UNL d   1      27.347 -12.091  -0.544  0.00  0.00     0.048 C 
ATOM     21  C   UNL d   1      26.653 -13.206  -0.058  0.00  0.00     0.017 C 
ATOM     22  C   UNL d   1      26.281 -14.245  -0.919  0.00  0.00     0.018 C 
BRANCH  20  23
ATOM     23  C   UNL d   1      27.867 -11.051   0.418  0.00  0.00     0.417 C 
ATOM     24  F   UNL d   1      27.524 -11.350   1.700  0.00  0.00    -0.166 F 
ATOM     25  F   UNL d   1      29.221 -10.924   0.405  0.00  0.00    -0.166 F 
ATOM     26  F   UNL d   1      27.374  -9.802   0.181  0.00  0.00    -0.166 F 
ENDBRANCH  20  23
ENDBRANCH   2  17
TORSDOF 4
ENDMDL
MODEL 5
REMARK VINA RESULT:    -7.186      4.635      7.098
REMARK INTER + INTRA:          -9.189
REMARK INTER:                  -8.379
REMARK INTRA:                  -0.809
REMARK CONF_INDEPENDENT:        1.193
REMARK UNBOUND:                -0.809
REMARK  4 active torsions:
REMARK  status: ('A' for Active; 'I' for Inactive)
REMARK    1  A    between atoms: C_5  and  C_6 
REMARK       I    between atoms: C_6  and  N_7 
REMARK    2  A    between atoms: C_10  and  N_11 
REMARK       I    between atoms: N_11  and  C_12 
REMARK    3  A    between atoms: C_12  and  C_14 
REMARK    4  A    between atoms: C_17  and  C_18 
ROOT
ATOM      1  N   UNL d   1      24.898 -14.838  -2.063  0.00  0.00    -0.322 N 
ATOM      2  C   UNL d   1      26.010 -14.219  -2.622  0.00  0.00     0.256 C 
ATOM      3  O   UNL d   1      26.216 -13.022  -2.427  0.00  0.00    -0.267 OA
ATOM      4  H   UNL d   1      24.082 -14.235  -2.020  0.00  0.00     0.169 HD
ENDROOT
BRANCH   1   5
ATOM      5  C   UNL d   1      24.846 -16.039  -1.292  0.00  0.00     0.042 C 
ATOM      6  C   UNL d   1      23.693 -16.856  -1.423  0.00  0.00     0.047 C 
ATOM      7  C   UNL d   1      23.619 -18.117  -0.785  0.00  0.00     0.034 C 
ATOM      8  C   UNL d   1      24.710 -18.560  -0.041  0.00  0.00     0.017 C 
ATOM      9  C   UNL d   1      25.818 -17.749   0.127  0.00  0.00     0.010 C 
ATOM     10  C   UNL d   1      25.872 -16.463  -0.416  0.00  0.00    -0.035 C 
ATOM     11  C   UNL d   1      27.060 -15.659   0.028  0.00  0.00     0.050 C 
BRANCH   7  12
ATOM     12  C   UNL d   1      22.394 -18.973  -0.922  0.00  0.00     0.249 C 
ATOM     13  N   UNL d   1      21.741 -19.355   0.230  0.00  0.00    -0.366 N 
ATOM     14  H   UNL d   1      22.004 -19.109   1.170  0.00  0.00     0.159 HD
ATOM     15  H   UNL d   1      20.912 -19.925   0.128  0.00  0.00     0.159 HD
ATOM     16  O   UNL d   1      21.977 -19.325  -2.008  0.00  0.00    -0.268 OA
ENDBRANCH   7  12
ENDBRANCH   1   5
BRANCH   2  17
ATOM     17  C   UNL d   1      26.954 -15.010  -3.496  0.00  0.00     0.032 C 
ATOM     18  C   UNL d   1      26.981 -14.745  -4.880  0.00  0.00     0.018 C 
ATOM     19  C   UNL d   1      28.055 -15.200  -5.666  0.00  0.00     0.017 C 
ATOM     20  C   UNL d   1      29.131 -15.887  -5.078  0.00  0.00     0.048 C 
ATOM     21  C   UNL d   1      29.110 -16.126  -3.698  0.00  0.00     0.017 C 
ATOM     22  C   UNL d   1      27.997 -15.770  -2.930  0.00  0.00     0.018 C 
BRANCH  20  23
ATOM     23  C   UNL d   1      30.274 -16.407  -5.914  0.00  0.00     0.417 C 
ATOM     24  F   UNL d   1      31.403 -16.554  -5.169  0.00  0.00    -0.166 F 
ATOM     25  F   UNL d   1      30.030 -17.619  -6.480  0.00  0.00    -0.166 F 
ATOM     26  F   UNL d   1      30.612 -15.577  -6.942  0.00  0.00    -0.166 F 
ENDBRANCH  20  23
ENDBRANCH   2  17
TORSDOF 4
ENDMDL
MODEL 6
REMARK VINA RESULT:    -7.060      1.985      2.422
REMARK INTER + INTRA:          -9.153
REMARK INTER:                  -8.253
REMARK INTRA:                  -0.900
REMARK CONF_INDEPENDENT:        1.193
REMARK UNBOUND:                -0.900
REMARK  4 active torsions:
REMARK  status: ('A' for Active; 'I' for Inactive)
REMARK    1  A    between atoms: C_5  and  C_6 
REMARK       I    between atoms: C_6  and  N_7 
REMARK    2  A    between atoms: C_10  and  N_11 
REMARK       I    between atoms: N_11  and  C_12 
REMARK    3  A    between atoms: C_12  and  C_14 
REMARK    4  A    between atoms: C_17  and  C_18 
ROOT
ATOM      1  N   UNL d   1      29.092 -15.781  -1.256  0.00  0.00    -0.322 N 
ATOM      2  C   UNL d   1      27.865 -15.363  -0.753  0.00  0.00     0.256 C 
ATOM      3  O   UNL d   1      27.765 -14.279  -0.182  0.00  0.00    -0.267 OA
ATOM      4  H   UNL d   1      29.879 -15.493  -0.683  0.00  0.00     0.169 HD
ENDROOT
BRANCH   1   5
ATOM      5  C   UNL d   1      29.397 -16.261  -2.566  0.00  0.00     0.042 C 
ATOM      6  C   UNL d   1      28.817 -15.580  -3.668  0.00  0.00     0.047 C 
ATOM      7  C   UNL d   1      29.165 -15.919  -4.997  0.00  0.00     0.034 C 
ATOM      8  C   UNL d   1      30.109 -16.920  -5.211  0.00  0.00     0.017 C 
ATOM      9  C   UNL d   1      30.644 -17.617  -4.143  0.00  0.00     0.010 C 
ATOM     10  C   UNL d   1      30.244 -17.362  -2.828  0.00  0.00    -0.035 C 
ATOM     11  C   UNL d   1      30.780 -18.340  -1.823  0.00  0.00     0.050 C 
BRANCH   7  12
ATOM     12  C   UNL d   1      28.543 -15.200  -6.157  0.00  0.00     0.249 C 
ATOM     13  N   UNL d   1      29.334 -14.941  -7.256  0.00  0.00    -0.366 N 
ATOM     14  H   UNL d   1      30.302 -15.194  -7.363  0.00  0.00     0.159 HD
ATOM     15  H   UNL d   1      28.904 -14.462  -8.037  0.00  0.00     0.159 HD
ATOM     16  O   UNL d   1      27.379 -14.852  -6.145  0.00  0.00    -0.268 OA
ENDBRANCH   7  12
ENDBRANCH   1   5
BRANCH   2  17
ATOM     17  C   UNL d   1      26.654 -16.257  -0.881  0.00  0.00     0.032 C 
ATOM     18  C   UNL d   1      26.451 -17.268   0.081  0.00  0.00     0.018 C 
ATOM     19  C   UNL d   1      25.195 -17.888   0.201  0.00  0.00     0.017 C 
ATOM     20  C   UNL d   1      24.117 -17.484  -0.606  0.00  0.00     0.048 C 
ATOM     21  C   UNL d   1      24.319 -16.463  -1.543  0.00  0.00     0.017 C 
ATOM     22  C   UNL d   1      25.591 -15.916  -1.740  0.00  0.00     0.018 C 
BRANCH  20  23
ATOM     23  C   UNL d   1      22.773 -18.161  -0.510  0.00  0.00     0.417 C 
ATOM     24  F   UNL d   1      22.720 -19.267  -1.300  0.00  0.00    -0.166 F 
ATOM     25  F   UNL d   1      22.459 -18.575   0.747  0.00  0.00    -0.166 F 
ATOM     26  F   UNL d   1      21.739 -17.368  -0.910  0.00  0.00    -0.166 F 
ENDBRANCH  20  23
ENDBRANCH   2  17
TORSDOF 4
ENDMDL
MODEL 7
REMARK VINA RESULT:    -6.913      1.866      2.636
REMARK INTER + INTRA:          -8.938
REMARK INTER:                  -8.107
REMARK INTRA:                  -0.831
REMARK CONF_INDEPENDENT:        1.193
REMARK UNBOUND:                -0.831
REMARK  4 active torsions:
REMARK  status: ('A' for Active; 'I' for Inactive)
REMARK    1  A    between atoms: C_5  and  C_6 
REMARK       I    between atoms: C_6  and  N_7 
REMARK    2  A    between atoms: C_10  and  N_11 
REMARK       I    between atoms: N_11  and  C_12 
REMARK    3  A    between atoms: C_12  and  C_14 
REMARK    4  A    between atoms: C_17  and  C_18 
ROOT
ATOM      1  N   UNL d   1      28.291 -15.705  -1.447  0.00  0.00    -0.322 N 
ATOM      2  C   UNL d   1      27.510 -16.111  -0.371  0.00  0.00     0.256 C 
ATOM      3  O   UNL d   1      27.860 -15.856   0.780  0.00  0.00    -0.267 OA
ATOM      4  H   UNL d   1      29.288 -15.739  -1.254  0.00  0.00     0.169 HD
ENDROOT
BRANCH   1   5
ATOM      5  C   UNL d   1      27.890 -14.984  -2.612  0.00  0.00     0.042 C 
ATOM      6  C   UNL d   1      28.516 -15.317  -3.841  0.00  0.00     0.047 C 
ATOM      7  C   UNL d   1      28.089 -14.733  -5.057  0.00  0.00     0.034 C 
ATOM      8  C   UNL d   1      27.023 -13.838  -5.036  0.00  0.00     0.017 C 
ATOM      9  C   UNL d   1      26.437 -13.475  -3.836  0.00  0.00     0.010 C 
ATOM     10  C   UNL d   1      26.905 -13.969  -2.615  0.00  0.00    -0.035 C 
ATOM     11  C   UNL d   1      26.282 -13.322  -1.412  0.00  0.00     0.050 C 
BRANCH   7  12
ATOM     12  C   UNL d   1      28.761 -15.084  -6.351  0.00  0.00     0.249 C 
ATOM     13  N   UNL d   1      28.622 -14.211  -7.409  0.00  0.00    -0.366 N 
ATOM     14  H   UNL d   1      28.112 -13.343  -7.399  0.00  0.00     0.159 HD
ATOM     15  H   UNL d   1      29.085 -14.451  -8.276  0.00  0.00     0.159 HD
ATOM     16  O   UNL d   1      29.412 -16.102  -6.479  0.00  0.00    -0.268 OA
ENDBRANCH   7  12
ENDBRANCH   1   5
BRANCH   2  17
ATOM     17  C   UNL d   1      26.241 -16.894  -0.613  0.00  0.00     0.032 C 
ATOM     18  C   UNL d   1      25.816 -17.818   0.363  0.00  0.00     0.018 C 
ATOM     19  C   UNL d   1      24.499 -18.310   0.346  0.00  0.00     0.017 C 
ATOM     20  C   UNL d   1      23.579 -17.858  -0.617  0.00  0.00     0.048 C 
ATOM     21  C   UNL d   1      24.001 -16.921  -1.569  0.00  0.00     0.017 C 
ATOM     22  C   UNL d   1      25.337 -16.510  -1.622  0.00  0.00     0.018 C 
BRANCH  20  23
ATOM     23  C   UNL d   1      22.172 -18.399  -0.666  0.00  0.00     0.417 C 
ATOM     24  F   UNL d   1      21.270 -17.408  -0.895  0.00  0.00    -0.166 F 
ATOM     25  F   UNL d   1      21.977 -19.326  -1.642  0.00  0.00    -0.166 F 
ATOM     26  F   UNL d   1      21.783 -18.996   0.497  0.00  0.00    -0.166 F 
ENDBRANCH  20  23
ENDBRANCH   2  17
TORSDOF 4
ENDMDL
MODEL 8
REMARK VINA RESULT:    -6.789      4.754      6.624
REMARK INTER + INTRA:          -8.978
REMARK INTER:                  -7.983
REMARK INTRA:                  -0.996
REMARK CONF_INDEPENDENT:        1.193
REMARK UNBOUND:                -0.996
REMARK  4 active torsions:
REMARK  status: ('A' for Active; 'I' for Inactive)
REMARK    1  A    between atoms: C_5  and  C_6 
REMARK       I    between atoms: C_6  and  N_7 
REMARK    2  A    between atoms: C_10  and  N_11 
REMARK       I    between atoms: N_11  and  C_12 
REMARK    3  A    between atoms: C_12  and  C_14 
REMARK    4  A    between atoms: C_17  and  C_18 
ROOT
ATOM      1  N   UNL d   1      26.198 -15.241  -1.706  0.00  0.00    -0.322 N 
ATOM      2  C   UNL d   1      26.335 -13.952  -1.203  0.00  0.00     0.256 C 
ATOM      3  O   UNL d   1      25.915 -12.990  -1.842  0.00  0.00    -0.267 OA
ATOM      4  H   UNL d   1      26.287 -15.289  -2.717  0.00  0.00     0.169 HD
ENDROOT
BRANCH   1   5
ATOM      5  C   UNL d   1      25.659 -16.394  -1.058  0.00  0.00     0.042 C 
ATOM      6  C   UNL d   1      24.248 -16.548  -1.055  0.00  0.00     0.047 C 
ATOM      7  C   UNL d   1      23.646 -17.720  -0.539  0.00  0.00     0.034 C 
ATOM      8  C   UNL d   1      24.462 -18.739  -0.053  0.00  0.00     0.017 C 
ATOM      9  C   UNL d   1      25.835 -18.576  -0.013  0.00  0.00     0.010 C 
ATOM     10  C   UNL d   1      26.443 -17.388  -0.430  0.00  0.00    -0.035 C 
ATOM     11  C   UNL d   1      27.914 -17.316  -0.135  0.00  0.00     0.050 C 
BRANCH   7  12
ATOM     12  C   UNL d   1      22.154 -17.874  -0.532  0.00  0.00     0.249 C 
ATOM     13  N   UNL d   1      21.630 -19.072  -0.096  0.00  0.00    -0.366 N 
ATOM     14  H   UNL d   1      22.155 -19.866   0.229  0.00  0.00     0.159 HD
ATOM     15  H   UNL d   1      20.622 -19.164  -0.088  0.00  0.00     0.159 HD
ATOM     16  O   UNL d   1      21.416 -16.979  -0.895  0.00  0.00    -0.268 OA
ENDBRANCH   7  12
ENDBRANCH   1   5
BRANCH   2  17
ATOM     17  C   UNL d   1      27.030 -13.730   0.119  0.00  0.00     0.032 C 
ATOM     18  C   UNL d   1      26.280 -13.231   1.205  0.00  0.00     0.018 C 
ATOM     19  C   UNL d   1      26.783 -13.327   2.514  0.00  0.00     0.017 C 
ATOM     20  C   UNL d   1      28.017 -13.954   2.763  0.00  0.00     0.048 C 
ATOM     21  C   UNL d   1      28.745 -14.468   1.683  0.00  0.00     0.017 C 
ATOM     22  C   UNL d   1      28.301 -14.282   0.370  0.00  0.00     0.018 C 
BRANCH  20  23
ATOM     23  C   UNL d   1      28.583 -14.036   4.159  0.00  0.00     0.417 C 
ATOM     24  F   UNL d   1      29.941 -14.107   4.137  0.00  0.00    -0.166 F 
ATOM     25  F   UNL d   1      28.269 -12.967   4.939  0.00  0.00    -0.166 F 
ATOM     26  F   UNL d   1      28.162 -15.135   4.847  0.00  0.00    -0.166 F 
ENDBRANCH  20  23
ENDBRANCH   2  17
TORSDOF 4
ENDMDL
MODEL 9
REMARK VINA RESULT:    -6.705      2.119      2.663
REMARK INTER + INTRA:          -8.816
REMARK INTER:                  -7.898
REMARK INTRA:                  -0.918
REMARK CONF_INDEPENDENT:        1.193
REMARK UNBOUND:                -0.918
REMARK  4 active torsions:
REMARK  status: ('A' for Active; 'I' for Inactive)
REMARK    1  A    between atoms: C_5  and  C_6 
REMARK       I    between atoms: C_6  and  N_7 
REMARK    2  A    between atoms: C_10  and  N_11 
REMARK       I    between atoms: N_11  and  C_12 
REMARK    3  A    between atoms: C_12  and  C_14 
REMARK    4  A    between atoms: C_17  and  C_18 
ROOT
ATOM      1  N   UNL d   1      27.622 -14.494  -1.986  0.00  0.00    -0.322 N 
ATOM      2  C   UNL d   1      27.176 -15.191  -0.870  0.00  0.00     0.256 C 
ATOM      3  O   UNL d   1      27.744 -15.058   0.212  0.00  0.00    -0.267 OA
ATOM      4  H   UNL d   1      28.632 -14.381  -2.011  0.00  0.00     0.169 HD
ENDROOT
BRANCH   1   5
ATOM      5  C   UNL d   1      26.867 -13.685  -2.888  0.00  0.00     0.042 C 
ATOM      6  C   UNL d   1      26.636 -12.333  -2.524  0.00  0.00     0.047 C 
ATOM      7  C   UNL d   1      26.001 -11.437  -3.417  0.00  0.00     0.034 C 
ATOM      8  C   UNL d   1      25.624 -11.897  -4.676  0.00  0.00     0.017 C 
ATOM      9  C   UNL d   1      25.806 -13.224  -5.020  0.00  0.00     0.010 C 
ATOM     10  C   UNL d   1      26.345 -14.146  -4.119  0.00  0.00    -0.035 C 
ATOM     11  C   UNL d   1      26.289 -15.570  -4.591  0.00  0.00     0.050 C 
BRANCH   7  12
ATOM     12  C   UNL d   1      25.754 -10.011  -3.022  0.00  0.00     0.249 C 
ATOM     13  N   UNL d   1      24.798  -9.305  -3.720  0.00  0.00    -0.366 N 
ATOM     14  H   UNL d   1      24.235  -9.656  -4.477  0.00  0.00     0.159 HD
ATOM     15  H   UNL d   1      24.632  -8.346  -3.443  0.00  0.00     0.159 HD
ATOM     16  O   UNL d   1      26.367  -9.482  -2.117  0.00  0.00    -0.268 OA
ENDBRANCH   7  12
ENDBRANCH   1   5
BRANCH   2  17
ATOM     17  C   UNL d   1      26.006 -16.139  -0.991  0.00  0.00     0.032 C 
ATOM     18  C   UNL d   1      26.052 -17.368  -0.301  0.00  0.00     0.018 C 
ATOM     19  C   UNL d   1      24.878 -18.116  -0.110  0.00  0.00     0.017 C 
ATOM     20  C   UNL d   1      23.639 -17.632  -0.566  0.00  0.00     0.048 C 
ATOM     21  C   UNL d   1      23.595 -16.400  -1.230  0.00  0.00     0.017 C 
ATOM     22  C   UNL d   1      24.774 -15.702  -1.516  0.00  0.00     0.018 C 
BRANCH  20  23
ATOM     23  C   UNL d   1      22.375 -18.439  -0.394  0.00  0.00     0.417 C 
ATOM     24  F   UNL d   1      22.525 -19.700  -0.881  0.00  0.00    -0.166 F 
ATOM     25  F   UNL d   1      21.985 -18.574   0.901  0.00  0.00    -0.166 F 
ATOM     26  F   UNL d   1      21.305 -17.910  -1.053  0.00  0.00    -0.166 F 
ENDBRANCH  20  23
ENDBRANCH   2  17
TORSDOF 4
ENDMDL
