MODEL 1
REMARK VINA RESULT:    -8.401      0.000      0.000
REMARK INTER + INTRA:         -11.440
REMARK INTER:                  -9.594
REMARK INTRA:                  -1.846
REMARK CONF_INDEPENDENT:        1.193
REMARK UNBOUND:                -1.846
REMARK  4 active torsions:
REMARK  status: ('A' for Active; 'I' for Inactive)
REMARK    1  A    between atoms: C_5  and  C_6 
REMARK       I    between atoms: C_6  and  N_8 
REMARK    2  A    between atoms: N_8  and  N_9 
REMARK       I    between atoms: N_9  and  C_10 
REMARK    3  A    between atoms: C_10  and  C_12 
REMARK    4  A    between atoms: C_18  and  O_19 
ROOT
ATOM      1  C   UNL d   1      24.731 -17.752  -0.601  0.00  0.00     0.272 C 
ATOM      2  O   UNL d   1      25.287 -18.383   0.305  0.00  0.00    -0.266 OA
ATOM      3  N   UNL d   1      23.380 -17.917  -0.895  0.00  0.00    -0.263 N 
ATOM      4  H   UNL d   1      22.877 -17.427  -1.631  0.00  0.00     0.190 HD
ENDROOT
BRANCH   3   5
ATOM      5  N   UNL d   1      22.582 -18.803  -0.126  0.00  0.00    -0.267 N 
ATOM      6  C   UNL d   1      21.229 -18.926  -0.426  0.00  0.00     0.240 C 
ATOM      7  O   UNL d   1      20.695 -18.200  -1.268  0.00  0.00    -0.271 OA
ATOM      8  H   UNL d   1      23.082 -19.382   0.545  0.00  0.00     0.190 HD
BRANCH   6   9
ATOM      9  C   UNL d   1      20.430 -19.957   0.411  0.00  0.00     0.079 C 
ATOM     10  C   UNL d   1      20.280 -19.511   1.887  0.00  0.00     0.014 C 
ATOM     11  C   UNL d   1      19.394 -20.450   2.717  0.00  0.00     0.001 C 
ATOM     12  C   UNL d   1      18.030 -20.655   2.071  0.00  0.00     0.000 C 
ATOM     13  C   UNL d   1      18.189 -21.156   0.644  0.00  0.00     0.001 C 
ATOM     14  C   UNL d   1      19.042 -20.209  -0.193  0.00  0.00     0.014 C 
ENDBRANCH   6   9
ENDBRANCH   3   5
BRANCH   1  15
ATOM     15  C   UNL d   1      25.538 -16.768  -1.410  0.00  0.00     0.066 A 
ATOM     16  C   UNL d   1      24.931 -15.857  -2.290  0.00  0.00     0.020 A 
ATOM     17  C   UNL d   1      25.695 -14.930  -3.022  0.00  0.00     0.008 A 
ATOM     18  C   UNL d   1      27.085 -14.882  -2.887  0.00  0.00    -0.059 A 
ATOM     19  C   UNL d   1      27.925 -13.887  -3.637  0.00  0.00     0.048 C 
ATOM     20  C   UNL d   1      27.701 -15.790  -2.022  0.00  0.00     0.044 A 
ATOM     21  C   UNL d   1      26.943 -16.722  -1.302  0.00  0.00     0.082 A 
BRANCH  21  22
ATOM     22  O   UNL d   1      27.680 -17.562  -0.504  0.00  0.00    -0.360 OA
ATOM     23  H   UNL d   1      27.151 -17.768   0.296  0.00  0.00     0.217 HD
ENDBRANCH  21  22
ENDBRANCH   1  15
TORSDOF 4
ENDMDL
MODEL 2
REMARK VINA RESULT:    -8.267      0.922      1.518
REMARK INTER + INTRA:         -11.311
REMARK INTER:                  -9.460
REMARK INTRA:                  -1.850
REMARK CONF_INDEPENDENT:        1.193
REMARK UNBOUND:                -1.850
REMARK  4 active torsions:
REMARK  status: ('A' for Active; 'I' for Inactive)
REMARK    1  A    between atoms: C_5  and  C_6 
REMARK       I    between atoms: C_6  and  N_8 
REMARK    2  A    between atoms: N_8  and  N_9 
REMARK       I    between atoms: N_9  and  C_10 
REMARK    3  A    between atoms: C_10  and  C_12 
REMARK    4  A    between atoms: C_18  and  O_19 
ROOT
ATOM      1  C   UNL d   1      24.772 -17.710  -0.440  0.00  0.00     0.272 C 
ATOM      2  O   UNL d   1      25.268 -18.269   0.545  0.00  0.00    -0.266 OA
ATOM      3  N   UNL d   1      23.459 -17.946  -0.840  0.00  0.00    -0.263 N 
ATOM      4  H   UNL d   1      23.006 -17.518  -1.644  0.00  0.00     0.190 HD
ENDROOT
BRANCH   3   5
ATOM      5  N   UNL d   1      22.629 -18.822  -0.094  0.00  0.00    -0.267 N 
ATOM      6  C   UNL d   1      21.281 -18.917  -0.422  0.00  0.00     0.240 C 
ATOM      7  O   UNL d   1      20.778 -18.176  -1.270  0.00  0.00    -0.271 OA
ATOM      8  H   UNL d   1      23.104 -19.415   0.583  0.00  0.00     0.190 HD
BRANCH   6   9
ATOM      9  C   UNL d   1      20.445 -19.938   0.390  0.00  0.00     0.079 C 
ATOM     10  C   UNL d   1      20.313 -19.524   1.877  0.00  0.00     0.014 C 
ATOM     11  C   UNL d   1      19.394 -20.450   2.685  0.00  0.00     0.001 C 
ATOM     12  C   UNL d   1      18.022 -20.589   2.036  0.00  0.00     0.000 C 
ATOM     13  C   UNL d   1      18.162 -21.061   0.598  0.00  0.00     0.001 C 
ATOM     14  C   UNL d   1      19.049 -20.126  -0.218  0.00  0.00     0.014 C 
ENDBRANCH   6   9
ENDBRANCH   3   5
BRANCH   1  15
ATOM     15  C   UNL d   1      25.611 -16.738  -1.231  0.00  0.00     0.066 A 
ATOM     16  C   UNL d   1      27.012 -16.825  -1.266  0.00  0.00     0.020 A 
ATOM     17  C   UNL d   1      27.780 -15.923  -2.025  0.00  0.00     0.008 A 
ATOM     18  C   UNL d   1      27.168 -14.916  -2.777  0.00  0.00    -0.059 A 
ATOM     19  C   UNL d   1      27.961 -13.955  -3.615  0.00  0.00     0.048 C 
ATOM     20  C   UNL d   1      25.775 -14.813  -2.741  0.00  0.00     0.044 A 
ATOM     21  C   UNL d   1      25.009 -15.702  -1.976  0.00  0.00     0.082 A 
BRANCH  21  22
ATOM     22  O   UNL d   1      23.657 -15.474  -2.020  0.00  0.00    -0.360 OA
ATOM     23  H   UNL d   1      23.274 -15.724  -1.153  0.00  0.00     0.217 HD
ENDBRANCH  21  22
ENDBRANCH   1  15
TORSDOF 4
ENDMDL
MODEL 3
REMARK VINA RESULT:    -8.156      1.038      1.762
REMARK INTER + INTRA:         -10.487
REMARK INTER:                  -9.349
REMARK INTRA:                  -1.138
REMARK CONF_INDEPENDENT:        1.193
REMARK UNBOUND:                -1.138
REMARK  4 active torsions:
REMARK  status: ('A' for Active; 'I' for Inactive)
REMARK    1  A    between atoms: C_5  and  C_6 
REMARK       I    between atoms: C_6  and  N_8 
REMARK    2  A    between atoms: N_8  and  N_9 
REMARK       I    between atoms: N_9  and  C_10 
REMARK    3  A    between atoms: C_10  and  C_12 
REMARK    4  A    between atoms: C_18  and  O_19 
ROOT
ATOM      1  C   UNL d   1      23.638 -17.062  -0.643  0.00  0.00     0.272 C 
ATOM      2  O   UNL d   1      22.704 -16.286  -0.875  0.00  0.00    -0.266 OA
ATOM      3  N   UNL d   1      23.466 -18.218   0.114  0.00  0.00    -0.263 N 
ATOM      4  H   UNL d   1      24.200 -18.886   0.338  0.00  0.00     0.190 HD
ENDROOT
BRANCH   3   5
ATOM      5  N   UNL d   1      22.185 -18.562   0.618  0.00  0.00    -0.267 N 
ATOM      6  C   UNL d   1      21.200 -18.980  -0.270  0.00  0.00     0.240 C 
ATOM      7  O   UNL d   1      21.387 -18.951  -1.489  0.00  0.00    -0.271 OA
ATOM      8  H   UNL d   1      22.096 -18.578   1.631  0.00  0.00     0.190 HD
BRANCH   6   9
ATOM      9  C   UNL d   1      19.845 -19.400   0.353  0.00  0.00     0.079 C 
ATOM     10  C   UNL d   1      19.108 -20.447  -0.520  0.00  0.00     0.014 C 
ATOM     11  C   UNL d   1      17.817 -20.973   0.124  0.00  0.00     0.001 C 
ATOM     12  C   UNL d   1      18.068 -21.514   1.526  0.00  0.00     0.000 C 
ATOM     13  C   UNL d   1      18.731 -20.455   2.393  0.00  0.00     0.001 C 
ATOM     14  C   UNL d   1      20.030 -19.952   1.772  0.00  0.00     0.014 C 
ENDBRANCH   6   9
ENDBRANCH   3   5
BRANCH   1  15
ATOM     15  C   UNL d   1      25.004 -16.753  -1.201  0.00  0.00     0.066 A 
ATOM     16  C   UNL d   1      25.181 -15.889  -2.294  0.00  0.00     0.020 A 
ATOM     17  C   UNL d   1      26.463 -15.594  -2.791  0.00  0.00     0.008 A 
ATOM     18  C   UNL d   1      27.604 -16.145  -2.202  0.00  0.00    -0.059 A 
ATOM     19  C   UNL d   1      28.988 -15.829  -2.695  0.00  0.00     0.048 C 
ATOM     20  C   UNL d   1      27.441 -17.014  -1.121  0.00  0.00     0.044 A 
ATOM     21  C   UNL d   1      26.164 -17.320  -0.632  0.00  0.00     0.082 A 
BRANCH  21  22
ATOM     22  O   UNL d   1      26.151 -18.199   0.421  0.00  0.00    -0.360 OA
ATOM     23  H   UNL d   1      27.000 -18.691   0.422  0.00  0.00     0.217 HD
ENDBRANCH  21  22
ENDBRANCH   1  15
TORSDOF 4
ENDMDL
MODEL 4
REMARK VINA RESULT:    -8.145      1.337      8.313
REMARK INTER + INTRA:         -10.552
REMARK INTER:                  -9.338
REMARK INTRA:                  -1.214
REMARK CONF_INDEPENDENT:        1.193
REMARK UNBOUND:                -1.214
REMARK  4 active torsions:
REMARK  status: ('A' for Active; 'I' for Inactive)
REMARK    1  A    between atoms: C_5  and  C_6 
REMARK       I    between atoms: C_6  and  N_8 
REMARK    2  A    between atoms: N_8  and  N_9 
REMARK       I    between atoms: N_9  and  C_10 
REMARK    3  A    between atoms: C_10  and  C_12 
REMARK    4  A    between atoms: C_18  and  O_19 
ROOT
ATOM      1  C   UNL d   1      22.004 -18.112  -0.230  0.00  0.00     0.272 C 
ATOM      2  O   UNL d   1      21.705 -17.126  -0.914  0.00  0.00    -0.266 OA
ATOM      3  N   UNL d   1      23.321 -18.404   0.111  0.00  0.00    -0.263 N 
ATOM      4  H   UNL d   1      23.620 -19.203   0.666  0.00  0.00     0.190 HD
ENDROOT
BRANCH   3   5
ATOM      5  N   UNL d   1      24.373 -17.543  -0.293  0.00  0.00    -0.267 N 
ATOM      6  C   UNL d   1      25.648 -17.740   0.229  0.00  0.00     0.240 C 
ATOM      7  O   UNL d   1      25.849 -18.575   1.115  0.00  0.00    -0.271 OA
ATOM      8  H   UNL d   1      24.148 -16.883  -1.035  0.00  0.00     0.190 HD
BRANCH   6   9
ATOM      9  C   UNL d   1      26.763 -16.806  -0.302  0.00  0.00     0.079 C 
ATOM     10  C   UNL d   1      26.271 -15.933  -1.484  0.00  0.00     0.014 C 
ATOM     11  C   UNL d   1      27.313 -14.912  -1.959  0.00  0.00     0.001 C 
ATOM     12  C   UNL d   1      27.813 -14.041  -0.813  0.00  0.00     0.000 C 
ATOM     13  C   UNL d   1      28.355 -14.908   0.313  0.00  0.00     0.001 C 
ATOM     14  C   UNL d   1      27.312 -15.903   0.810  0.00  0.00     0.014 C 
ENDBRANCH   6   9
ENDBRANCH   3   5
BRANCH   1  15
ATOM     15  C   UNL d   1      20.906 -19.026   0.256  0.00  0.00     0.066 A 
ATOM     16  C   UNL d   1      20.660 -19.227   1.624  0.00  0.00     0.020 A 
ATOM     17  C   UNL d   1      19.620 -20.066   2.062  0.00  0.00     0.008 A 
ATOM     18  C   UNL d   1      18.789 -20.717   1.146  0.00  0.00    -0.059 A 
ATOM     19  C   UNL d   1      17.655 -21.599   1.585  0.00  0.00     0.048 C 
ATOM     20  C   UNL d   1      19.030 -20.533  -0.218  0.00  0.00     0.044 A 
ATOM     21  C   UNL d   1      20.075 -19.708  -0.657  0.00  0.00     0.082 A 
BRANCH  21  22
ATOM     22  O   UNL d   1      20.206 -19.632  -2.020  0.00  0.00    -0.360 OA
ATOM     23  H   UNL d   1      19.317 -19.488  -2.408  0.00  0.00     0.217 HD
ENDBRANCH  21  22
ENDBRANCH   1  15
TORSDOF 4
ENDMDL
MODEL 5
REMARK VINA RESULT:    -8.032      1.749      2.317
REMARK INTER + INTRA:         -10.356
REMARK INTER:                  -9.226
REMARK INTRA:                  -1.131
REMARK CONF_INDEPENDENT:        1.193
REMARK UNBOUND:                -1.131
REMARK  4 active torsions:
REMARK  status: ('A' for Active; 'I' for Inactive)
REMARK    1  A    between atoms: C_5  and  C_6 
REMARK       I    between atoms: C_6  and  N_8 
REMARK    2  A    between atoms: N_8  and  N_9 
REMARK       I    between atoms: N_9  and  C_10 
REMARK    3  A    between atoms: C_10  and  C_12 
REMARK    4  A    between atoms: C_18  and  O_19 
ROOT
ATOM      1  C   UNL d   1      23.602 -16.424  -1.039  0.00  0.00     0.272 C 
ATOM      2  O   UNL d   1      22.654 -15.664  -1.270  0.00  0.00    -0.266 OA
ATOM      3  N   UNL d   1      23.459 -17.569  -0.261  0.00  0.00    -0.263 N 
ATOM      4  H   UNL d   1      24.206 -18.223  -0.037  0.00  0.00     0.190 HD
ENDROOT
BRANCH   3   5
ATOM      5  N   UNL d   1      22.191 -17.921   0.270  0.00  0.00    -0.267 N 
ATOM      6  C   UNL d   1      21.416 -18.863  -0.399  0.00  0.00     0.240 C 
ATOM      7  O   UNL d   1      21.763 -19.309  -1.496  0.00  0.00    -0.271 OA
ATOM      8  H   UNL d   1      21.967 -17.529   1.182  0.00  0.00     0.190 HD
BRANCH   6   9
ATOM      9  C   UNL d   1      20.071 -19.247   0.267  0.00  0.00     0.079 C 
ATOM     10  C   UNL d   1      19.332 -20.357  -0.522  0.00  0.00     0.014 C 
ATOM     11  C   UNL d   1      18.054 -20.846   0.172  0.00  0.00     0.001 C 
ATOM     12  C   UNL d   1      18.324 -21.287   1.606  0.00  0.00     0.000 C 
ATOM     13  C   UNL d   1      18.989 -20.166   2.388  0.00  0.00     0.001 C 
ATOM     14  C   UNL d   1      20.277 -19.698   1.719  0.00  0.00     0.014 C 
ENDBRANCH   6   9
ENDBRANCH   3   5
BRANCH   1  15
ATOM     15  C   UNL d   1      24.955 -16.106  -1.625  0.00  0.00     0.066 A 
ATOM     16  C   UNL d   1      26.114 -16.797  -1.235  0.00  0.00     0.020 A 
ATOM     17  C   UNL d   1      27.365 -16.504  -1.806  0.00  0.00     0.008 A 
ATOM     18  C   UNL d   1      27.492 -15.519  -2.789  0.00  0.00    -0.059 A 
ATOM     19  C   UNL d   1      28.811 -15.200  -3.433  0.00  0.00     0.048 C 
ATOM     20  C   UNL d   1      26.348 -14.816  -3.177  0.00  0.00     0.044 A 
ATOM     21  C   UNL d   1      25.102 -15.098  -2.601  0.00  0.00     0.082 A 
BRANCH  21  22
ATOM     22  O   UNL d   1      24.071 -14.321  -3.064  0.00  0.00    -0.360 OA
ATOM     23  H   UNL d   1      23.284 -14.895  -3.186  0.00  0.00     0.217 HD
ENDBRANCH  21  22
ENDBRANCH   1  15
TORSDOF 4
ENDMDL
MODEL 6
REMARK VINA RESULT:    -7.842      1.246      8.325
REMARK INTER + INTRA:         -10.919
REMARK INTER:                  -9.035
REMARK INTRA:                  -1.884
REMARK CONF_INDEPENDENT:        1.193
REMARK UNBOUND:                -1.884
REMARK  4 active torsions:
REMARK  status: ('A' for Active; 'I' for Inactive)
REMARK    1  A    between atoms: C_5  and  C_6 
REMARK       I    between atoms: C_6  and  N_8 
REMARK    2  A    between atoms: N_8  and  N_9 
REMARK       I    between atoms: N_9  and  C_10 
REMARK    3  A    between atoms: C_10  and  C_12 
REMARK    4  A    between atoms: C_18  and  O_19 
ROOT
ATOM      1  C   UNL d   1      21.940 -18.237  -0.313  0.00  0.00     0.272 C 
ATOM      2  O   UNL d   1      21.680 -17.437  -1.219  0.00  0.00    -0.266 OA
ATOM      3  N   UNL d   1      23.218 -18.350   0.228  0.00  0.00    -0.263 N 
ATOM      4  H   UNL d   1      23.486 -18.993   0.970  0.00  0.00     0.190 HD
ENDROOT
BRANCH   3   5
ATOM      5  N   UNL d   1      24.267 -17.511  -0.229  0.00  0.00    -0.267 N 
ATOM      6  C   UNL d   1      25.561 -17.736   0.229  0.00  0.00     0.240 C 
ATOM      7  O   UNL d   1      25.789 -18.575   1.104  0.00  0.00    -0.271 OA
ATOM      8  H   UNL d   1      24.018 -16.847  -0.959  0.00  0.00     0.190 HD
BRANCH   6   9
ATOM      9  C   UNL d   1      26.668 -16.825  -0.359  0.00  0.00     0.079 C 
ATOM     10  C   UNL d   1      28.054 -17.517  -0.342  0.00  0.00     0.014 C 
ATOM     11  C   UNL d   1      29.153 -16.690  -1.024  0.00  0.00     0.001 C 
ATOM     12  C   UNL d   1      28.761 -16.293  -2.442  0.00  0.00     0.000 C 
ATOM     13  C   UNL d   1      27.431 -15.556  -2.438  0.00  0.00     0.001 C 
ATOM     14  C   UNL d   1      26.329 -16.387  -1.789  0.00  0.00     0.014 C 
ENDBRANCH   6   9
ENDBRANCH   3   5
BRANCH   1  15
ATOM     15  C   UNL d   1      20.839 -19.113   0.230  0.00  0.00     0.066 A 
ATOM     16  C   UNL d   1      20.655 -19.304   1.609  0.00  0.00     0.020 A 
ATOM     17  C   UNL d   1      19.610 -20.107   2.101  0.00  0.00     0.008 A 
ATOM     18  C   UNL d   1      18.716 -20.733   1.230  0.00  0.00    -0.059 A 
ATOM     19  C   UNL d   1      17.576 -21.576   1.727  0.00  0.00     0.048 C 
ATOM     20  C   UNL d   1      18.895 -20.559  -0.145  0.00  0.00     0.044 A 
ATOM     21  C   UNL d   1      19.942 -19.769  -0.638  0.00  0.00     0.082 A 
BRANCH  21  22
ATOM     22  O   UNL d   1      20.009 -19.700  -2.006  0.00  0.00    -0.360 OA
ATOM     23  H   UNL d   1      20.429 -18.848  -2.251  0.00  0.00     0.217 HD
ENDBRANCH  21  22
ENDBRANCH   1  15
TORSDOF 4
ENDMDL
MODEL 7
REMARK VINA RESULT:    -7.061      1.366      8.223
REMARK INTER + INTRA:          -9.534
REMARK INTER:                  -8.254
REMARK INTRA:                  -1.279
REMARK CONF_INDEPENDENT:        1.193
REMARK UNBOUND:                -1.279
REMARK  4 active torsions:
REMARK  status: ('A' for Active; 'I' for Inactive)
REMARK    1  A    between atoms: C_5  and  C_6 
REMARK       I    between atoms: C_6  and  N_8 
REMARK    2  A    between atoms: N_8  and  N_9 
REMARK       I    between atoms: N_9  and  C_10 
REMARK    3  A    between atoms: C_10  and  C_12 
REMARK    4  A    between atoms: C_18  and  O_19 
ROOT
ATOM      1  C   UNL d   1      21.529 -18.165  -0.613  0.00  0.00     0.272 C 
ATOM      2  O   UNL d   1      21.237 -17.159  -1.270  0.00  0.00    -0.266 OA
ATOM      3  N   UNL d   1      22.847 -18.492  -0.307  0.00  0.00    -0.263 N 
ATOM      4  H   UNL d   1      23.139 -19.309   0.225  0.00  0.00     0.190 HD
ENDROOT
BRANCH   3   5
ATOM      5  N   UNL d   1      23.909 -17.646  -0.717  0.00  0.00    -0.267 N 
ATOM      6  C   UNL d   1      25.160 -17.798  -0.128  0.00  0.00     0.240 C 
ATOM      7  O   UNL d   1      25.329 -18.575   0.815  0.00  0.00    -0.271 OA
ATOM      8  H   UNL d   1      23.711 -17.035  -1.507  0.00  0.00     0.190 HD
BRANCH   6   9
ATOM      9  C   UNL d   1      26.290 -16.886  -0.667  0.00  0.00     0.079 C 
ATOM     10  C   UNL d   1      25.728 -15.649  -1.413  0.00  0.00     0.014 C 
ATOM     11  C   UNL d   1      26.816 -14.663  -1.858  0.00  0.00     0.001 C 
ATOM     12  C   UNL d   1      27.702 -14.238  -0.693  0.00  0.00     0.000 C 
ATOM     13  C   UNL d   1      28.301 -15.458  -0.011  0.00  0.00     0.001 C 
ATOM     14  C   UNL d   1      27.222 -16.426   0.461  0.00  0.00     0.014 C 
ENDBRANCH   6   9
ENDBRANCH   3   5
BRANCH   1  15
ATOM     15  C   UNL d   1      20.422 -19.064  -0.121  0.00  0.00     0.066 A 
ATOM     16  C   UNL d   1      19.456 -19.597  -0.990  0.00  0.00     0.020 A 
ATOM     17  C   UNL d   1      18.442 -20.451  -0.520  0.00  0.00     0.008 A 
ATOM     18  C   UNL d   1      18.372 -20.804   0.830  0.00  0.00    -0.059 A 
ATOM     19  C   UNL d   1      17.315 -21.732   1.357  0.00  0.00     0.048 C 
ATOM     20  C   UNL d   1      19.320 -20.271   1.707  0.00  0.00     0.044 A 
ATOM     21  C   UNL d   1      20.323 -19.411   1.243  0.00  0.00     0.082 A 
BRANCH  21  22
ATOM     22  O   UNL d   1      21.175 -18.951   2.215  0.00  0.00    -0.360 OA
ATOM     23  H   UNL d   1      21.096 -19.538   2.997  0.00  0.00     0.217 HD
ENDBRANCH  21  22
ENDBRANCH   1  15
TORSDOF 4
ENDMDL
MODEL 8
REMARK VINA RESULT:    -6.456      5.472      7.998
REMARK INTER + INTRA:          -9.494
REMARK INTER:                  -7.649
REMARK INTRA:                  -1.845
REMARK CONF_INDEPENDENT:        1.193
REMARK UNBOUND:                -1.845
REMARK  4 active torsions:
REMARK  status: ('A' for Active; 'I' for Inactive)
REMARK    1  A    between atoms: C_5  and  C_6 
REMARK       I    between atoms: C_6  and  N_8 
REMARK    2  A    between atoms: N_8  and  N_9 
REMARK       I    between atoms: N_9  and  C_10 
REMARK    3  A    between atoms: C_10  and  C_12 
REMARK    4  A    between atoms: C_18  and  O_19 
ROOT
ATOM      1  C   UNL d   1      25.904 -10.801  -3.307  0.00  0.00     0.272 C 
ATOM      2  O   UNL d   1      26.651 -10.720  -2.324  0.00  0.00    -0.266 OA
ATOM      3  N   UNL d   1      25.380 -12.015  -3.739  0.00  0.00    -0.263 N 
ATOM      4  H   UNL d   1      24.767 -12.136  -4.542  0.00  0.00     0.190 HD
ENDROOT
BRANCH   3   5
ATOM      5  N   UNL d   1      25.665 -13.211  -3.031  0.00  0.00    -0.267 N 
ATOM      6  C   UNL d   1      25.172 -14.418  -3.518  0.00  0.00     0.240 C 
ATOM      7  O   UNL d   1      24.405 -14.449  -4.484  0.00  0.00    -0.271 OA
ATOM      8  H   UNL d   1      26.312 -13.123  -2.251  0.00  0.00     0.190 HD
BRANCH   6   9
ATOM      9  C   UNL d   1      25.572 -15.692  -2.732  0.00  0.00     0.079 C 
ATOM     10  C   UNL d   1      26.842 -15.466  -1.874  0.00  0.00     0.014 C 
ATOM     11  C   UNL d   1      27.200 -16.671  -0.992  0.00  0.00     0.001 C 
ATOM     12  C   UNL d   1      26.026 -17.101  -0.122  0.00  0.00     0.000 C 
ATOM     13  C   UNL d   1      24.805 -17.384  -0.982  0.00  0.00     0.001 C 
ATOM     14  C   UNL d   1      24.426 -16.179  -1.837  0.00  0.00     0.014 C 
ENDBRANCH   6   9
ENDBRANCH   3   5
BRANCH   1  15
ATOM     15  C   UNL d   1      25.543  -9.543  -4.057  0.00  0.00     0.066 A 
ATOM     16  C   UNL d   1      25.531  -8.285  -3.434  0.00  0.00     0.020 A 
ATOM     17  C   UNL d   1      25.213  -7.118  -4.151  0.00  0.00     0.008 A 
ATOM     18  C   UNL d   1      24.908  -7.175  -5.514  0.00  0.00    -0.059 A 
ATOM     19  C   UNL d   1      24.588  -5.943  -6.312  0.00  0.00     0.048 C 
ATOM     20  C   UNL d   1      24.906  -8.422  -6.143  0.00  0.00     0.044 A 
ATOM     21  C   UNL d   1      25.211  -9.588  -5.427  0.00  0.00     0.082 A 
BRANCH  21  22
ATOM     22  O   UNL d   1      25.155 -10.742  -6.166  0.00  0.00    -0.360 OA
ATOM     23  H   UNL d   1      24.475 -11.328  -5.771  0.00  0.00     0.217 HD
ENDBRANCH  21  22
ENDBRANCH   1  15
TORSDOF 4
ENDMDL
MODEL 9
REMARK VINA RESULT:    -6.431      4.150      6.632
REMARK INTER + INTRA:          -9.454
REMARK INTER:                  -7.624
REMARK INTRA:                  -1.830
REMARK CONF_INDEPENDENT:        1.193
REMARK UNBOUND:                -1.830
REMARK  4 active torsions:
REMARK  status: ('A' for Active; 'I' for Inactive)
REMARK    1  A    between atoms: C_5  and  C_6 
REMARK       I    between atoms: C_6  and  N_8 
REMARK    2  A    between atoms: N_8  and  N_9 
REMARK       I    between atoms: N_9  and  C_10 
REMARK    3  A    between atoms: C_10  and  C_12 
REMARK    4  A    between atoms: C_18  and  O_19 
ROOT
ATOM      1  C   UNL d   1      27.342 -14.202  -5.481  0.00  0.00     0.272 C 
ATOM      2  O   UNL d   1      28.011 -15.200  -5.775  0.00  0.00    -0.266 OA
ATOM      3  N   UNL d   1      26.442 -14.202  -4.420  0.00  0.00    -0.263 N 
ATOM      4  H   UNL d   1      25.866 -13.411  -4.140  0.00  0.00     0.190 HD
ENDROOT
BRANCH   3   5
ATOM      5  N   UNL d   1      26.289 -15.356  -3.610  0.00  0.00    -0.267 N 
ATOM      6  C   UNL d   1      25.152 -15.480  -2.817  0.00  0.00     0.240 C 
ATOM      7  O   UNL d   1      24.337 -14.559  -2.726  0.00  0.00    -0.271 OA
ATOM      8  H   UNL d   1      26.988 -16.085  -3.738  0.00  0.00     0.190 HD
BRANCH   6   9
ATOM      9  C   UNL d   1      25.018 -16.793  -2.006  0.00  0.00     0.079 C 
ATOM     10  C   UNL d   1      26.172 -16.963  -0.986  0.00  0.00     0.014 C 
ATOM     11  C   UNL d   1      26.008 -18.193  -0.084  0.00  0.00     0.001 C 
ATOM     12  C   UNL d   1      24.656 -18.200   0.619  0.00  0.00     0.000 C 
ATOM     13  C   UNL d   1      23.529 -18.101  -0.397  0.00  0.00     0.001 C 
ATOM     14  C   UNL d   1      23.671 -16.862  -1.275  0.00  0.00     0.014 C 
ENDBRANCH   6   9
ENDBRANCH   3   5
BRANCH   1  15
ATOM     15  C   UNL d   1      27.512 -12.942  -6.293  0.00  0.00     0.066 A 
ATOM     16  C   UNL d   1      28.463 -12.845  -7.322  0.00  0.00     0.020 A 
ATOM     17  C   UNL d   1      28.595 -11.670  -8.084  0.00  0.00     0.008 A 
ATOM     18  C   UNL d   1      27.775 -10.564  -7.845  0.00  0.00    -0.059 A 
ATOM     19  C   UNL d   1      27.877  -9.306  -8.659  0.00  0.00     0.048 C 
ATOM     20  C   UNL d   1      26.833 -10.645  -6.817  0.00  0.00     0.044 A 
ATOM     21  C   UNL d   1      26.708 -11.810  -6.048  0.00  0.00     0.082 A 
BRANCH  21  22
ATOM     22  O   UNL d   1      25.755 -11.743  -5.063  0.00  0.00    -0.360 OA
ATOM     23  H   UNL d   1      25.015 -11.188  -5.388  0.00  0.00     0.217 HD
ENDBRANCH  21  22
ENDBRANCH   1  15
TORSDOF 4
ENDMDL
