MODEL 1
REMARK VINA RESULT:    -7.178      0.000      0.000
REMARK INTER + INTRA:         -10.736
REMARK INTER:                  -9.266
REMARK INTRA:                  -1.469
REMARK CONF_INDEPENDENT:        2.088
REMARK UNBOUND:                -1.469
REMARK  7 active torsions:
REMARK  status: ('A' for Active; 'I' for Inactive)
REMARK    1  A    between atoms: C_2  and  C_3 
REMARK    2  A    between atoms: C_3  and  C_4 
REMARK    3  A    between atoms: C_4  and  N_5 
REMARK       I    between atoms: N_5  and  C_6 
REMARK       I    between atoms: C_6  and  N_8 
REMARK    4  A    between atoms: N_8  and  N_9 
REMARK       I    between atoms: N_9  and  C_10 
REMARK    5  A    between atoms: C_10  and  C_12 
REMARK    6  A    between atoms: C_15  and  O_16 
REMARK    7  A    between atoms: O_16  and  C_17 
ROOT
ATOM      1  N   UNL d   1      26.527 -16.330   0.576  0.00  0.00    -0.262 N 
ATOM      2  C   UNL d   1      26.066 -17.616   0.309  0.00  0.00     0.270 C 
ATOM      3  O   UNL d   1      26.774 -18.617   0.438  0.00  0.00    -0.266 OA
ATOM      4  H   UNL d   1      25.933 -15.503   0.565  0.00  0.00     0.190 HD
ENDROOT
BRANCH   1   5
ATOM      5  N   UNL d   1      27.871 -16.116   1.042  0.00  0.00    -0.249 N 
ATOM      6  C   UNL d   1      28.229 -14.864   1.521  0.00  0.00     0.334 C 
ATOM      7  N   UNL d   1      29.544 -14.743   1.931  0.00  0.00    -0.342 N 
ATOM      8  O   UNL d   1      27.425 -13.933   1.573  0.00  0.00    -0.246 OA
ATOM      9  H   UNL d   1      30.166 -15.536   1.865  0.00  0.00     0.164 HD
ATOM     10  H   UNL d   1      28.501 -16.910   0.980  0.00  0.00     0.192 HD
BRANCH   7  11
ATOM     11  C   UNL d   1      30.066 -13.477   2.461  0.00  0.00     0.124 C 
BRANCH  11  12
ATOM     12  C   UNL d   1      29.760 -13.241   3.949  0.00  0.00     0.019 C 
BRANCH  12  13
ATOM     13  C   UNL d   1      29.607 -14.558   4.730  0.00  0.00    -0.003 C 
ATOM     14  C   UNL d   1      28.153 -14.827   5.101  0.00  0.00     0.005 C 
ENDBRANCH  12  13
ENDBRANCH  11  12
ENDBRANCH   7  11
ENDBRANCH   1   5
BRANCH   2  15
ATOM     15  C   UNL d   1      24.648 -17.771  -0.182  0.00  0.00     0.033 A 
ATOM     16  C   UNL d   1      23.875 -16.645  -0.520  0.00  0.00     0.020 A 
ATOM     17  C   UNL d   1      22.503 -16.775  -0.834  0.00  0.00     0.038 A 
ATOM     18  C   UNL d   1      21.891 -18.031  -0.872  0.00  0.00     0.068 A 
ATOM     19  C   UNL d   1      22.656 -19.146  -0.521  0.00  0.00     0.038 A 
ATOM     20  C   UNL d   1      24.018 -19.020  -0.179  0.00  0.00     0.020 A 
BRANCH  18  21
ATOM     21  O   UNL d   1      20.573 -18.058  -1.259  0.00  0.00    -0.352 OA
BRANCH  21  22
ATOM     22  C   UNL d   1      19.906 -19.325  -1.179  0.00  0.00     0.171 C 
ATOM     23  C   UNL d   1      19.510 -19.623   0.259  0.00  0.00     0.034 C 
ENDBRANCH  21  22
ENDBRANCH  18  21
ENDBRANCH   2  15
TORSDOF 7
ENDMDL
MODEL 2
REMARK VINA RESULT:    -7.102      3.758      8.238
REMARK INTER + INTRA:         -10.553
REMARK INTER:                  -9.190
REMARK INTRA:                  -1.363
REMARK CONF_INDEPENDENT:        2.088
REMARK UNBOUND:                -1.363
REMARK  7 active torsions:
REMARK  status: ('A' for Active; 'I' for Inactive)
REMARK    1  A    between atoms: C_2  and  C_3 
REMARK    2  A    between atoms: C_3  and  C_4 
REMARK    3  A    between atoms: C_4  and  N_5 
REMARK       I    between atoms: N_5  and  C_6 
REMARK       I    between atoms: C_6  and  N_8 
REMARK    4  A    between atoms: N_8  and  N_9 
REMARK       I    between atoms: N_9  and  C_10 
REMARK    5  A    between atoms: C_10  and  C_12 
REMARK    6  A    between atoms: C_15  and  O_16 
REMARK    7  A    between atoms: O_16  and  C_17 
ROOT
ATOM      1  N   UNL d   1      23.266 -17.655  -0.657  0.00  0.00    -0.262 N 
ATOM      2  C   UNL d   1      24.650 -17.553  -0.542  0.00  0.00     0.270 C 
ATOM      3  O   UNL d   1      25.328 -18.373   0.082  0.00  0.00    -0.266 OA
ATOM      4  H   UNL d   1      22.702 -17.043  -1.244  0.00  0.00     0.190 HD
ENDROOT
BRANCH   1   5
ATOM      5  N   UNL d   1      22.561 -18.755  -0.057  0.00  0.00    -0.249 N 
ATOM      6  C   UNL d   1      21.230 -18.965  -0.388  0.00  0.00     0.334 C 
ATOM      7  N   UNL d   1      20.625 -20.033   0.249  0.00  0.00    -0.342 N 
ATOM      8  O   UNL d   1      20.638 -18.246  -1.193  0.00  0.00    -0.246 OA
ATOM      9  H   UNL d   1      21.153 -20.591   0.904  0.00  0.00     0.164 HD
ATOM     10  H   UNL d   1      23.086 -19.322   0.602  0.00  0.00     0.192 HD
BRANCH   7  11
ATOM     11  C   UNL d   1      19.220 -20.377  -0.003  0.00  0.00     0.124 C 
BRANCH  11  12
ATOM     12  C   UNL d   1      18.520 -21.079   1.171  0.00  0.00     0.019 C 
BRANCH  12  13
ATOM     13  C   UNL d   1      18.582 -20.252   2.467  0.00  0.00    -0.003 C 
ATOM     14  C   UNL d   1      19.905 -20.450   3.199  0.00  0.00     0.005 C 
ENDBRANCH  12  13
ENDBRANCH  11  12
ENDBRANCH   7  11
ENDBRANCH   1   5
BRANCH   2  15
ATOM     15  C   UNL d   1      25.328 -16.372  -1.191  0.00  0.00     0.033 A 
ATOM     16  C   UNL d   1      26.036 -15.433  -0.418  0.00  0.00     0.020 A 
ATOM     17  C   UNL d   1      26.542 -14.250  -1.001  0.00  0.00     0.038 A 
ATOM     18  C   UNL d   1      26.403 -14.006  -2.370  0.00  0.00     0.068 A 
ATOM     19  C   UNL d   1      25.687 -14.932  -3.133  0.00  0.00     0.038 A 
ATOM     20  C   UNL d   1      25.155 -16.101  -2.552  0.00  0.00     0.020 A 
BRANCH  18  21
ATOM     21  O   UNL d   1      26.994 -12.863  -2.852  0.00  0.00    -0.352 OA
BRANCH  21  22
ATOM     22  C   UNL d   1      26.131 -11.915  -3.494  0.00  0.00     0.171 C 
ATOM     23  C   UNL d   1      26.243 -12.040  -5.006  0.00  0.00     0.034 C 
ENDBRANCH  21  22
ENDBRANCH  18  21
ENDBRANCH   2  15
TORSDOF 7
ENDMDL
MODEL 3
REMARK VINA RESULT:    -7.071      4.047      8.216
REMARK INTER + INTRA:         -10.576
REMARK INTER:                  -9.159
REMARK INTRA:                  -1.417
REMARK CONF_INDEPENDENT:        2.088
REMARK UNBOUND:                -1.417
REMARK  7 active torsions:
REMARK  status: ('A' for Active; 'I' for Inactive)
REMARK    1  A    between atoms: C_2  and  C_3 
REMARK    2  A    between atoms: C_3  and  C_4 
REMARK    3  A    between atoms: C_4  and  N_5 
REMARK       I    between atoms: N_5  and  C_6 
REMARK       I    between atoms: C_6  and  N_8 
REMARK    4  A    between atoms: N_8  and  N_9 
REMARK       I    between atoms: N_9  and  C_10 
REMARK    5  A    between atoms: C_10  and  C_12 
REMARK    6  A    between atoms: C_15  and  O_16 
REMARK    7  A    between atoms: O_16  and  C_17 
ROOT
ATOM      1  N   UNL d   1      23.308 -17.890  -0.798  0.00  0.00    -0.262 N 
ATOM      2  C   UNL d   1      24.685 -17.788  -0.618  0.00  0.00     0.270 C 
ATOM      3  O   UNL d   1      25.323 -18.575   0.086  0.00  0.00    -0.266 OA
ATOM      4  H   UNL d   1      22.779 -17.309  -1.447  0.00  0.00     0.190 HD
ENDROOT
BRANCH   1   5
ATOM      5  N   UNL d   1      22.564 -18.950  -0.174  0.00  0.00    -0.249 N 
ATOM      6  C   UNL d   1      21.213 -19.087  -0.460  0.00  0.00     0.334 C 
ATOM      7  N   UNL d   1      20.572 -20.120   0.199  0.00  0.00    -0.342 N 
ATOM      8  O   UNL d   1      20.635 -18.335  -1.246  0.00  0.00    -0.246 OA
ATOM      9  H   UNL d   1      21.090 -20.707   0.836  0.00  0.00     0.164 HD
ATOM     10  H   UNL d   1      23.079 -19.545   0.468  0.00  0.00     0.192 HD
BRANCH   7  11
ATOM     11  C   UNL d   1      19.143 -20.386  -0.007  0.00  0.00     0.124 C 
BRANCH  11  12
ATOM     12  C   UNL d   1      18.429 -20.986   1.215  0.00  0.00     0.019 C 
BRANCH  12  13
ATOM     13  C   UNL d   1      18.603 -20.120   2.476  0.00  0.00    -0.003 C 
ATOM     14  C   UNL d   1      19.897 -20.450   3.211  0.00  0.00     0.005 C 
ENDBRANCH  12  13
ENDBRANCH  11  12
ENDBRANCH   7  11
ENDBRANCH   1   5
BRANCH   2  15
ATOM     15  C   UNL d   1      25.405 -16.650  -1.297  0.00  0.00     0.033 A 
ATOM     16  C   UNL d   1      24.711 -15.747  -2.122  0.00  0.00     0.020 A 
ATOM     17  C   UNL d   1      25.404 -14.775  -2.877  0.00  0.00     0.038 A 
ATOM     18  C   UNL d   1      26.793 -14.648  -2.782  0.00  0.00     0.068 A 
ATOM     19  C   UNL d   1      27.482 -15.554  -1.974  0.00  0.00     0.038 A 
ATOM     20  C   UNL d   1      26.799 -16.545  -1.240  0.00  0.00     0.020 A 
BRANCH  18  21
ATOM     21  O   UNL d   1      27.364 -13.624  -3.499  0.00  0.00    -0.352 OA
BRANCH  21  22
ATOM     22  C   UNL d   1      27.376 -13.767  -4.926  0.00  0.00     0.171 C 
ATOM     23  C   UNL d   1      27.768 -15.186  -5.311  0.00  0.00     0.034 C 
ENDBRANCH  21  22
ENDBRANCH  18  21
ENDBRANCH   2  15
TORSDOF 7
ENDMDL
MODEL 4
REMARK VINA RESULT:    -6.896      3.569      8.703
REMARK INTER + INTRA:         -10.131
REMARK INTER:                  -8.984
REMARK INTRA:                  -1.147
REMARK CONF_INDEPENDENT:        2.088
REMARK UNBOUND:                -1.147
REMARK  7 active torsions:
REMARK  status: ('A' for Active; 'I' for Inactive)
REMARK    1  A    between atoms: C_2  and  C_3 
REMARK    2  A    between atoms: C_3  and  C_4 
REMARK    3  A    between atoms: C_4  and  N_5 
REMARK       I    between atoms: N_5  and  C_6 
REMARK       I    between atoms: C_6  and  N_8 
REMARK    4  A    between atoms: N_8  and  N_9 
REMARK       I    between atoms: N_9  and  C_10 
REMARK    5  A    between atoms: C_10  and  C_12 
REMARK    6  A    between atoms: C_15  and  O_16 
REMARK    7  A    between atoms: O_16  and  C_17 
ROOT
ATOM      1  N   UNL d   1      21.840 -18.712  -0.986  0.00  0.00    -0.262 N 
ATOM      2  C   UNL d   1      22.438 -17.458  -0.904  0.00  0.00     0.270 C 
ATOM      3  O   UNL d   1      21.787 -16.410  -0.894  0.00  0.00    -0.266 OA
ATOM      4  H   UNL d   1      22.352 -19.589  -0.902  0.00  0.00     0.190 HD
ENDROOT
BRANCH   1   5
ATOM      5  N   UNL d   1      20.409 -18.839  -1.044  0.00  0.00    -0.249 N 
ATOM      6  C   UNL d   1      19.807 -19.963  -0.496  0.00  0.00     0.334 C 
ATOM      7  N   UNL d   1      18.430 -20.011  -0.613  0.00  0.00    -0.342 N 
ATOM      8  O   UNL d   1      20.462 -20.850   0.052  0.00  0.00    -0.246 OA
ATOM      9  H   UNL d   1      17.939 -19.259  -1.075  0.00  0.00     0.164 HD
ATOM     10  H   UNL d   1      19.908 -18.086  -1.506  0.00  0.00     0.192 HD
BRANCH   7  11
ATOM     11  C   UNL d   1      17.657 -21.140  -0.079  0.00  0.00     0.124 C 
BRANCH  11  12
ATOM     12  C   UNL d   1      18.023 -21.531   1.361  0.00  0.00     0.019 C 
BRANCH  12  13
ATOM     13  C   UNL d   1      18.370 -20.309   2.229  0.00  0.00    -0.003 C 
ATOM     14  C   UNL d   1      19.746 -20.447   2.871  0.00  0.00     0.005 C 
ENDBRANCH  12  13
ENDBRANCH  11  12
ENDBRANCH   7  11
ENDBRANCH   1   5
BRANCH   2  15
ATOM     15  C   UNL d   1      23.944 -17.394  -0.852  0.00  0.00     0.033 A 
ATOM     16  C   UNL d   1      24.665 -18.142   0.097  0.00  0.00     0.020 A 
ATOM     17  C   UNL d   1      26.059 -17.971   0.248  0.00  0.00     0.038 A 
ATOM     18  C   UNL d   1      26.768 -17.094  -0.578  0.00  0.00     0.068 A 
ATOM     19  C   UNL d   1      26.050 -16.341  -1.509  0.00  0.00     0.038 A 
ATOM     20  C   UNL d   1      24.654 -16.487  -1.646  0.00  0.00     0.020 A 
BRANCH  18  21
ATOM     21  O   UNL d   1      28.131 -17.053  -0.401  0.00  0.00    -0.352 OA
BRANCH  21  22
ATOM     22  C   UNL d   1      28.662 -15.881   0.232  0.00  0.00     0.171 C 
ATOM     23  C   UNL d   1      27.604 -15.232   1.113  0.00  0.00     0.034 C 
ENDBRANCH  21  22
ENDBRANCH  18  21
ENDBRANCH   2  15
TORSDOF 7
ENDMDL
MODEL 5
REMARK VINA RESULT:    -6.820      3.928      8.537
REMARK INTER + INTRA:         -10.143
REMARK INTER:                  -8.908
REMARK INTRA:                  -1.236
REMARK CONF_INDEPENDENT:        2.088
REMARK UNBOUND:                -1.236
REMARK  7 active torsions:
REMARK  status: ('A' for Active; 'I' for Inactive)
REMARK    1  A    between atoms: C_2  and  C_3 
REMARK    2  A    between atoms: C_3  and  C_4 
REMARK    3  A    between atoms: C_4  and  N_5 
REMARK       I    between atoms: N_5  and  C_6 
REMARK       I    between atoms: C_6  and  N_8 
REMARK    4  A    between atoms: N_8  and  N_9 
REMARK       I    between atoms: N_9  and  C_10 
REMARK    5  A    between atoms: C_10  and  C_12 
REMARK    6  A    between atoms: C_15  and  O_16 
REMARK    7  A    between atoms: O_16  and  C_17 
ROOT
ATOM      1  N   UNL d   1      23.855 -17.959  -0.824  0.00  0.00    -0.262 N 
ATOM      2  C   UNL d   1      25.189 -17.754  -0.481  0.00  0.00     0.270 C 
ATOM      3  O   UNL d   1      25.701 -18.252   0.524  0.00  0.00    -0.266 OA
ATOM      4  H   UNL d   1      23.440 -17.634  -1.696  0.00  0.00     0.190 HD
ENDROOT
BRANCH   1   5
ATOM      5  N   UNL d   1      23.010 -18.793  -0.013  0.00  0.00    -0.249 N 
ATOM      6  C   UNL d   1      21.633 -18.656  -0.108  0.00  0.00     0.334 C 
ATOM      7  N   UNL d   1      20.899 -19.485   0.721  0.00  0.00    -0.342 N 
ATOM      8  O   UNL d   1      21.111 -17.849  -0.878  0.00  0.00    -0.246 OA
ATOM      9  H   UNL d   1      21.375 -20.128   1.337  0.00  0.00     0.164 HD
ATOM     10  H   UNL d   1      23.482 -19.443   0.609  0.00  0.00     0.192 HD
BRANCH   7  11
ATOM     11  C   UNL d   1      19.431 -19.452   0.728  0.00  0.00     0.124 C 
BRANCH  11  12
ATOM     12  C   UNL d   1      18.778 -20.085  -0.510  0.00  0.00     0.019 C 
BRANCH  12  13
ATOM     13  C   UNL d   1      17.780 -21.197  -0.140  0.00  0.00    -0.003 C 
ATOM     14  C   UNL d   1      17.813 -21.509   1.351  0.00  0.00     0.005 C 
ENDBRANCH  12  13
ENDBRANCH  11  12
ENDBRANCH   7  11
ENDBRANCH   1   5
BRANCH   2  15
ATOM     15  C   UNL d   1      26.019 -16.863  -1.371  0.00  0.00     0.033 A 
ATOM     16  C   UNL d   1      25.426 -16.136  -2.420  0.00  0.00     0.020 A 
ATOM     17  C   UNL d   1      26.218 -15.422  -3.347  0.00  0.00     0.038 A 
ATOM     18  C   UNL d   1      27.609 -15.374  -3.215  0.00  0.00     0.068 A 
ATOM     19  C   UNL d   1      28.198 -16.108  -2.183  0.00  0.00     0.038 A 
ATOM     20  C   UNL d   1      27.414 -16.845  -1.271  0.00  0.00     0.020 A 
BRANCH  18  21
ATOM     21  O   UNL d   1      28.283 -14.593  -4.123  0.00  0.00    -0.352 OA
BRANCH  21  22
ATOM     22  C   UNL d   1      28.589 -15.197  -5.387  0.00  0.00     0.171 C 
ATOM     23  C   UNL d   1      28.221 -14.255  -6.524  0.00  0.00     0.034 C 
ENDBRANCH  21  22
ENDBRANCH  18  21
ENDBRANCH   2  15
TORSDOF 7
ENDMDL
MODEL 6
REMARK VINA RESULT:    -6.699      4.481      8.478
REMARK INTER + INTRA:         -10.128
REMARK INTER:                  -8.787
REMARK INTRA:                  -1.341
REMARK CONF_INDEPENDENT:        2.088
REMARK UNBOUND:                -1.341
REMARK  7 active torsions:
REMARK  status: ('A' for Active; 'I' for Inactive)
REMARK    1  A    between atoms: C_2  and  C_3 
REMARK    2  A    between atoms: C_3  and  C_4 
REMARK    3  A    between atoms: C_4  and  N_5 
REMARK       I    between atoms: N_5  and  C_6 
REMARK       I    between atoms: C_6  and  N_8 
REMARK    4  A    between atoms: N_8  and  N_9 
REMARK       I    between atoms: N_9  and  C_10 
REMARK    5  A    between atoms: C_10  and  C_12 
REMARK    6  A    between atoms: C_15  and  O_16 
REMARK    7  A    between atoms: O_16  and  C_17 
ROOT
ATOM      1  N   UNL d   1      23.617 -17.100  -1.431  0.00  0.00    -0.262 N 
ATOM      2  C   UNL d   1      24.977 -16.887  -1.636  0.00  0.00     0.270 C 
ATOM      3  O   UNL d   1      25.844 -17.636  -1.177  0.00  0.00    -0.266 OA
ATOM      4  H   UNL d   1      22.885 -16.549  -1.877  0.00  0.00     0.190 HD
ENDROOT
BRANCH   1   5
ATOM      5  N   UNL d   1      23.158 -18.236  -0.677  0.00  0.00    -0.249 N 
ATOM      6  C   UNL d   1      21.800 -18.517  -0.638  0.00  0.00     0.334 C 
ATOM      7  N   UNL d   1      21.447 -19.615   0.126  0.00  0.00    -0.342 N 
ATOM      8  O   UNL d   1      20.975 -17.831  -1.242  0.00  0.00    -0.246 OA
ATOM      9  H   UNL d   1      22.162 -20.144   0.605  0.00  0.00     0.164 HD
ATOM     10  H   UNL d   1      23.872 -18.773  -0.193  0.00  0.00     0.192 HD
BRANCH   7  11
ATOM     11  C   UNL d   1      20.046 -20.034   0.259  0.00  0.00     0.124 C 
BRANCH  11  12
ATOM     12  C   UNL d   1      19.386 -19.622   1.584  0.00  0.00     0.019 C 
BRANCH  12  13
ATOM     13  C   UNL d   1      18.406 -20.688   2.105  0.00  0.00    -0.003 C 
ATOM     14  C   UNL d   1      17.889 -21.575   0.978  0.00  0.00     0.005 C 
ENDBRANCH  12  13
ENDBRANCH  11  12
ENDBRANCH   7  11
ENDBRANCH   1   5
BRANCH   2  15
ATOM     15  C   UNL d   1      25.391 -15.675  -2.431  0.00  0.00     0.033 A 
ATOM     16  C   UNL d   1      24.456 -14.680  -2.770  0.00  0.00     0.020 A 
ATOM     17  C   UNL d   1      24.804 -13.623  -3.640  0.00  0.00     0.038 A 
ATOM     18  C   UNL d   1      26.103 -13.506  -4.143  0.00  0.00     0.068 A 
ATOM     19  C   UNL d   1      27.026 -14.502  -3.819  0.00  0.00     0.038 A 
ATOM     20  C   UNL d   1      26.677 -15.575  -2.974  0.00  0.00     0.020 A 
BRANCH  18  21
ATOM     21  O   UNL d   1      26.361 -12.402  -4.921  0.00  0.00    -0.352 OA
BRANCH  21  22
ATOM     22  C   UNL d   1      26.105 -11.123  -4.327  0.00  0.00     0.171 C 
ATOM     23  C   UNL d   1      25.893 -10.072  -5.407  0.00  0.00     0.034 C 
ENDBRANCH  21  22
ENDBRANCH  18  21
ENDBRANCH   2  15
TORSDOF 7
ENDMDL
MODEL 7
REMARK VINA RESULT:    -6.670      4.437      8.632
REMARK INTER + INTRA:         -10.109
REMARK INTER:                  -8.758
REMARK INTRA:                  -1.351
REMARK CONF_INDEPENDENT:        2.088
REMARK UNBOUND:                -1.351
REMARK  7 active torsions:
REMARK  status: ('A' for Active; 'I' for Inactive)
REMARK    1  A    between atoms: C_2  and  C_3 
REMARK    2  A    between atoms: C_3  and  C_4 
REMARK    3  A    between atoms: C_4  and  N_5 
REMARK       I    between atoms: N_5  and  C_6 
REMARK       I    between atoms: C_6  and  N_8 
REMARK    4  A    between atoms: N_8  and  N_9 
REMARK       I    between atoms: N_9  and  C_10 
REMARK    5  A    between atoms: C_10  and  C_12 
REMARK    6  A    between atoms: C_15  and  O_16 
REMARK    7  A    between atoms: O_16  and  C_17 
ROOT
ATOM      1  N   UNL d   1      24.219 -16.882  -1.628  0.00  0.00    -0.262 N 
ATOM      2  C   UNL d   1      25.257 -15.969  -1.461  0.00  0.00     0.270 C 
ATOM      3  O   UNL d   1      25.484 -15.409  -0.385  0.00  0.00    -0.266 OA
ATOM      4  H   UNL d   1      24.073 -17.422  -2.479  0.00  0.00     0.190 HD
ENDROOT
BRANCH   1   5
ATOM      5  N   UNL d   1      23.366 -17.231  -0.524  0.00  0.00    -0.249 N 
ATOM      6  C   UNL d   1      22.511 -18.317  -0.647  0.00  0.00     0.334 C 
ATOM      7  N   UNL d   1      21.714 -18.569   0.455  0.00  0.00    -0.342 N 
ATOM      8  O   UNL d   1      22.473 -19.002  -1.670  0.00  0.00    -0.246 OA
ATOM      9  H   UNL d   1      21.781 -17.976   1.269  0.00  0.00     0.164 HD
ATOM     10  H   UNL d   1      23.429 -16.639   0.299  0.00  0.00     0.192 HD
BRANCH   7  11
ATOM     11  C   UNL d   1      20.762 -19.687   0.469  0.00  0.00     0.124 C 
BRANCH  11  12
ATOM     12  C   UNL d   1      19.538 -19.487  -0.438  0.00  0.00     0.019 C 
BRANCH  12  13
ATOM     13  C   UNL d   1      18.405 -20.477  -0.115  0.00  0.00    -0.003 C 
ATOM     14  C   UNL d   1      18.405 -20.873   1.357  0.00  0.00     0.005 C 
ENDBRANCH  12  13
ENDBRANCH  11  12
ENDBRANCH   7  11
ENDBRANCH   1   5
BRANCH   2  15
ATOM     15  C   UNL d   1      26.112 -15.644  -2.660  0.00  0.00     0.033 A 
ATOM     16  C   UNL d   1      25.530 -15.198  -3.861  0.00  0.00     0.020 A 
ATOM     17  C   UNL d   1      26.310 -15.038  -5.029  0.00  0.00     0.038 A 
ATOM     18  C   UNL d   1      27.689 -15.263  -5.007  0.00  0.00     0.068 A 
ATOM     19  C   UNL d   1      28.263 -15.719  -3.818  0.00  0.00     0.038 A 
ATOM     20  C   UNL d   1      27.485 -15.909  -2.658  0.00  0.00     0.020 A 
BRANCH  18  21
ATOM     21  O   UNL d   1      28.369 -15.008  -6.174  0.00  0.00    -0.352 OA
BRANCH  21  22
ATOM     22  C   UNL d   1      29.668 -14.414  -6.044  0.00  0.00     0.171 C 
ATOM     23  C   UNL d   1      30.750 -15.467  -6.227  0.00  0.00     0.034 C 
ENDBRANCH  21  22
ENDBRANCH  18  21
ENDBRANCH   2  15
TORSDOF 7
ENDMDL
MODEL 8
REMARK VINA RESULT:    -6.276      4.571      5.803
REMARK INTER + INTRA:          -9.792
REMARK INTER:                  -8.365
REMARK INTRA:                  -1.427
REMARK CONF_INDEPENDENT:        2.088
REMARK UNBOUND:                -1.427
REMARK  7 active torsions:
REMARK  status: ('A' for Active; 'I' for Inactive)
REMARK    1  A    between atoms: C_2  and  C_3 
REMARK    2  A    between atoms: C_3  and  C_4 
REMARK    3  A    between atoms: C_4  and  N_5 
REMARK       I    between atoms: N_5  and  C_6 
REMARK       I    between atoms: C_6  and  N_8 
REMARK    4  A    between atoms: N_8  and  N_9 
REMARK       I    between atoms: N_9  and  C_10 
REMARK    5  A    between atoms: C_10  and  C_12 
REMARK    6  A    between atoms: C_15  and  O_16 
REMARK    7  A    between atoms: O_16  and  C_17 
ROOT
ATOM      1  N   UNL d   1      26.002 -15.931  -2.719  0.00  0.00    -0.262 N 
ATOM      2  C   UNL d   1      25.709 -15.965  -1.358  0.00  0.00     0.270 C 
ATOM      3  O   UNL d   1      26.367 -15.342  -0.520  0.00  0.00    -0.266 OA
ATOM      4  H   UNL d   1      25.418 -16.361  -3.433  0.00  0.00     0.190 HD
ENDROOT
BRANCH   1   5
ATOM      5  N   UNL d   1      27.093 -15.135  -3.213  0.00  0.00    -0.249 N 
ATOM      6  C   UNL d   1      27.282 -15.024  -4.584  0.00  0.00     0.334 C 
ATOM      7  N   UNL d   1      28.365 -14.256  -4.970  0.00  0.00    -0.342 N 
ATOM      8  O   UNL d   1      26.533 -15.575  -5.391  0.00  0.00    -0.246 OA
ATOM      9  H   UNL d   1      28.951 -13.827  -4.269  0.00  0.00     0.164 HD
ATOM     10  H   UNL d   1      27.687 -14.699  -2.514  0.00  0.00     0.192 HD
BRANCH   7  11
ATOM     11  C   UNL d   1      28.687 -14.048  -6.387  0.00  0.00     0.124 C 
BRANCH  11  12
ATOM     12  C   UNL d   1      29.805 -14.956  -6.921  0.00  0.00     0.019 C 
BRANCH  12  13
ATOM     13  C   UNL d   1      30.381 -15.877  -5.831  0.00  0.00    -0.003 C 
ATOM     14  C   UNL d   1      30.405 -17.334  -6.279  0.00  0.00     0.005 C 
ENDBRANCH  12  13
ENDBRANCH  11  12
ENDBRANCH   7  11
ENDBRANCH   1   5
BRANCH   2  15
ATOM     15  C   UNL d   1      24.555 -16.823  -0.905  0.00  0.00     0.033 A 
ATOM     16  C   UNL d   1      24.740 -18.188  -0.616  0.00  0.00     0.020 A 
ATOM     17  C   UNL d   1      23.638 -19.027  -0.338  0.00  0.00     0.038 A 
ATOM     18  C   UNL d   1      22.339 -18.512  -0.288  0.00  0.00     0.068 A 
ATOM     19  C   UNL d   1      22.155 -17.161  -0.589  0.00  0.00     0.038 A 
ATOM     20  C   UNL d   1      23.248 -16.325  -0.895  0.00  0.00     0.020 A 
BRANCH  18  21
ATOM     21  O   UNL d   1      21.345 -19.394   0.063  0.00  0.00    -0.352 OA
BRANCH  21  22
ATOM     22  C   UNL d   1      20.197 -19.442  -0.795  0.00  0.00     0.171 C 
ATOM     23  C   UNL d   1      19.021 -20.075  -0.066  0.00  0.00     0.034 C 
ENDBRANCH  21  22
ENDBRANCH  18  21
ENDBRANCH   2  15
TORSDOF 7
ENDMDL
MODEL 9
REMARK VINA RESULT:    -6.188      3.249      4.044
REMARK INTER + INTRA:          -9.624
REMARK INTER:                  -8.276
REMARK INTRA:                  -1.348
REMARK CONF_INDEPENDENT:        2.088
REMARK UNBOUND:                -1.348
REMARK  7 active torsions:
REMARK  status: ('A' for Active; 'I' for Inactive)
REMARK    1  A    between atoms: C_2  and  C_3 
REMARK    2  A    between atoms: C_3  and  C_4 
REMARK    3  A    between atoms: C_4  and  N_5 
REMARK       I    between atoms: N_5  and  C_6 
REMARK       I    between atoms: C_6  and  N_8 
REMARK    4  A    between atoms: N_8  and  N_9 
REMARK       I    between atoms: N_9  and  C_10 
REMARK    5  A    between atoms: C_10  and  C_12 
REMARK    6  A    between atoms: C_15  and  O_16 
REMARK    7  A    between atoms: O_16  and  C_17 
ROOT
ATOM      1  N   UNL d   1      26.950 -17.602  -0.653  0.00  0.00    -0.262 N 
ATOM      2  C   UNL d   1      25.987 -18.093   0.224  0.00  0.00     0.270 C 
ATOM      3  O   UNL d   1      26.271 -18.571   1.325  0.00  0.00    -0.266 OA
ATOM      4  H   UNL d   1      26.729 -17.120  -1.523  0.00  0.00     0.190 HD
ENDROOT
BRANCH   1   5
ATOM      5  N   UNL d   1      28.342 -17.616  -0.295  0.00  0.00    -0.249 N 
ATOM      6  C   UNL d   1      29.278 -17.129  -1.197  0.00  0.00     0.334 C 
ATOM      7  N   UNL d   1      30.593 -17.197  -0.777  0.00  0.00    -0.342 N 
ATOM      8  O   UNL d   1      28.949 -16.671  -2.291  0.00  0.00    -0.246 OA
ATOM      9  H   UNL d   1      30.812 -17.585   0.130  0.00  0.00     0.164 HD
ATOM     10  H   UNL d   1      28.569 -18.004   0.617  0.00  0.00     0.192 HD
BRANCH   7  11
ATOM     11  C   UNL d   1      31.692 -16.718  -1.625  0.00  0.00     0.124 C 
BRANCH  11  12
ATOM     12  C   UNL d   1      31.778 -17.405  -2.997  0.00  0.00     0.019 C 
BRANCH  12  13
ATOM     13  C   UNL d   1      31.505 -18.917  -2.910  0.00  0.00    -0.003 C 
ATOM     14  C   UNL d   1      32.134 -19.533  -1.666  0.00  0.00     0.005 C 
ENDBRANCH  12  13
ENDBRANCH  11  12
ENDBRANCH   7  11
ENDBRANCH   1   5
BRANCH   2  15
ATOM     15  C   UNL d   1      24.544 -18.054  -0.216  0.00  0.00     0.033 A 
ATOM     16  C   UNL d   1      23.836 -16.839  -0.257  0.00  0.00     0.020 A 
ATOM     17  C   UNL d   1      22.448 -16.818  -0.521  0.00  0.00     0.038 A 
ATOM     18  C   UNL d   1      21.753 -17.997  -0.803  0.00  0.00     0.068 A 
ATOM     19  C   UNL d   1      22.454 -19.204  -0.747  0.00  0.00     0.038 A 
ATOM     20  C   UNL d   1      23.833 -19.234  -0.456  0.00  0.00     0.020 A 
BRANCH  18  21
ATOM     21  O   UNL d   1      20.422 -17.863  -1.119  0.00  0.00    -0.352 OA
BRANCH  21  22
ATOM     22  C   UNL d   1      19.589 -19.009  -0.895  0.00  0.00     0.171 C 
ATOM     23  C   UNL d   1      19.519 -19.326   0.591  0.00  0.00     0.034 C 
ENDBRANCH  21  22
ENDBRANCH  18  21
ENDBRANCH   2  15
TORSDOF 7
ENDMDL
