MODEL 1
REMARK VINA RESULT:    -6.990      0.000      0.000
REMARK INTER + INTRA:         -10.495
REMARK INTER:                  -8.481
REMARK INTRA:                  -2.014
REMARK CONF_INDEPENDENT:        1.492
REMARK UNBOUND:                -2.014
REMARK  5 active torsions:
REMARK  status: ('A' for Active; 'I' for Inactive)
REMARK    1  A    between atoms: C_4  and  C_2 
REMARK    2  A    between atoms: C_4  and  C_14 
REMARK    3  A    between atoms: C_4  and  N_5 
REMARK       I    between atoms: N_5  and  C_6 
REMARK    4  A    between atoms: C_6  and  C_8 
REMARK       I    between atoms: C_14  and  N_16 
REMARK    5  A    between atoms: N_16  and  C_17 
ROOT
ATOM      1  C   UNL d   1      29.268 -15.869  -5.220  0.00  0.00     0.055 A 
ATOM      2  C   UNL d   1      29.724 -17.129  -4.812  0.00  0.00     0.031 A 
ATOM      3  C   UNL d   1      30.765 -17.752  -5.511  0.00  0.00     0.002 A 
ATOM      4  C   UNL d   1      31.284 -17.175  -6.670  0.00  0.00     0.002 A 
ATOM      5  C   UNL d   1      30.798 -15.951  -7.117  0.00  0.00     0.025 A 
ATOM      6  C   UNL d   1      29.799 -15.285  -6.405  0.00  0.00     0.071 A 
ATOM      7  C   UNL d   1      29.399 -13.992  -6.906  0.00  0.00     0.102 C 
ATOM      8  N   UNL d   1      29.070 -12.937  -7.292  0.00  0.00    -0.191 NA
ENDROOT
BRANCH   1   9
ATOM      9  N   UNL d   1      28.278 -15.200  -4.430  0.00  0.00    -0.324 N 
ATOM     10  C   UNL d   1      27.056 -14.970  -5.027  0.00  0.00     0.245 C 
ATOM     11  O   UNL d   1      26.895 -15.449  -6.143  0.00  0.00    -0.271 OA
ATOM     12  H   UNL d   1      28.373 -15.195  -3.424  0.00  0.00     0.169 HD
BRANCH  10  13
ATOM     13  C   UNL d   1      25.926 -14.216  -4.285  0.00  0.00     0.180 C 
BRANCH  13  14
ATOM     14  N   UNL d   1      25.151 -15.088  -3.337  0.00  0.00    -0.343 N 
ATOM     15  C   UNL d   1      25.712 -15.997  -2.437  0.00  0.00     0.252 C 
ATOM     16  O   UNL d   1      26.885 -16.316  -2.303  0.00  0.00    -0.268 OA
ATOM     17  H   UNL d   1      24.229 -14.754  -3.091  0.00  0.00     0.163 HD
BRANCH  15  18
ATOM     18  C   UNL d   1      24.851 -16.657  -1.451  0.00  0.00     0.032 A 
ATOM     19  C   UNL d   1      25.391 -17.788  -0.806  0.00  0.00     0.017 A 
ATOM     20  C   UNL d   1      24.596 -18.577   0.007  0.00  0.00     0.001 A 
ATOM     21  C   UNL d   1      23.285 -18.185   0.252  0.00  0.00     0.000 A 
ATOM     22  C   UNL d   1      22.743 -17.067  -0.396  0.00  0.00     0.001 A 
ATOM     23  C   UNL d   1      23.520 -16.308  -1.270  0.00  0.00     0.017 A 
ENDBRANCH  15  18
ENDBRANCH  13  14
BRANCH  13  24
ATOM     24  C   UNL d   1      26.499 -12.938  -3.631  0.00  0.00     0.009 C 
ATOM     25  C   UNL d   1      26.199 -12.922  -2.138  0.00  0.00     0.012 C 
ATOM     26  C   UNL d   1      25.995 -11.650  -4.285  0.00  0.00     0.012 C 
ENDBRANCH  13  24
ENDBRANCH  10  13
ENDBRANCH   1   9
TORSDOF 5
ENDMDL
MODEL 2
REMARK VINA RESULT:    -6.883      1.466      6.699
REMARK INTER + INTRA:         -10.559
REMARK INTER:                  -8.375
REMARK INTRA:                  -2.185
REMARK CONF_INDEPENDENT:        1.492
REMARK UNBOUND:                -2.185
REMARK  5 active torsions:
REMARK  status: ('A' for Active; 'I' for Inactive)
REMARK    1  A    between atoms: C_4  and  C_2 
REMARK    2  A    between atoms: C_4  and  C_14 
REMARK    3  A    between atoms: C_4  and  N_5 
REMARK       I    between atoms: N_5  and  C_6 
REMARK    4  A    between atoms: C_6  and  C_8 
REMARK       I    between atoms: C_14  and  N_16 
REMARK    5  A    between atoms: N_16  and  C_17 
ROOT
ATOM      1  C   UNL d   1      25.357 -16.652  -1.607  0.00  0.00     0.055 A 
ATOM      2  C   UNL d   1      23.959 -16.723  -1.645  0.00  0.00     0.031 A 
ATOM      3  C   UNL d   1      23.273 -17.467  -0.677  0.00  0.00     0.002 A 
ATOM      4  C   UNL d   1      23.974 -18.218   0.267  0.00  0.00     0.002 A 
ATOM      5  C   UNL d   1      25.365 -18.200   0.277  0.00  0.00     0.025 A 
ATOM      6  C   UNL d   1      26.069 -17.423  -0.644  0.00  0.00     0.071 A 
ATOM      7  C   UNL d   1      27.506 -17.414  -0.520  0.00  0.00     0.102 C 
ATOM      8  N   UNL d   1      28.673 -17.388  -0.429  0.00  0.00    -0.191 NA
ENDROOT
BRANCH   1   9
ATOM      9  N   UNL d   1      26.034 -15.800  -2.539  0.00  0.00    -0.324 N 
ATOM     10  C   UNL d   1      26.252 -14.496  -2.145  0.00  0.00     0.245 C 
ATOM     11  O   UNL d   1      25.939 -14.214  -0.995  0.00  0.00    -0.271 OA
ATOM     12  H   UNL d   1      26.582 -16.218  -3.278  0.00  0.00     0.169 HD
BRANCH  10  13
ATOM     13  C   UNL d   1      26.935 -13.474  -3.086  0.00  0.00     0.180 C 
BRANCH  13  14
ATOM     14  N   UNL d   1      28.056 -14.065  -3.894  0.00  0.00    -0.343 N 
ATOM     15  C   UNL d   1      27.906 -15.004  -4.916  0.00  0.00     0.252 C 
ATOM     16  O   UNL d   1      26.889 -15.575  -5.287  0.00  0.00    -0.268 OA
ATOM     17  H   UNL d   1      28.899 -13.508  -3.944  0.00  0.00     0.163 HD
BRANCH  15  18
ATOM     18  C   UNL d   1      29.064 -15.367  -5.737  0.00  0.00     0.032 A 
ATOM     19  C   UNL d   1      29.655 -16.618  -5.468  0.00  0.00     0.017 A 
ATOM     20  C   UNL d   1      30.852 -16.971  -6.067  0.00  0.00     0.001 A 
ATOM     21  C   UNL d   1      31.412 -16.115  -7.008  0.00  0.00     0.000 A 
ATOM     22  C   UNL d   1      30.832 -14.867  -7.270  0.00  0.00     0.001 A 
ATOM     23  C   UNL d   1      29.663 -14.477  -6.617  0.00  0.00     0.017 A 
ENDBRANCH  15  18
ENDBRANCH  13  14
BRANCH  13  24
ATOM     24  C   UNL d   1      25.862 -12.757  -3.938  0.00  0.00     0.009 C 
ATOM     25  C   UNL d   1      24.715 -13.706  -4.258  0.00  0.00     0.012 C 
ATOM     26  C   UNL d   1      26.422 -12.151  -5.226  0.00  0.00     0.012 C 
ENDBRANCH  13  24
ENDBRANCH  10  13
ENDBRANCH   1   9
TORSDOF 5
ENDMDL
MODEL 3
REMARK VINA RESULT:    -6.850      2.303      3.382
REMARK INTER + INTRA:         -10.386
REMARK INTER:                  -8.341
REMARK INTRA:                  -2.045
REMARK CONF_INDEPENDENT:        1.492
REMARK UNBOUND:                -2.045
REMARK  5 active torsions:
REMARK  status: ('A' for Active; 'I' for Inactive)
REMARK    1  A    between atoms: C_4  and  C_2 
REMARK    2  A    between atoms: C_4  and  C_14 
REMARK    3  A    between atoms: C_4  and  N_5 
REMARK       I    between atoms: N_5  and  C_6 
REMARK    4  A    between atoms: C_6  and  C_8 
REMARK       I    between atoms: C_14  and  N_16 
REMARK    5  A    between atoms: N_16  and  C_17 
ROOT
ATOM      1  C   UNL d   1      28.098 -15.452  -3.781  0.00  0.00     0.055 A 
ATOM      2  C   UNL d   1      29.435 -15.769  -4.051  0.00  0.00     0.031 A 
ATOM      3  C   UNL d   1      29.988 -15.451  -5.298  0.00  0.00     0.002 A 
ATOM      4  C   UNL d   1      29.192 -14.912  -6.308  0.00  0.00     0.002 A 
ATOM      5  C   UNL d   1      27.848 -14.647  -6.070  0.00  0.00     0.025 A 
ATOM      6  C   UNL d   1      27.288 -14.904  -4.817  0.00  0.00     0.071 A 
ATOM      7  C   UNL d   1      25.903 -14.540  -4.639  0.00  0.00     0.102 C 
ATOM      8  N   UNL d   1      24.784 -14.243  -4.473  0.00  0.00    -0.191 NA
ENDROOT
BRANCH   1   9
ATOM      9  N   UNL d   1      27.582 -15.686  -2.466  0.00  0.00    -0.324 N 
ATOM     10  C   UNL d   1      27.697 -14.652  -1.559  0.00  0.00     0.245 C 
ATOM     11  O   UNL d   1      28.138 -13.594  -1.992  0.00  0.00    -0.271 OA
ATOM     12  H   UNL d   1      26.907 -16.425  -2.327  0.00  0.00     0.169 HD
BRANCH  10  13
ATOM     13  C   UNL d   1      27.214 -14.806  -0.097  0.00  0.00     0.180 C 
BRANCH  13  14
ATOM     14  N   UNL d   1      26.008 -15.691   0.042  0.00  0.00    -0.343 N 
ATOM     15  C   UNL d   1      25.066 -15.934  -0.961  0.00  0.00     0.252 C 
ATOM     16  O   UNL d   1      24.987 -15.432  -2.074  0.00  0.00    -0.268 OA
ATOM     17  H   UNL d   1      26.071 -16.407   0.753  0.00  0.00     0.163 HD
BRANCH  15  18
ATOM     18  C   UNL d   1      24.034 -16.953  -0.748  0.00  0.00     0.032 A 
ATOM     19  C   UNL d   1      24.488 -18.273  -0.552  0.00  0.00     0.017 A 
ATOM     20  C   UNL d   1      23.589 -19.325  -0.518  0.00  0.00     0.001 A 
ATOM     21  C   UNL d   1      22.228 -19.050  -0.584  0.00  0.00     0.000 A 
ATOM     22  C   UNL d   1      21.775 -17.740  -0.787  0.00  0.00     0.001 A 
ATOM     23  C   UNL d   1      22.680 -16.685  -0.892  0.00  0.00     0.017 A 
ENDBRANCH  15  18
ENDBRANCH  13  14
BRANCH  13  24
ATOM     24  C   UNL d   1      28.402 -15.223   0.800  0.00  0.00     0.009 C 
ATOM     25  C   UNL d   1      28.642 -14.184   1.886  0.00  0.00     0.012 C 
ATOM     26  C   UNL d   1      29.690 -15.473   0.013  0.00  0.00     0.012 C 
ENDBRANCH  13  24
ENDBRANCH  10  13
ENDBRANCH   1   9
TORSDOF 5
ENDMDL
MODEL 4
REMARK VINA RESULT:    -6.737      4.678      7.125
REMARK INTER + INTRA:         -10.196
REMARK INTER:                  -8.229
REMARK INTRA:                  -1.967
REMARK CONF_INDEPENDENT:        1.492
REMARK UNBOUND:                -1.967
REMARK  5 active torsions:
REMARK  status: ('A' for Active; 'I' for Inactive)
REMARK    1  A    between atoms: C_4  and  C_2 
REMARK    2  A    between atoms: C_4  and  C_14 
REMARK    3  A    between atoms: C_4  and  N_5 
REMARK       I    between atoms: N_5  and  C_6 
REMARK    4  A    between atoms: C_6  and  C_8 
REMARK       I    between atoms: C_14  and  N_16 
REMARK    5  A    between atoms: N_16  and  C_17 
ROOT
ATOM      1  C   UNL d   1      25.440 -16.767  -0.359  0.00  0.00     0.055 A 
ATOM      2  C   UNL d   1      25.126 -17.782   0.553  0.00  0.00     0.031 A 
ATOM      3  C   UNL d   1      24.146 -18.729   0.230  0.00  0.00     0.002 A 
ATOM      4  C   UNL d   1      23.411 -18.612  -0.949  0.00  0.00     0.002 A 
ATOM      5  C   UNL d   1      23.675 -17.574  -1.836  0.00  0.00     0.025 A 
ATOM      6  C   UNL d   1      24.685 -16.649  -1.560  0.00  0.00     0.071 A 
ATOM      7  C   UNL d   1      24.933 -15.643  -2.564  0.00  0.00     0.102 C 
ATOM      8  N   UNL d   1      25.155 -14.825  -3.372  0.00  0.00    -0.191 NA
ENDROOT
BRANCH   1   9
ATOM      9  N   UNL d   1      26.519 -15.873  -0.058  0.00  0.00    -0.324 N 
ATOM     10  C   UNL d   1      27.796 -16.390  -0.138  0.00  0.00     0.245 C 
ATOM     11  O   UNL d   1      27.895 -17.536  -0.558  0.00  0.00    -0.271 OA
ATOM     12  H   UNL d   1      26.358 -14.876  -0.102  0.00  0.00     0.169 HD
BRANCH  10  13
ATOM     13  C   UNL d   1      29.035 -15.529   0.208  0.00  0.00     0.180 C 
BRANCH  13  14
ATOM     14  N   UNL d   1      29.015 -14.993   1.611  0.00  0.00    -0.343 N 
ATOM     15  C   UNL d   1      27.996 -14.214   2.162  0.00  0.00     0.252 C 
ATOM     16  O   UNL d   1      27.000 -13.759   1.615  0.00  0.00    -0.268 OA
ATOM     17  H   UNL d   1      29.575 -15.502   2.281  0.00  0.00     0.163 HD
BRANCH  15  18
ATOM     18  C   UNL d   1      28.021 -13.903   3.594  0.00  0.00     0.032 A 
ATOM     19  C   UNL d   1      27.780 -12.560   3.947  0.00  0.00     0.017 A 
ATOM     20  C   UNL d   1      27.956 -12.137   5.254  0.00  0.00     0.001 A 
ATOM     21  C   UNL d   1      28.280 -13.075   6.227  0.00  0.00     0.000 A 
ATOM     22  C   UNL d   1      28.529 -14.408   5.877  0.00  0.00     0.001 A 
ATOM     23  C   UNL d   1      28.422 -14.825   4.551  0.00  0.00     0.017 A 
ENDBRANCH  15  18
ENDBRANCH  13  14
BRANCH  13  24
ATOM     24  C   UNL d   1      30.322 -16.311  -0.144  0.00  0.00     0.009 C 
ATOM     25  C   UNL d   1      31.525 -15.708   0.570  0.00  0.00     0.012 C 
ATOM     26  C   UNL d   1      30.585 -16.390  -1.649  0.00  0.00     0.012 C 
ENDBRANCH  13  24
ENDBRANCH  10  13
ENDBRANCH   1   9
TORSDOF 5
ENDMDL
MODEL 5
REMARK VINA RESULT:    -6.602      2.363      4.405
REMARK INTER + INTRA:         -10.326
REMARK INTER:                  -8.093
REMARK INTRA:                  -2.233
REMARK CONF_INDEPENDENT:        1.492
REMARK UNBOUND:                -2.233
REMARK  5 active torsions:
REMARK  status: ('A' for Active; 'I' for Inactive)
REMARK    1  A    between atoms: C_4  and  C_2 
REMARK    2  A    between atoms: C_4  and  C_14 
REMARK    3  A    between atoms: C_4  and  N_5 
REMARK       I    between atoms: N_5  and  C_6 
REMARK    4  A    between atoms: C_6  and  C_8 
REMARK       I    between atoms: C_14  and  N_16 
REMARK    5  A    between atoms: N_16  and  C_17 
ROOT
ATOM      1  C   UNL d   1      26.306 -12.585  -3.635  0.00  0.00     0.055 A 
ATOM      2  C   UNL d   1      25.907 -11.294  -3.266  0.00  0.00     0.031 A 
ATOM      3  C   UNL d   1      25.762 -10.304  -4.246  0.00  0.00     0.002 A 
ATOM      4  C   UNL d   1      26.107 -10.565  -5.572  0.00  0.00     0.002 A 
ATOM      5  C   UNL d   1      26.561 -11.827  -5.939  0.00  0.00     0.025 A 
ATOM      6  C   UNL d   1      26.661 -12.846  -4.989  0.00  0.00     0.071 A 
ATOM      7  C   UNL d   1      27.079 -14.140  -5.469  0.00  0.00     0.102 C 
ATOM      8  N   UNL d   1      27.409 -15.200  -5.843  0.00  0.00    -0.191 NA
ENDROOT
BRANCH   1   9
ATOM      9  N   UNL d   1      26.345 -13.611  -2.636  0.00  0.00    -0.324 N 
ATOM     10  C   UNL d   1      27.489 -13.690  -1.869  0.00  0.00     0.245 C 
ATOM     11  O   UNL d   1      28.325 -12.812  -2.044  0.00  0.00    -0.271 OA
ATOM     12  H   UNL d   1      25.477 -14.020  -2.317  0.00  0.00     0.169 HD
BRANCH  10  13
ATOM     13  C   UNL d   1      27.661 -14.787  -0.790  0.00  0.00     0.180 C 
BRANCH  13  14
ATOM     14  N   UNL d   1      26.377 -15.487  -0.443  0.00  0.00    -0.343 N 
ATOM     15  C   UNL d   1      25.533 -16.121  -1.357  0.00  0.00     0.252 C 
ATOM     16  O   UNL d   1      25.617 -16.159  -2.577  0.00  0.00    -0.268 OA
ATOM     17  H   UNL d   1      26.304 -15.819   0.509  0.00  0.00     0.163 HD
BRANCH  15  18
ATOM     18  C   UNL d   1      24.403 -16.913  -0.864  0.00  0.00     0.032 A 
ATOM     19  C   UNL d   1      24.683 -18.247  -0.504  0.00  0.00     0.017 A 
ATOM     20  C   UNL d   1      23.654 -19.120  -0.195  0.00  0.00     0.001 A 
ATOM     21  C   UNL d   1      22.351 -18.637  -0.153  0.00  0.00     0.000 A 
ATOM     22  C   UNL d   1      22.069 -17.314  -0.520  0.00  0.00     0.001 A 
ATOM     23  C   UNL d   1      23.095 -16.450  -0.899  0.00  0.00     0.017 A 
ENDBRANCH  15  18
ENDBRANCH  13  14
BRANCH  13  24
ATOM     24  C   UNL d   1      28.804 -15.743  -1.201  0.00  0.00     0.009 C 
ATOM     25  C   UNL d   1      28.823 -15.933  -2.711  0.00  0.00     0.012 C 
ATOM     26  C   UNL d   1      28.735 -17.100  -0.498  0.00  0.00     0.012 C 
ENDBRANCH  13  24
ENDBRANCH  10  13
ENDBRANCH   1   9
TORSDOF 5
ENDMDL
MODEL 6
REMARK VINA RESULT:    -6.581      1.005      2.150
REMARK INTER + INTRA:         -10.296
REMARK INTER:                  -8.072
REMARK INTRA:                  -2.224
REMARK CONF_INDEPENDENT:        1.492
REMARK UNBOUND:                -2.224
REMARK  5 active torsions:
REMARK  status: ('A' for Active; 'I' for Inactive)
REMARK    1  A    between atoms: C_4  and  C_2 
REMARK    2  A    between atoms: C_4  and  C_14 
REMARK    3  A    between atoms: C_4  and  N_5 
REMARK       I    between atoms: N_5  and  C_6 
REMARK    4  A    between atoms: C_6  and  C_8 
REMARK       I    between atoms: C_14  and  N_16 
REMARK    5  A    between atoms: N_16  and  C_17 
ROOT
ATOM      1  C   UNL d   1      29.285 -14.992  -5.249  0.00  0.00     0.055 A 
ATOM      2  C   UNL d   1      29.593 -14.371  -6.465  0.00  0.00     0.031 A 
ATOM      3  C   UNL d   1      30.618 -14.885  -7.269  0.00  0.00     0.002 A 
ATOM      4  C   UNL d   1      31.400 -15.950  -6.824  0.00  0.00     0.002 A 
ATOM      5  C   UNL d   1      31.140 -16.538  -5.591  0.00  0.00     0.025 A 
ATOM      6  C   UNL d   1      30.088 -16.077  -4.796  0.00  0.00     0.071 A 
ATOM      7  C   UNL d   1      29.850 -16.786  -3.562  0.00  0.00     0.102 C 
ATOM      8  N   UNL d   1      29.636 -17.355  -2.562  0.00  0.00    -0.191 NA
ENDROOT
BRANCH   1   9
ATOM      9  N   UNL d   1      28.165 -14.518  -4.492  0.00  0.00    -0.324 N 
ATOM     10  C   UNL d   1      26.921 -14.644  -5.077  0.00  0.00     0.245 C 
ATOM     11  O   UNL d   1      26.878 -15.242  -6.145  0.00  0.00    -0.271 OA
ATOM     12  H   UNL d   1      28.259 -14.404  -3.492  0.00  0.00     0.169 HD
BRANCH  10  13
ATOM     13  C   UNL d   1      25.643 -14.127  -4.371  0.00  0.00     0.180 C 
BRANCH  13  14
ATOM     14  N   UNL d   1      25.125 -15.064  -3.317  0.00  0.00    -0.343 N 
ATOM     15  C   UNL d   1      25.916 -15.801  -2.433  0.00  0.00     0.252 C 
ATOM     16  O   UNL d   1      27.135 -15.896  -2.396  0.00  0.00    -0.268 OA
ATOM     17  H   UNL d   1      24.181 -14.886  -3.001  0.00  0.00     0.163 HD
BRANCH  15  18
ATOM     18  C   UNL d   1      25.278 -16.544  -1.343  0.00  0.00     0.032 A 
ATOM     19  C   UNL d   1      26.129 -17.318  -0.529  0.00  0.00     0.017 A 
ATOM     20  C   UNL d   1      25.601 -18.186   0.411  0.00  0.00     0.001 A 
ATOM     21  C   UNL d   1      24.225 -18.213   0.605  0.00  0.00     0.000 A 
ATOM     22  C   UNL d   1      23.376 -17.452  -0.209  0.00  0.00     0.001 A 
ATOM     23  C   UNL d   1      23.899 -16.627  -1.205  0.00  0.00     0.017 A 
ENDBRANCH  15  18
ENDBRANCH  13  14
BRANCH  13  24
ATOM     24  C   UNL d   1      25.880 -12.686  -3.864  0.00  0.00     0.009 C 
ATOM     25  C   UNL d   1      26.474 -11.823  -4.969  0.00  0.00     0.012 C 
ATOM     26  C   UNL d   1      26.760 -12.624  -2.614  0.00  0.00     0.012 C 
ENDBRANCH  13  24
ENDBRANCH  10  13
ENDBRANCH   1   9
TORSDOF 5
ENDMDL
MODEL 7
REMARK VINA RESULT:    -6.535      4.013      6.998
REMARK INTER + INTRA:         -10.112
REMARK INTER:                  -8.026
REMARK INTRA:                  -2.086
REMARK CONF_INDEPENDENT:        1.492
REMARK UNBOUND:                -2.086
REMARK  5 active torsions:
REMARK  status: ('A' for Active; 'I' for Inactive)
REMARK    1  A    between atoms: C_4  and  C_2 
REMARK    2  A    between atoms: C_4  and  C_14 
REMARK    3  A    between atoms: C_4  and  N_5 
REMARK       I    between atoms: N_5  and  C_6 
REMARK    4  A    between atoms: C_6  and  C_8 
REMARK       I    between atoms: C_14  and  N_16 
REMARK    5  A    between atoms: N_16  and  C_17 
ROOT
ATOM      1  C   UNL d   1      24.260 -16.713  -0.410  0.00  0.00     0.055 A 
ATOM      2  C   UNL d   1      22.959 -16.387  -0.812  0.00  0.00     0.031 A 
ATOM      3  C   UNL d   1      21.984 -17.388  -0.895  0.00  0.00     0.002 A 
ATOM      4  C   UNL d   1      22.321 -18.724  -0.676  0.00  0.00     0.002 A 
ATOM      5  C   UNL d   1      23.624 -19.067  -0.333  0.00  0.00     0.025 A 
ATOM      6  C   UNL d   1      24.601 -18.079  -0.190  0.00  0.00     0.071 A 
ATOM      7  C   UNL d   1      25.909 -18.517   0.230  0.00  0.00     0.102 C 
ATOM      8  N   UNL d   1      26.974 -18.854   0.579  0.00  0.00    -0.191 NA
ENDROOT
BRANCH   1   9
ATOM      9  N   UNL d   1      25.215 -15.661  -0.226  0.00  0.00    -0.324 N 
ATOM     10  C   UNL d   1      25.986 -15.324  -1.320  0.00  0.00     0.245 C 
ATOM     11  O   UNL d   1      25.713 -15.885  -2.374  0.00  0.00    -0.271 OA
ATOM     12  H   UNL d   1      25.096 -15.017   0.543  0.00  0.00     0.169 HD
BRANCH  10  13
ATOM     13  C   UNL d   1      27.080 -14.232  -1.228  0.00  0.00     0.180 C 
BRANCH  13  14
ATOM     14  N   UNL d   1      27.700 -14.125   0.137  0.00  0.00    -0.343 N 
ATOM     15  C   UNL d   1      27.048 -13.671   1.285  0.00  0.00     0.252 C 
ATOM     16  O   UNL d   1      25.920 -13.209   1.392  0.00  0.00    -0.268 OA
ATOM     17  H   UNL d   1      28.493 -14.729   0.305  0.00  0.00     0.163 HD
BRANCH  15  18
ATOM     18  C   UNL d   1      27.718 -13.779   2.584  0.00  0.00     0.032 A 
ATOM     19  C   UNL d   1      29.080 -14.139   2.558  0.00  0.00     0.017 A 
ATOM     20  C   UNL d   1      29.749 -14.436   3.734  0.00  0.00     0.001 A 
ATOM     21  C   UNL d   1      29.084 -14.281   4.944  0.00  0.00     0.000 A 
ATOM     22  C   UNL d   1      27.727 -13.932   4.972  0.00  0.00     0.001 A 
ATOM     23  C   UNL d   1      27.030 -13.700   3.787  0.00  0.00     0.017 A 
ENDBRANCH  15  18
ENDBRANCH  13  14
BRANCH  13  24
ATOM     24  C   UNL d   1      28.107 -14.431  -2.367  0.00  0.00     0.009 C 
ATOM     25  C   UNL d   1      27.499 -14.040  -3.707  0.00  0.00     0.012 C 
ATOM     26  C   UNL d   1      28.663 -15.854  -2.433  0.00  0.00     0.012 C 
ENDBRANCH  13  24
ENDBRANCH  10  13
ENDBRANCH   1   9
TORSDOF 5
ENDMDL
MODEL 8
REMARK VINA RESULT:    -6.500      4.125      6.223
REMARK INTER + INTRA:         -10.146
REMARK INTER:                  -7.992
REMARK INTRA:                  -2.155
REMARK CONF_INDEPENDENT:        1.492
REMARK UNBOUND:                -2.155
REMARK  5 active torsions:
REMARK  status: ('A' for Active; 'I' for Inactive)
REMARK    1  A    between atoms: C_4  and  C_2 
REMARK    2  A    between atoms: C_4  and  C_14 
REMARK    3  A    between atoms: C_4  and  N_5 
REMARK       I    between atoms: N_5  and  C_6 
REMARK    4  A    between atoms: C_6  and  C_8 
REMARK       I    between atoms: C_14  and  N_16 
REMARK    5  A    between atoms: N_16  and  C_17 
ROOT
ATOM      1  C   UNL d   1      26.488 -12.795  -2.418  0.00  0.00     0.055 A 
ATOM      2  C   UNL d   1      26.808 -11.456  -2.161  0.00  0.00     0.031 A 
ATOM      3  C   UNL d   1      26.704 -10.506  -3.185  0.00  0.00     0.002 A 
ATOM      4  C   UNL d   1      26.379 -10.898  -4.483  0.00  0.00     0.002 A 
ATOM      5  C   UNL d   1      26.117 -12.235  -4.763  0.00  0.00     0.025 A 
ATOM      6  C   UNL d   1      26.161 -13.191  -3.746  0.00  0.00     0.071 A 
ATOM      7  C   UNL d   1      25.812 -14.543  -4.113  0.00  0.00     0.102 C 
ATOM      8  N   UNL d   1      25.524 -15.643  -4.390  0.00  0.00    -0.191 NA
ENDROOT
BRANCH   1   9
ATOM      9  N   UNL d   1      26.496 -13.731  -1.334  0.00  0.00    -0.324 N 
ATOM     10  C   UNL d   1      27.578 -14.585  -1.257  0.00  0.00     0.245 C 
ATOM     11  O   UNL d   1      28.480 -14.395  -2.064  0.00  0.00    -0.271 OA
ATOM     12  H   UNL d   1      25.919 -13.551  -0.524  0.00  0.00     0.169 HD
BRANCH  10  13
ATOM     13  C   UNL d   1      27.673 -15.667  -0.154  0.00  0.00     0.180 C 
BRANCH  13  14
ATOM     14  N   UNL d   1      28.084 -15.119   1.183  0.00  0.00    -0.343 N 
ATOM     15  C   UNL d   1      27.468 -14.053   1.842  0.00  0.00     0.252 C 
ATOM     16  O   UNL d   1      26.567 -13.326   1.445  0.00  0.00    -0.268 OA
ATOM     17  H   UNL d   1      28.585 -15.761   1.782  0.00  0.00     0.163 HD
BRANCH  15  18
ATOM     18  C   UNL d   1      27.861 -13.732   3.217  0.00  0.00     0.032 A 
ATOM     19  C   UNL d   1      28.170 -14.826   4.051  0.00  0.00     0.017 A 
ATOM     20  C   UNL d   1      28.379 -14.636   5.406  0.00  0.00     0.001 A 
ATOM     21  C   UNL d   1      28.375 -13.341   5.913  0.00  0.00     0.000 A 
ATOM     22  C   UNL d   1      28.059 -12.254   5.088  0.00  0.00     0.001 A 
ATOM     23  C   UNL d   1      27.778 -12.448   3.736  0.00  0.00     0.017 A 
ENDBRANCH  15  18
ENDBRANCH  13  14
BRANCH  13  24
ATOM     24  C   UNL d   1      26.361 -16.485  -0.118  0.00  0.00     0.009 C 
ATOM     25  C   UNL d   1      26.579 -17.809   0.603  0.00  0.00     0.012 C 
ATOM     26  C   UNL d   1      25.767 -16.730  -1.506  0.00  0.00     0.012 C 
ENDBRANCH  13  24
ENDBRANCH  10  13
ENDBRANCH   1   9
TORSDOF 5
ENDMDL
MODEL 9
REMARK VINA RESULT:    -6.338      3.611      5.299
REMARK INTER + INTRA:          -9.927
REMARK INTER:                  -7.830
REMARK INTRA:                  -2.098
REMARK CONF_INDEPENDENT:        1.492
REMARK UNBOUND:                -2.098
REMARK  5 active torsions:
REMARK  status: ('A' for Active; 'I' for Inactive)
REMARK    1  A    between atoms: C_4  and  C_2 
REMARK    2  A    between atoms: C_4  and  C_14 
REMARK    3  A    between atoms: C_4  and  N_5 
REMARK       I    between atoms: N_5  and  C_6 
REMARK    4  A    between atoms: C_6  and  C_8 
REMARK       I    between atoms: C_14  and  N_16 
REMARK    5  A    between atoms: N_16  and  C_17 
ROOT
ATOM      1  C   UNL d   1      27.982 -14.652  -3.386  0.00  0.00     0.055 A 
ATOM      2  C   UNL d   1      29.339 -14.594  -3.730  0.00  0.00     0.031 A 
ATOM      3  C   UNL d   1      29.714 -14.191  -5.017  0.00  0.00     0.002 A 
ATOM      4  C   UNL d   1      28.747 -13.942  -5.991  0.00  0.00     0.002 A 
ATOM      5  C   UNL d   1      27.396 -14.053  -5.676  0.00  0.00     0.025 A 
ATOM      6  C   UNL d   1      26.998 -14.400  -4.384  0.00  0.00     0.071 A 
ATOM      7  C   UNL d   1      25.578 -14.430  -4.130  0.00  0.00     0.102 C 
ATOM      8  N   UNL d   1      24.430 -14.451  -3.903  0.00  0.00    -0.191 NA
ENDROOT
BRANCH   1   9
ATOM      9  N   UNL d   1      27.622 -14.961  -2.034  0.00  0.00    -0.324 N 
ATOM     10  C   UNL d   1      27.881 -16.245  -1.600  0.00  0.00     0.245 C 
ATOM     11  O   UNL d   1      28.489 -16.971  -2.376  0.00  0.00    -0.271 OA
ATOM     12  H   UNL d   1      27.490 -14.207  -1.375  0.00  0.00     0.169 HD
BRANCH  10  13
ATOM     13  C   UNL d   1      27.494 -16.706  -0.173  0.00  0.00     0.180 C 
BRANCH  13  14
ATOM     14  N   UNL d   1      27.892 -15.728   0.897  0.00  0.00    -0.343 N 
ATOM     15  C   UNL d   1      27.285 -14.492   1.125  0.00  0.00     0.252 C 
ATOM     16  O   UNL d   1      26.405 -13.941   0.478  0.00  0.00    -0.268 OA
ATOM     17  H   UNL d   1      28.370 -16.125   1.694  0.00  0.00     0.163 HD
BRANCH  15  18
ATOM     18  C   UNL d   1      27.658 -13.714   2.310  0.00  0.00     0.032 A 
ATOM     19  C   UNL d   1      28.020 -14.451   3.455  0.00  0.00     0.017 A 
ATOM     20  C   UNL d   1      28.218 -13.812   4.666  0.00  0.00     0.001 A 
ATOM     21  C   UNL d   1      28.149 -12.424   4.714  0.00  0.00     0.000 A 
ATOM     22  C   UNL d   1      27.780 -11.689   3.579  0.00  0.00     0.001 A 
ATOM     23  C   UNL d   1      27.512 -12.335   2.373  0.00  0.00     0.017 A 
ENDBRANCH  15  18
ENDBRANCH  13  14
BRANCH  13  24
ATOM     24  C   UNL d   1      25.997 -17.091  -0.142  0.00  0.00     0.009 C 
ATOM     25  C   UNL d   1      25.831 -18.551   0.259  0.00  0.00     0.012 C 
ATOM     26  C   UNL d   1      25.279 -16.821  -1.466  0.00  0.00     0.012 C 
ENDBRANCH  13  24
ENDBRANCH  10  13
ENDBRANCH   1   9
TORSDOF 5
ENDMDL
