MODEL 1
REMARK VINA RESULT:    -8.498      0.000      0.000
REMARK INTER + INTRA:         -14.663
REMARK INTER:                 -12.078
REMARK INTRA:                  -2.585
REMARK CONF_INDEPENDENT:        3.580
REMARK UNBOUND:                -2.585
REMARK  12 active torsions:
REMARK  status: ('A' for Active; 'I' for Inactive)
REMARK    1  A    between atoms: C_2  and  C_3 
REMARK    2  A    between atoms: C_3  and  C_4 
REMARK    3  A    between atoms: C_4  and  C_5 
REMARK    4  A    between atoms: C_5  and  C_6 
REMARK    5  A    between atoms: C_6  and  C_7 
REMARK    6  A    between atoms: C_6  and  N_21 
REMARK       I    between atoms: C_7  and  N_9 
REMARK    7  A    between atoms: N_9  and  C_10 
REMARK    8  A    between atoms: C_10  and  S_11 
REMARK    9  A    between atoms: S_11  and  C_14 
REMARK       I    between atoms: N_21  and  C_23 
REMARK   10  A    between atoms: C_23  and  C_25 
REMARK   11  A    between atoms: C_27  and  N_28 
REMARK   12  A    between atoms: C_32  and  N_33 
ROOT
ATOM      1  C   UNL d   1      28.388 -14.084   3.620  0.00  0.00     0.179 C 
ENDROOT
BRANCH   1   2
ATOM      2  C   UNL d   1      27.393 -13.585   4.672  0.00  0.00     0.035 C 
BRANCH   2   3
ATOM      3  C   UNL d   1      28.060 -13.391   6.021  0.00  0.00     0.002 C 
BRANCH   3   4
ATOM      4  C   UNL d   1      29.083 -14.448   6.281  0.00  0.00    -0.000 C 
BRANCH   4   5
ATOM      5  C   UNL d   1      30.206 -13.811   7.082  0.00  0.00    -0.005 C 
ATOM      6  C   UNL d   1      29.869 -12.362   7.313  0.00  0.00     0.005 C 
ENDBRANCH   4   5
ENDBRANCH   3   4
ENDBRANCH   2   3
ENDBRANCH   1   2
BRANCH   1   7
ATOM      7  C   UNL d   1      27.458 -14.145   2.377  0.00  0.00     0.241 C 
ATOM      8  O   UNL d   1      26.546 -13.340   2.221  0.00  0.00    -0.271 OA
ATOM      9  N   UNL d   1      27.820 -15.116   1.431  0.00  0.00    -0.346 N 
ATOM     10  H   UNL d   1      28.392 -15.908   1.703  0.00  0.00     0.163 HD
BRANCH   9  11
ATOM     11  C   UNL d   1      27.187 -15.232   0.115  0.00  0.00     0.268 C 
BRANCH  11  12
ATOM     12  S   UNL d   1      27.071 -16.810  -0.687  0.00  0.00     0.192 S 
ATOM     13  O   UNL d   1      27.373 -16.611  -2.084  0.00  0.00    -0.221 OA
ATOM     14  O   UNL d   1      27.859 -17.745   0.113  0.00  0.00    -0.221 OA
BRANCH  12  15
ATOM     15  C   UNL d   1      25.346 -17.274  -0.552  0.00  0.00     0.060 A 
ATOM     16  C   UNL d   1      24.331 -16.383  -0.925  0.00  0.00     0.024 A 
ATOM     17  C   UNL d   1      22.990 -16.805  -0.903  0.00  0.00     0.008 A 
ATOM     18  C   UNL d   1      22.656 -18.111  -0.520  0.00  0.00    -0.062 A 
ATOM     19  C   UNL d   1      21.224 -18.574  -0.502  0.00  0.00     0.048 C 
ATOM     20  C   UNL d   1      23.681 -18.989  -0.150  0.00  0.00     0.008 A 
ATOM     21  C   UNL d   1      25.018 -18.574  -0.164  0.00  0.00     0.024 A 
ENDBRANCH  12  15
ENDBRANCH  11  12
ENDBRANCH   9  11
ENDBRANCH   1   7
BRANCH   1  22
ATOM     22  N   UNL d   1      29.608 -13.219   3.431  0.00  0.00    -0.339 N 
ATOM     23  C   UNL d   1      30.933 -13.847   3.571  0.00  0.00     0.154 C 
ATOM     24  C   UNL d   1      29.610 -11.894   2.891  0.00  0.00     0.254 C 
ATOM     25  O   UNL d   1      30.504 -11.521   2.127  0.00  0.00    -0.267 OA
BRANCH  24  26
ATOM     26  C   UNL d   1      28.646 -10.810   3.380  0.00  0.00     0.036 C 
ATOM     27  C   UNL d   1      27.593 -10.297   2.625  0.00  0.00     0.053 C 
ATOM     28  C   UNL d   1      26.814  -9.220   3.148  0.00  0.00     0.106 C 
ATOM     29  C   UNL d   1      27.142  -8.545   4.327  0.00  0.00     0.072 C 
ATOM     30  C   UNL d   1      28.214  -9.006   5.024  0.00  0.00     0.106 C 
ATOM     31  C   UNL d   1      28.781 -10.213   4.621  0.00  0.00     0.053 C 
BRANCH  28  32
ATOM     32  N   UNL d   1      25.610  -8.765   2.464  0.00  0.00    -0.116 N 
ATOM     33  O   UNL d   1      24.701  -9.583   2.304  0.00  0.00    -0.532 OA
ATOM     34  O   UNL d   1      25.576  -7.579   2.107  0.00  0.00    -0.532 OA
ENDBRANCH  28  32
BRANCH  30  35
ATOM     35  N   UNL d   1      28.681  -8.235   6.172  0.00  0.00    -0.116 N 
ATOM     36  O   UNL d   1      28.819  -7.014   6.025  0.00  0.00    -0.532 OA
ATOM     37  O   UNL d   1      28.918  -8.835   7.224  0.00  0.00    -0.532 OA
ENDBRANCH  30  35
ENDBRANCH  24  26
ENDBRANCH   1  22
TORSDOF 12
ENDMDL
MODEL 2
REMARK VINA RESULT:    -8.399      0.958      2.599
REMARK INTER + INTRA:         -14.546
REMARK INTER:                 -11.978
REMARK INTRA:                  -2.568
REMARK CONF_INDEPENDENT:        3.580
REMARK UNBOUND:                -2.568
REMARK  12 active torsions:
REMARK  status: ('A' for Active; 'I' for Inactive)
REMARK    1  A    between atoms: C_2  and  C_3 
REMARK    2  A    between atoms: C_3  and  C_4 
REMARK    3  A    between atoms: C_4  and  C_5 
REMARK    4  A    between atoms: C_5  and  C_6 
REMARK    5  A    between atoms: C_6  and  C_7 
REMARK    6  A    between atoms: C_6  and  N_21 
REMARK       I    between atoms: C_7  and  N_9 
REMARK    7  A    between atoms: N_9  and  C_10 
REMARK    8  A    between atoms: C_10  and  S_11 
REMARK    9  A    between atoms: S_11  and  C_14 
REMARK       I    between atoms: N_21  and  C_23 
REMARK   10  A    between atoms: C_23  and  C_25 
REMARK   11  A    between atoms: C_27  and  N_28 
REMARK   12  A    between atoms: C_32  and  N_33 
ROOT
ATOM      1  C   UNL d   1      28.186 -14.066   2.627  0.00  0.00     0.179 C 
ENDROOT
BRANCH   1   2
ATOM      2  C   UNL d   1      27.472 -13.587   3.895  0.00  0.00     0.035 C 
BRANCH   2   3
ATOM      3  C   UNL d   1      27.720 -14.524   5.062  0.00  0.00     0.002 C 
BRANCH   3   4
ATOM      4  C   UNL d   1      29.175 -14.608   5.394  0.00  0.00    -0.000 C 
BRANCH   4   5
ATOM      5  C   UNL d   1      29.443 -13.632   6.527  0.00  0.00    -0.005 C 
ATOM      6  C   UNL d   1      28.151 -12.952   6.892  0.00  0.00     0.005 C 
ENDBRANCH   4   5
ENDBRANCH   3   4
ENDBRANCH   2   3
ENDBRANCH   1   2
BRANCH   1   7
ATOM      7  C   UNL d   1      27.028 -13.934   1.599  0.00  0.00     0.241 C 
ATOM      8  O   UNL d   1      26.138 -13.103   1.743  0.00  0.00    -0.271 OA
ATOM      9  N   UNL d   1      27.157 -14.762   0.474  0.00  0.00    -0.346 N 
ATOM     10  H   UNL d   1      27.738 -15.593   0.512  0.00  0.00     0.163 HD
BRANCH   9  11
ATOM     11  C   UNL d   1      26.275 -14.678  -0.692  0.00  0.00     0.268 C 
BRANCH  11  12
ATOM     12  S   UNL d   1      26.051 -16.084  -1.751  0.00  0.00     0.192 S 
ATOM     13  O   UNL d   1      25.712 -15.590  -3.064  0.00  0.00    -0.221 OA
ATOM     14  O   UNL d   1      27.220 -16.940  -1.561  0.00  0.00    -0.221 OA
BRANCH  12  15
ATOM     15  C   UNL d   1      24.621 -16.938  -1.092  0.00  0.00     0.060 A 
ATOM     16  C   UNL d   1      23.342 -16.372  -1.180  0.00  0.00     0.024 A 
ATOM     17  C   UNL d   1      22.223 -17.105  -0.745  0.00  0.00     0.008 A 
ATOM     18  C   UNL d   1      22.371 -18.400  -0.231  0.00  0.00    -0.062 A 
ATOM     19  C   UNL d   1      21.179 -19.194   0.229  0.00  0.00     0.048 C 
ATOM     20  C   UNL d   1      23.655 -18.952  -0.150  0.00  0.00     0.008 A 
ATOM     21  C   UNL d   1      24.774 -18.226  -0.575  0.00  0.00     0.024 A 
ENDBRANCH  12  15
ENDBRANCH  11  12
ENDBRANCH   9  11
ENDBRANCH   1   7
BRANCH   1  22
ATOM     22  N   UNL d   1      29.425 -13.292   2.258  0.00  0.00    -0.339 N 
ATOM     23  C   UNL d   1      30.670 -14.043   2.022  0.00  0.00     0.154 C 
ATOM     24  C   UNL d   1      29.459 -11.912   1.879  0.00  0.00     0.254 C 
ATOM     25  O   UNL d   1      30.202 -11.520   0.975  0.00  0.00    -0.267 OA
BRANCH  24  26
ATOM     26  C   UNL d   1      28.752 -10.823   2.689  0.00  0.00     0.036 C 
ATOM     27  C   UNL d   1      29.017 -10.544   4.028  0.00  0.00     0.053 C 
ATOM     28  C   UNL d   1      28.229  -9.567   4.710  0.00  0.00     0.106 C 
ATOM     29  C   UNL d   1      27.099  -8.970   4.146  0.00  0.00     0.072 C 
ATOM     30  C   UNL d   1      26.804  -9.299   2.860  0.00  0.00     0.106 C 
ATOM     31  C   UNL d   1      27.741 -10.047   2.150  0.00  0.00     0.053 C 
BRANCH  28  32
ATOM     32  N   UNL d   1      28.577  -9.131   6.057  0.00  0.00    -0.116 N 
ATOM     33  O   UNL d   1      28.650  -9.995   6.935  0.00  0.00    -0.532 OA
ATOM     34  O   UNL d   1      28.794  -7.923   6.223  0.00  0.00    -0.532 OA
ENDBRANCH  28  32
BRANCH  30  35
ATOM     35  N   UNL d   1      25.549  -8.819   2.290  0.00  0.00    -0.116 N 
ATOM     36  O   UNL d   1      25.532  -7.673   1.826  0.00  0.00    -0.532 OA
ATOM     37  O   UNL d   1      24.573  -9.574   2.304  0.00  0.00    -0.532 OA
ENDBRANCH  30  35
ENDBRANCH  24  26
ENDBRANCH   1  22
TORSDOF 12
ENDMDL
MODEL 3
REMARK VINA RESULT:    -8.136      3.693      6.033
REMARK INTER + INTRA:         -14.101
REMARK INTER:                 -11.715
REMARK INTRA:                  -2.386
REMARK CONF_INDEPENDENT:        3.580
REMARK UNBOUND:                -2.386
REMARK  12 active torsions:
REMARK  status: ('A' for Active; 'I' for Inactive)
REMARK    1  A    between atoms: C_2  and  C_3 
REMARK    2  A    between atoms: C_3  and  C_4 
REMARK    3  A    between atoms: C_4  and  C_5 
REMARK    4  A    between atoms: C_5  and  C_6 
REMARK    5  A    between atoms: C_6  and  C_7 
REMARK    6  A    between atoms: C_6  and  N_21 
REMARK       I    between atoms: C_7  and  N_9 
REMARK    7  A    between atoms: N_9  and  C_10 
REMARK    8  A    between atoms: C_10  and  S_11 
REMARK    9  A    between atoms: S_11  and  C_14 
REMARK       I    between atoms: N_21  and  C_23 
REMARK   10  A    between atoms: C_23  and  C_25 
REMARK   11  A    between atoms: C_27  and  N_28 
REMARK   12  A    between atoms: C_32  and  N_33 
ROOT
ATOM      1  C   UNL d   1      26.268 -12.229  -3.163  0.00  0.00     0.179 C 
ENDROOT
BRANCH   1   2
ATOM      2  C   UNL d   1      25.856 -12.042  -4.627  0.00  0.00     0.035 C 
BRANCH   2   3
ATOM      3  C   UNL d   1      25.833 -10.576  -5.017  0.00  0.00     0.002 C 
BRANCH   3   4
ATOM      4  C   UNL d   1      25.536  -9.703  -3.842  0.00  0.00    -0.000 C 
BRANCH   4   5
ATOM      5  C   UNL d   1      25.192  -8.322  -4.372  0.00  0.00    -0.005 C 
ATOM      6  C   UNL d   1      24.268  -8.477  -5.550  0.00  0.00     0.005 C 
ENDBRANCH   4   5
ENDBRANCH   3   4
ENDBRANCH   2   3
ENDBRANCH   1   2
BRANCH   1   7
ATOM      7  C   UNL d   1      25.987 -13.748  -2.995  0.00  0.00     0.241 C 
ATOM      8  O   UNL d   1      25.109 -14.310  -3.642  0.00  0.00    -0.271 OA
ATOM      9  N   UNL d   1      26.876 -14.409  -2.135  0.00  0.00    -0.346 N 
ATOM     10  H   UNL d   1      27.400 -13.888  -1.440  0.00  0.00     0.163 HD
BRANCH   9  11
ATOM     11  C   UNL d   1      26.900 -15.863  -1.966  0.00  0.00     0.268 C 
BRANCH  11  12
ATOM     12  S   UNL d   1      26.505 -16.589  -0.396  0.00  0.00     0.192 S 
ATOM     13  O   UNL d   1      27.400 -17.703  -0.193  0.00  0.00    -0.221 OA
ATOM     14  O   UNL d   1      26.455 -15.495   0.571  0.00  0.00    -0.221 OA
BRANCH  12  15
ATOM     15  C   UNL d   1      24.846 -17.239  -0.590  0.00  0.00     0.060 A 
ATOM     16  C   UNL d   1      24.580 -18.601  -0.395  0.00  0.00     0.024 A 
ATOM     17  C   UNL d   1      23.256 -19.069  -0.456  0.00  0.00     0.008 A 
ATOM     18  C   UNL d   1      22.195 -18.187  -0.702  0.00  0.00    -0.062 A 
ATOM     19  C   UNL d   1      20.774 -18.677  -0.760  0.00  0.00     0.048 C 
ATOM     20  C   UNL d   1      22.477 -16.829  -0.894  0.00  0.00     0.008 A 
ATOM     21  C   UNL d   1      23.794 -16.357  -0.841  0.00  0.00     0.024 A 
ENDBRANCH  12  15
ENDBRANCH  11  12
ENDBRANCH   9  11
ENDBRANCH   1   7
BRANCH   1  22
ATOM     22  N   UNL d   1      27.684 -11.828  -2.841  0.00  0.00    -0.339 N 
ATOM     23  C   UNL d   1      28.765 -12.345  -3.698  0.00  0.00     0.154 C 
ATOM     24  C   UNL d   1      28.066 -10.797  -1.925  0.00  0.00     0.254 C 
ATOM     25  O   UNL d   1      29.009 -10.042  -2.176  0.00  0.00    -0.267 OA
BRANCH  24  26
ATOM     26  C   UNL d   1      27.484 -10.700  -0.513  0.00  0.00     0.036 C 
ATOM     27  C   UNL d   1      27.038  -9.517   0.073  0.00  0.00     0.053 C 
ATOM     28  C   UNL d   1      26.600  -9.528   1.433  0.00  0.00     0.106 C 
ATOM     29  C   UNL d   1      26.731 -10.643   2.265  0.00  0.00     0.072 C 
ATOM     30  C   UNL d   1      27.232 -11.776   1.706  0.00  0.00     0.106 C 
ATOM     31  C   UNL d   1      27.398 -11.799   0.323  0.00  0.00     0.053 C 
BRANCH  28  32
ATOM     32  N   UNL d   1      25.978  -8.354   2.030  0.00  0.00    -0.116 N 
ATOM     33  O   UNL d   1      25.157  -7.733   1.348  0.00  0.00    -0.532 OA
ATOM     34  O   UNL d   1      26.302  -8.070   3.191  0.00  0.00    -0.532 OA
ENDBRANCH  28  32
BRANCH  30  35
ATOM     35  N   UNL d   1      27.529 -12.909   2.577  0.00  0.00    -0.116 N 
ATOM     36  O   UNL d   1      28.706 -13.283   2.650  0.00  0.00    -0.532 OA
ATOM     37  O   UNL d   1      26.597 -13.437   3.189  0.00  0.00    -0.532 OA
ENDBRANCH  30  35
ENDBRANCH  24  26
ENDBRANCH   1  22
TORSDOF 12
ENDMDL
MODEL 4
REMARK VINA RESULT:    -8.090      1.725      2.527
REMARK INTER + INTRA:         -14.043
REMARK INTER:                 -11.670
REMARK INTRA:                  -2.374
REMARK CONF_INDEPENDENT:        3.580
REMARK UNBOUND:                -2.374
REMARK  12 active torsions:
REMARK  status: ('A' for Active; 'I' for Inactive)
REMARK    1  A    between atoms: C_2  and  C_3 
REMARK    2  A    between atoms: C_3  and  C_4 
REMARK    3  A    between atoms: C_4  and  C_5 
REMARK    4  A    between atoms: C_5  and  C_6 
REMARK    5  A    between atoms: C_6  and  C_7 
REMARK    6  A    between atoms: C_6  and  N_21 
REMARK       I    between atoms: C_7  and  N_9 
REMARK    7  A    between atoms: N_9  and  C_10 
REMARK    8  A    between atoms: C_10  and  S_11 
REMARK    9  A    between atoms: S_11  and  C_14 
REMARK       I    between atoms: N_21  and  C_23 
REMARK   10  A    between atoms: C_23  and  C_25 
REMARK   11  A    between atoms: C_27  and  N_28 
REMARK   12  A    between atoms: C_32  and  N_33 
ROOT
ATOM      1  C   UNL d   1      29.053 -14.179   3.870  0.00  0.00     0.179 C 
ENDROOT
BRANCH   1   2
ATOM      2  C   UNL d   1      28.304 -14.429   5.183  0.00  0.00     0.035 C 
BRANCH   2   3
ATOM      3  C   UNL d   1      27.695 -13.152   5.729  0.00  0.00     0.002 C 
BRANCH   3   4
ATOM      4  C   UNL d   1      28.168 -12.872   7.119  0.00  0.00    -0.000 C 
BRANCH   4   5
ATOM      5  C   UNL d   1      29.143 -13.972   7.501  0.00  0.00    -0.005 C 
ATOM      6  C   UNL d   1      29.190 -14.071   9.002  0.00  0.00     0.005 C 
ENDBRANCH   4   5
ENDBRANCH   3   4
ENDBRANCH   2   3
ENDBRANCH   1   2
BRANCH   1   7
ATOM      7  C   UNL d   1      27.854 -14.121   2.883  0.00  0.00     0.241 C 
ATOM      8  O   UNL d   1      26.897 -13.381   3.083  0.00  0.00    -0.271 OA
ATOM      9  N   UNL d   1      28.020 -14.897   1.726  0.00  0.00    -0.346 N 
ATOM     10  H   UNL d   1      28.675 -15.672   1.718  0.00  0.00     0.163 HD
BRANCH   9  11
ATOM     11  C   UNL d   1      27.095 -14.857   0.591  0.00  0.00     0.268 C 
BRANCH  11  12
ATOM     12  S   UNL d   1      27.097 -16.160  -0.614  0.00  0.00     0.192 S 
ATOM     13  O   UNL d   1      27.232 -15.549  -1.914  0.00  0.00    -0.221 OA
ATOM     14  O   UNL d   1      28.070 -17.150  -0.157  0.00  0.00    -0.221 OA
BRANCH  12  15
ATOM     15  C   UNL d   1      25.465 -16.891  -0.509  0.00  0.00     0.060 A 
ATOM     16  C   UNL d   1      24.327 -16.169  -0.893  0.00  0.00     0.024 A 
ATOM     17  C   UNL d   1      23.070 -16.797  -0.896  0.00  0.00     0.008 A 
ATOM     18  C   UNL d   1      22.940 -18.142  -0.525  0.00  0.00    -0.062 A 
ATOM     19  C   UNL d   1      21.600 -18.825  -0.534  0.00  0.00     0.048 C 
ATOM     20  C   UNL d   1      24.086 -18.851  -0.145  0.00  0.00     0.008 A 
ATOM     21  C   UNL d   1      25.341 -18.230  -0.134  0.00  0.00     0.024 A 
ENDBRANCH  12  15
ENDBRANCH  11  12
ENDBRANCH   9  11
ENDBRANCH   1   7
BRANCH   1  22
ATOM     22  N   UNL d   1      29.922 -12.948   3.853  0.00  0.00    -0.339 N 
ATOM     23  C   UNL d   1      30.908 -12.779   4.933  0.00  0.00     0.154 C 
ATOM     24  C   UNL d   1      30.051 -12.039   2.755  0.00  0.00     0.254 C 
ATOM     25  O   UNL d   1      31.145 -11.551   2.461  0.00  0.00    -0.267 OA
BRANCH  24  26
ATOM     26  C   UNL d   1      28.837 -11.461   2.024  0.00  0.00     0.036 C 
ATOM     27  C   UNL d   1      28.561 -11.668   0.675  0.00  0.00     0.053 C 
ATOM     28  C   UNL d   1      27.449 -11.001   0.075  0.00  0.00     0.106 C 
ATOM     29  C   UNL d   1      26.697 -10.027   0.738  0.00  0.00     0.072 C 
ATOM     30  C   UNL d   1      27.017  -9.778   2.035  0.00  0.00     0.106 C 
ATOM     31  C   UNL d   1      27.927 -10.631   2.656  0.00  0.00     0.053 C 
BRANCH  28  32
ATOM     32  N   UNL d   1      27.031 -11.315  -1.285  0.00  0.00    -0.116 N 
ATOM     33  O   UNL d   1      26.816 -10.370  -2.049  0.00  0.00    -0.532 OA
ATOM     34  O   UNL d   1      26.939 -12.513  -1.588  0.00  0.00    -0.532 OA
ENDBRANCH  28  32
BRANCH  30  35
ATOM     35  N   UNL d   1      26.361  -8.662   2.711  0.00  0.00    -0.116 N 
ATOM     36  O   UNL d   1      26.668  -8.447   3.890  0.00  0.00    -0.532 OA
ATOM     37  O   UNL d   1      25.536  -7.997   2.079  0.00  0.00    -0.532 OA
ENDBRANCH  30  35
ENDBRANCH  24  26
ENDBRANCH   1  22
TORSDOF 12
ENDMDL
MODEL 5
REMARK VINA RESULT:    -7.769      3.869      7.199
REMARK INTER + INTRA:         -14.335
REMARK INTER:                 -11.349
REMARK INTRA:                  -2.986
REMARK CONF_INDEPENDENT:        3.580
REMARK UNBOUND:                -2.986
REMARK  12 active torsions:
REMARK  status: ('A' for Active; 'I' for Inactive)
REMARK    1  A    between atoms: C_2  and  C_3 
REMARK    2  A    between atoms: C_3  and  C_4 
REMARK    3  A    between atoms: C_4  and  C_5 
REMARK    4  A    between atoms: C_5  and  C_6 
REMARK    5  A    between atoms: C_6  and  C_7 
REMARK    6  A    between atoms: C_6  and  N_21 
REMARK       I    between atoms: C_7  and  N_9 
REMARK    7  A    between atoms: N_9  and  C_10 
REMARK    8  A    between atoms: C_10  and  S_11 
REMARK    9  A    between atoms: S_11  and  C_14 
REMARK       I    between atoms: N_21  and  C_23 
REMARK   10  A    between atoms: C_23  and  C_25 
REMARK   11  A    between atoms: C_27  and  N_28 
REMARK   12  A    between atoms: C_32  and  N_33 
ROOT
ATOM      1  C   UNL d   1      25.081 -16.835  -1.264  0.00  0.00     0.179 C 
ENDROOT
BRANCH   1   2
ATOM      2  C   UNL d   1      23.841 -16.008  -0.911  0.00  0.00     0.035 C 
BRANCH   2   3
ATOM      3  C   UNL d   1      22.689 -16.891  -0.472  0.00  0.00     0.002 C 
BRANCH   3   4
ATOM      4  C   UNL d   1      22.898 -18.310  -0.891  0.00  0.00    -0.000 C 
BRANCH   4   5
ATOM      5  C   UNL d   1      21.851 -19.156  -0.187  0.00  0.00    -0.005 C 
ATOM      6  C   UNL d   1      20.536 -18.980  -0.897  0.00  0.00     0.005 C 
ENDBRANCH   4   5
ENDBRANCH   3   4
ENDBRANCH   2   3
ENDBRANCH   1   2
BRANCH   1   7
ATOM      7  C   UNL d   1      25.611 -16.022  -2.478  0.00  0.00     0.241 C 
ATOM      8  O   UNL d   1      24.906 -15.200  -3.053  0.00  0.00    -0.271 OA
ATOM      9  N   UNL d   1      26.964 -16.242  -2.775  0.00  0.00    -0.346 N 
ATOM     10  H   UNL d   1      27.427 -17.090  -2.464  0.00  0.00     0.163 HD
BRANCH   9  11
ATOM     11  C   UNL d   1      27.708 -15.460  -3.765  0.00  0.00     0.268 C 
BRANCH  11  12
ATOM     12  S   UNL d   1      26.953 -15.016  -5.308  0.00  0.00     0.192 S 
ATOM     13  O   UNL d   1      27.957 -15.146  -6.336  0.00  0.00    -0.221 OA
ATOM     14  O   UNL d   1      25.705 -15.770  -5.394  0.00  0.00    -0.221 OA
BRANCH  12  15
ATOM     15  C   UNL d   1      26.548 -13.279  -5.144  0.00  0.00     0.060 A 
ATOM     16  C   UNL d   1      25.780 -12.819  -4.066  0.00  0.00     0.024 A 
ATOM     17  C   UNL d   1      25.559 -11.440  -3.906  0.00  0.00     0.008 A 
ATOM     18  C   UNL d   1      26.103 -10.517  -4.809  0.00  0.00    -0.062 A 
ATOM     19  C   UNL d   1      25.878  -9.039  -4.640  0.00  0.00     0.048 C 
ATOM     20  C   UNL d   1      26.868 -10.992  -5.881  0.00  0.00     0.008 A 
ATOM     21  C   UNL d   1      27.088 -12.364  -6.050  0.00  0.00     0.024 A 
ENDBRANCH  12  15
ENDBRANCH  11  12
ENDBRANCH   9  11
ENDBRANCH   1   7
BRANCH   1  22
ATOM     22  N   UNL d   1      26.083 -16.996  -0.150  0.00  0.00    -0.339 N 
ATOM     23  C   UNL d   1      26.000 -18.203   0.691  0.00  0.00     0.154 C 
ATOM     24  C   UNL d   1      27.263 -16.205   0.025  0.00  0.00     0.254 C 
ATOM     25  O   UNL d   1      28.321 -16.718   0.397  0.00  0.00    -0.267 OA
BRANCH  24  26
ATOM     26  C   UNL d   1      27.239 -14.676  -0.029  0.00  0.00     0.036 C 
ATOM     27  C   UNL d   1      27.763 -13.919  -1.075  0.00  0.00     0.053 C 
ATOM     28  C   UNL d   1      27.769 -12.494  -0.976  0.00  0.00     0.106 C 
ATOM     29  C   UNL d   1      27.406 -11.810   0.187  0.00  0.00     0.072 C 
ATOM     30  C   UNL d   1      26.961 -12.559   1.230  0.00  0.00     0.106 C 
ATOM     31  C   UNL d   1      26.722 -13.913   1.003  0.00  0.00     0.053 C 
BRANCH  28  32
ATOM     32  N   UNL d   1      28.158 -11.665  -2.110  0.00  0.00    -0.116 N 
ATOM     33  O   UNL d   1      28.902 -12.168  -2.956  0.00  0.00    -0.532 OA
ATOM     34  O   UNL d   1      27.697 -10.516  -2.156  0.00  0.00    -0.532 OA
ENDBRANCH  28  32
BRANCH  30  35
ATOM     35  N   UNL d   1      26.723 -11.898   2.510  0.00  0.00    -0.116 N 
ATOM     36  O   UNL d   1      26.221 -10.767   2.486  0.00  0.00    -0.532 OA
ATOM     37  O   UNL d   1      27.037 -12.493   3.544  0.00  0.00    -0.532 OA
ENDBRANCH  30  35
ENDBRANCH  24  26
ENDBRANCH   1  22
TORSDOF 12
ENDMDL
MODEL 6
REMARK VINA RESULT:    -7.569      4.557      8.105
REMARK INTER + INTRA:         -13.917
REMARK INTER:                 -11.149
REMARK INTRA:                  -2.768
REMARK CONF_INDEPENDENT:        3.580
REMARK UNBOUND:                -2.768
REMARK  12 active torsions:
REMARK  status: ('A' for Active; 'I' for Inactive)
REMARK    1  A    between atoms: C_2  and  C_3 
REMARK    2  A    between atoms: C_3  and  C_4 
REMARK    3  A    between atoms: C_4  and  C_5 
REMARK    4  A    between atoms: C_5  and  C_6 
REMARK    5  A    between atoms: C_6  and  C_7 
REMARK    6  A    between atoms: C_6  and  N_21 
REMARK       I    between atoms: C_7  and  N_9 
REMARK    7  A    between atoms: N_9  and  C_10 
REMARK    8  A    between atoms: C_10  and  S_11 
REMARK    9  A    between atoms: S_11  and  C_14 
REMARK       I    between atoms: N_21  and  C_23 
REMARK   10  A    between atoms: C_23  and  C_25 
REMARK   11  A    between atoms: C_27  and  N_28 
REMARK   12  A    between atoms: C_32  and  N_33 
ROOT
ATOM      1  C   UNL d   1      26.817 -15.969   0.231  0.00  0.00     0.179 C 
ENDROOT
BRANCH   1   2
ATOM      2  C   UNL d   1      25.603 -16.299  -0.644  0.00  0.00     0.035 C 
BRANCH   2   3
ATOM      3  C   UNL d   1      24.923 -17.578  -0.195  0.00  0.00     0.002 C 
BRANCH   3   4
ATOM      4  C   UNL d   1      23.442 -17.501  -0.372  0.00  0.00    -0.000 C 
BRANCH   4   5
ATOM      5  C   UNL d   1      22.935 -18.912  -0.615  0.00  0.00    -0.005 C 
ATOM      6  C   UNL d   1      21.492 -18.983  -0.192  0.00  0.00     0.005 C 
ENDBRANCH   4   5
ENDBRANCH   3   4
ENDBRANCH   2   3
ENDBRANCH   1   2
BRANCH   1   7
ATOM      7  C   UNL d   1      27.933 -16.694  -0.572  0.00  0.00     0.241 C 
ATOM      8  O   UNL d   1      27.699 -17.228  -1.651  0.00  0.00    -0.271 OA
ATOM      9  N   UNL d   1      29.213 -16.589  -0.008  0.00  0.00    -0.346 N 
ATOM     10  H   UNL d   1      29.322 -16.379   0.979  0.00  0.00     0.163 HD
BRANCH   9  11
ATOM     11  C   UNL d   1      30.429 -17.048  -0.681  0.00  0.00     0.268 C 
BRANCH  11  12
ATOM     12  S   UNL d   1      31.095 -16.136  -2.049  0.00  0.00     0.192 S 
ATOM     13  O   UNL d   1      30.312 -14.933  -2.193  0.00  0.00    -0.221 OA
ATOM     14  O   UNL d   1      32.539 -16.058  -1.836  0.00  0.00    -0.221 OA
BRANCH  12  15
ATOM     15  C   UNL d   1      30.797 -17.167  -3.483  0.00  0.00     0.060 A 
ATOM     16  C   UNL d   1      30.532 -16.598  -4.736  0.00  0.00     0.024 A 
ATOM     17  C   UNL d   1      30.399 -17.425  -5.865  0.00  0.00     0.008 A 
ATOM     18  C   UNL d   1      30.537 -18.816  -5.754  0.00  0.00    -0.062 A 
ATOM     19  C   UNL d   1      30.405 -19.708  -6.958  0.00  0.00     0.048 C 
ATOM     20  C   UNL d   1      30.802 -19.370  -4.496  0.00  0.00     0.008 A 
ATOM     21  C   UNL d   1      30.930 -18.552  -3.367  0.00  0.00     0.024 A 
ENDBRANCH  12  15
ENDBRANCH  11  12
ENDBRANCH   9  11
ENDBRANCH   1   7
BRANCH   1  22
ATOM     22  N   UNL d   1      27.071 -14.500   0.445  0.00  0.00    -0.339 N 
ATOM     23  C   UNL d   1      27.045 -13.984   1.825  0.00  0.00     0.154 C 
ATOM     24  C   UNL d   1      27.575 -13.592  -0.541  0.00  0.00     0.254 C 
ATOM     25  O   UNL d   1      28.392 -12.718  -0.240  0.00  0.00    -0.267 OA
BRANCH  24  26
ATOM     26  C   UNL d   1      26.990 -13.510  -1.952  0.00  0.00     0.036 C 
ATOM     27  C   UNL d   1      27.127 -14.505  -2.918  0.00  0.00     0.053 C 
ATOM     28  C   UNL d   1      26.619 -14.279  -4.234  0.00  0.00     0.106 C 
ATOM     29  C   UNL d   1      26.113 -13.046  -4.655  0.00  0.00     0.072 C 
ATOM     30  C   UNL d   1      26.047 -12.057  -3.725  0.00  0.00     0.106 C 
ATOM     31  C   UNL d   1      26.304 -12.394  -2.398  0.00  0.00     0.053 C 
BRANCH  28  32
ATOM     32  N   UNL d   1      26.598 -15.350  -5.223  0.00  0.00    -0.116 N 
ATOM     33  O   UNL d   1      25.532 -15.946  -5.397  0.00  0.00    -0.532 OA
ATOM     34  O   UNL d   1      27.651 -15.575  -5.836  0.00  0.00    -0.532 OA
ENDBRANCH  28  32
BRANCH  30  35
ATOM     35  N   UNL d   1      25.673 -10.716  -4.163  0.00  0.00    -0.116 N 
ATOM     36  O   UNL d   1      25.657 -10.494  -5.380  0.00  0.00    -0.532 OA
ATOM     37  O   UNL d   1      25.398  -9.874  -3.303  0.00  0.00    -0.532 OA
ENDBRANCH  30  35
ENDBRANCH  24  26
ENDBRANCH   1  22
TORSDOF 12
ENDMDL
MODEL 7
REMARK VINA RESULT:    -7.537      3.804      7.340
REMARK INTER + INTRA:         -14.445
REMARK INTER:                 -11.117
REMARK INTRA:                  -3.329
REMARK CONF_INDEPENDENT:        3.580
REMARK UNBOUND:                -3.329
REMARK  12 active torsions:
REMARK  status: ('A' for Active; 'I' for Inactive)
REMARK    1  A    between atoms: C_2  and  C_3 
REMARK    2  A    between atoms: C_3  and  C_4 
REMARK    3  A    between atoms: C_4  and  C_5 
REMARK    4  A    between atoms: C_5  and  C_6 
REMARK    5  A    between atoms: C_6  and  C_7 
REMARK    6  A    between atoms: C_6  and  N_21 
REMARK       I    between atoms: C_7  and  N_9 
REMARK    7  A    between atoms: N_9  and  C_10 
REMARK    8  A    between atoms: C_10  and  S_11 
REMARK    9  A    between atoms: S_11  and  C_14 
REMARK       I    between atoms: N_21  and  C_23 
REMARK   10  A    between atoms: C_23  and  C_25 
REMARK   11  A    between atoms: C_27  and  N_28 
REMARK   12  A    between atoms: C_32  and  N_33 
ROOT
ATOM      1  C   UNL d   1      25.451 -16.961  -0.974  0.00  0.00     0.179 C 
ENDROOT
BRANCH   1   2
ATOM      2  C   UNL d   1      24.335 -16.118  -0.350  0.00  0.00     0.035 C 
BRANCH   2   3
ATOM      3  C   UNL d   1      22.969 -16.730  -0.596  0.00  0.00     0.002 C 
BRANCH   3   4
ATOM      4  C   UNL d   1      23.079 -18.165  -0.998  0.00  0.00    -0.000 C 
BRANCH   4   5
ATOM      5  C   UNL d   1      22.119 -18.959  -0.130  0.00  0.00    -0.005 C 
ATOM      6  C   UNL d   1      20.829 -19.144  -0.885  0.00  0.00     0.005 C 
ENDBRANCH   4   5
ENDBRANCH   3   4
ENDBRANCH   2   3
ENDBRANCH   1   2
BRANCH   1   7
ATOM      7  C   UNL d   1      25.807 -16.074  -2.199  0.00  0.00     0.241 C 
ATOM      8  O   UNL d   1      25.018 -15.245  -2.638  0.00  0.00    -0.271 OA
ATOM      9  N   UNL d   1      27.118 -16.239  -2.671  0.00  0.00    -0.346 N 
ATOM     10  H   UNL d   1      27.634 -17.087  -2.464  0.00  0.00     0.163 HD
BRANCH   9  11
ATOM     11  C   UNL d   1      27.715 -15.386  -3.701  0.00  0.00     0.268 C 
BRANCH  11  12
ATOM     12  S   UNL d   1      26.776 -14.915  -5.130  0.00  0.00     0.192 S 
ATOM     13  O   UNL d   1      27.642 -15.030  -6.278  0.00  0.00    -0.221 OA
ATOM     14  O   UNL d   1      25.522 -15.664  -5.072  0.00  0.00    -0.221 OA
BRANCH  12  15
ATOM     15  C   UNL d   1      26.401 -13.180  -4.888  0.00  0.00     0.060 A 
ATOM     16  C   UNL d   1      25.724 -12.743  -3.742  0.00  0.00     0.024 A 
ATOM     17  C   UNL d   1      25.529 -11.368  -3.528  0.00  0.00     0.008 A 
ATOM     18  C   UNL d   1      26.012 -10.424  -4.445  0.00  0.00    -0.062 A 
ATOM     19  C   UNL d   1      25.816  -8.950  -4.220  0.00  0.00     0.048 C 
ATOM     20  C   UNL d   1      26.687 -10.876  -5.585  0.00  0.00     0.008 A 
ATOM     21  C   UNL d   1      26.879 -12.245  -5.808  0.00  0.00     0.024 A 
ENDBRANCH  12  15
ENDBRANCH  11  12
ENDBRANCH   9  11
ENDBRANCH   1   7
BRANCH   1  22
ATOM     22  N   UNL d   1      26.618 -17.251  -0.066  0.00  0.00    -0.339 N 
ATOM     23  C   UNL d   1      26.661 -18.556   0.616  0.00  0.00     0.154 C 
ATOM     24  C   UNL d   1      27.819 -16.476   0.014  0.00  0.00     0.254 C 
ATOM     25  O   UNL d   1      28.919 -17.021   0.141  0.00  0.00    -0.267 OA
BRANCH  24  26
ATOM     26  C   UNL d   1      27.802 -14.953   0.158  0.00  0.00     0.036 C 
ATOM     27  C   UNL d   1      27.181 -14.271   1.202  0.00  0.00     0.053 C 
ATOM     28  C   UNL d   1      27.147 -12.842   1.185  0.00  0.00     0.106 C 
ATOM     29  C   UNL d   1      27.582 -12.083   0.095  0.00  0.00     0.072 C 
ATOM     30  C   UNL d   1      28.124 -12.760  -0.952  0.00  0.00     0.106 C 
ATOM     31  C   UNL d   1      28.378 -14.120  -0.785  0.00  0.00     0.053 C 
BRANCH  28  32
ATOM     32  N   UNL d   1      26.652 -12.090   2.331  0.00  0.00    -0.116 N 
ATOM     33  O   UNL d   1      27.025 -12.446   3.451  0.00  0.00    -0.532 OA
ATOM     34  O   UNL d   1      25.904 -11.131   2.098  0.00  0.00    -0.532 OA
ENDBRANCH  28  32
BRANCH  30  35
ATOM     35  N   UNL d   1      28.445 -12.019  -2.168  0.00  0.00    -0.116 N 
ATOM     36  O   UNL d   1      28.383 -10.785  -2.120  0.00  0.00    -0.532 OA
ATOM     37  O   UNL d   1      28.752 -12.657  -3.179  0.00  0.00    -0.532 OA
ENDBRANCH  30  35
ENDBRANCH  24  26
ENDBRANCH   1  22
TORSDOF 12
ENDMDL
MODEL 8
REMARK VINA RESULT:    -7.436      3.369      5.734
REMARK INTER + INTRA:         -13.976
REMARK INTER:                 -11.016
REMARK INTRA:                  -2.960
REMARK CONF_INDEPENDENT:        3.580
REMARK UNBOUND:                -2.960
REMARK  12 active torsions:
REMARK  status: ('A' for Active; 'I' for Inactive)
REMARK    1  A    between atoms: C_2  and  C_3 
REMARK    2  A    between atoms: C_3  and  C_4 
REMARK    3  A    between atoms: C_4  and  C_5 
REMARK    4  A    between atoms: C_5  and  C_6 
REMARK    5  A    between atoms: C_6  and  C_7 
REMARK    6  A    between atoms: C_6  and  N_21 
REMARK       I    between atoms: C_7  and  N_9 
REMARK    7  A    between atoms: N_9  and  C_10 
REMARK    8  A    between atoms: C_10  and  S_11 
REMARK    9  A    between atoms: S_11  and  C_14 
REMARK       I    between atoms: N_21  and  C_23 
REMARK   10  A    between atoms: C_23  and  C_25 
REMARK   11  A    between atoms: C_27  and  N_28 
REMARK   12  A    between atoms: C_32  and  N_33 
ROOT
ATOM      1  C   UNL d   1      29.613 -14.124   1.244  0.00  0.00     0.179 C 
ENDROOT
BRANCH   1   2
ATOM      2  C   UNL d   1      29.314 -12.634   1.436  0.00  0.00     0.035 C 
BRANCH   2   3
ATOM      3  C   UNL d   1      29.159 -12.281   2.903  0.00  0.00     0.002 C 
BRANCH   3   4
ATOM      4  C   UNL d   1      29.723 -13.348   3.784  0.00  0.00    -0.000 C 
BRANCH   4   5
ATOM      5  C   UNL d   1      28.560 -14.168   4.315  0.00  0.00    -0.005 C 
ATOM      6  C   UNL d   1      28.300 -13.764   5.742  0.00  0.00     0.005 C 
ENDBRANCH   4   5
ENDBRANCH   3   4
ENDBRANCH   2   3
ENDBRANCH   1   2
BRANCH   1   7
ATOM      7  C   UNL d   1      28.166 -14.678   1.131  0.00  0.00     0.241 C 
ATOM      8  O   UNL d   1      27.192 -13.934   1.178  0.00  0.00    -0.271 OA
ATOM      9  N   UNL d   1      28.092 -16.055   0.874  0.00  0.00    -0.346 N 
ATOM     10  H   UNL d   1      28.874 -16.661   1.098  0.00  0.00     0.163 HD
BRANCH   9  11
ATOM     11  C   UNL d   1      26.841 -16.750   0.563  0.00  0.00     0.268 C 
BRANCH  11  12
ATOM     12  S   UNL d   1      25.952 -16.372  -0.925  0.00  0.00     0.192 S 
ATOM     13  O   UNL d   1      25.713 -14.949  -0.941  0.00  0.00    -0.221 OA
ATOM     14  O   UNL d   1      26.678 -17.012  -2.019  0.00  0.00    -0.221 OA
BRANCH  12  15
ATOM     15  C   UNL d   1      24.372 -17.198  -0.744  0.00  0.00     0.060 A 
ATOM     16  C   UNL d   1      23.171 -16.500  -0.924  0.00  0.00     0.024 A 
ATOM     17  C   UNL d   1      21.948 -17.192  -0.875  0.00  0.00     0.008 A 
ATOM     18  C   UNL d   1      21.915 -18.575  -0.653  0.00  0.00    -0.062 A 
ATOM     19  C   UNL d   1      20.612 -19.325  -0.607  0.00  0.00     0.048 C 
ATOM     20  C   UNL d   1      23.124 -19.259  -0.475  0.00  0.00     0.008 A 
ATOM     21  C   UNL d   1      24.345 -18.576  -0.517  0.00  0.00     0.024 A 
ENDBRANCH  12  15
ENDBRANCH  11  12
ENDBRANCH   9  11
ENDBRANCH   1   7
BRANCH   1  22
ATOM     22  N   UNL d   1      30.491 -14.454   0.064  0.00  0.00    -0.339 N 
ATOM     23  C   UNL d   1      31.935 -14.622   0.298  0.00  0.00     0.154 C 
ATOM     24  C   UNL d   1      30.026 -14.860  -1.227  0.00  0.00     0.254 C 
ATOM     25  O   UNL d   1      30.611 -15.738  -1.866  0.00  0.00    -0.267 OA
BRANCH  24  26
ATOM     26  C   UNL d   1      28.927 -14.103  -1.976  0.00  0.00     0.036 C 
ATOM     27  C   UNL d   1      28.399 -12.879  -1.569  0.00  0.00     0.053 C 
ATOM     28  C   UNL d   1      27.309 -12.308  -2.295  0.00  0.00     0.106 C 
ATOM     29  C   UNL d   1      26.637 -12.984  -3.317  0.00  0.00     0.072 C 
ATOM     30  C   UNL d   1      27.114 -14.209  -3.664  0.00  0.00     0.106 C 
ATOM     31  C   UNL d   1      28.330 -14.612  -3.116  0.00  0.00     0.053 C 
BRANCH  28  32
ATOM     32  N   UNL d   1      26.837 -10.961  -2.002  0.00  0.00    -0.116 N 
ATOM     33  O   UNL d   1      26.035 -10.453  -2.789  0.00  0.00    -0.532 OA
ATOM     34  O   UNL d   1      27.260 -10.425  -0.967  0.00  0.00    -0.532 OA
ENDBRANCH  28  32
BRANCH  30  35
ATOM     35  N   UNL d   1      26.348 -15.009  -4.614  0.00  0.00    -0.116 N 
ATOM     36  O   UNL d   1      25.154 -15.211  -4.363  0.00  0.00    -0.532 OA
ATOM     37  O   UNL d   1      26.928 -15.447  -5.612  0.00  0.00    -0.532 OA
ENDBRANCH  30  35
ENDBRANCH  24  26
ENDBRANCH   1  22
TORSDOF 12
ENDMDL
MODEL 9
REMARK VINA RESULT:    -7.149      3.773      6.147
REMARK INTER + INTRA:         -14.160
REMARK INTER:                 -10.728
REMARK INTRA:                  -3.432
REMARK CONF_INDEPENDENT:        3.580
REMARK UNBOUND:                -3.432
REMARK  12 active torsions:
REMARK  status: ('A' for Active; 'I' for Inactive)
REMARK    1  A    between atoms: C_2  and  C_3 
REMARK    2  A    between atoms: C_3  and  C_4 
REMARK    3  A    between atoms: C_4  and  C_5 
REMARK    4  A    between atoms: C_5  and  C_6 
REMARK    5  A    between atoms: C_6  and  C_7 
REMARK    6  A    between atoms: C_6  and  N_21 
REMARK       I    between atoms: C_7  and  N_9 
REMARK    7  A    between atoms: N_9  and  C_10 
REMARK    8  A    between atoms: C_10  and  S_11 
REMARK    9  A    between atoms: S_11  and  C_14 
REMARK       I    between atoms: N_21  and  C_23 
REMARK   10  A    between atoms: C_23  and  C_25 
REMARK   11  A    between atoms: C_27  and  N_28 
REMARK   12  A    between atoms: C_32  and  N_33 
ROOT
ATOM      1  C   UNL d   1      28.148 -14.371   0.501  0.00  0.00     0.179 C 
ENDROOT
BRANCH   1   2
ATOM      2  C   UNL d   1      28.427 -15.876   0.452  0.00  0.00     0.035 C 
BRANCH   2   3
ATOM      3  C   UNL d   1      27.675 -16.545  -0.683  0.00  0.00     0.002 C 
BRANCH   3   4
ATOM      4  C   UNL d   1      26.756 -17.609  -0.177  0.00  0.00    -0.000 C 
BRANCH   4   5
ATOM      5  C   UNL d   1      25.442 -17.474  -0.927  0.00  0.00    -0.005 C 
ATOM      6  C   UNL d   1      24.380 -18.229  -0.174  0.00  0.00     0.005 C 
ENDBRANCH   4   5
ENDBRANCH   3   4
ENDBRANCH   2   3
ENDBRANCH   1   2
BRANCH   1   7
ATOM      7  C   UNL d   1      26.792 -14.322  -0.255  0.00  0.00     0.241 C 
ATOM      8  O   UNL d   1      25.770 -14.789   0.236  0.00  0.00    -0.271 OA
ATOM      9  N   UNL d   1      26.832 -13.622  -1.471  0.00  0.00    -0.346 N 
ATOM     10  H   UNL d   1      27.713 -13.485  -1.955  0.00  0.00     0.163 HD
BRANCH   9  11
ATOM     11  C   UNL d   1      25.638 -13.310  -2.259  0.00  0.00     0.268 C 
BRANCH  11  12
ATOM     12  S   UNL d   1      25.199 -14.311  -3.656  0.00  0.00     0.192 S 
ATOM     13  O   UNL d   1      25.178 -15.685  -3.218  0.00  0.00    -0.221 OA
ATOM     14  O   UNL d   1      24.008 -13.704  -4.247  0.00  0.00    -0.221 OA
BRANCH  12  15
ATOM     15  C   UNL d   1      26.555 -14.117  -4.811  0.00  0.00     0.060 A 
ATOM     16  C   UNL d   1      26.832 -12.872  -5.392  0.00  0.00     0.024 A 
ATOM     17  C   UNL d   1      27.961 -12.723  -6.217  0.00  0.00     0.008 A 
ATOM     18  C   UNL d   1      28.818 -13.805  -6.460  0.00  0.00    -0.062 A 
ATOM     19  C   UNL d   1      30.033 -13.652  -7.335  0.00  0.00     0.048 C 
ATOM     20  C   UNL d   1      28.528 -15.042  -5.872  0.00  0.00     0.008 A 
ATOM     21  C   UNL d   1      27.403 -15.199  -5.054  0.00  0.00     0.024 A 
ENDBRANCH  12  15
ENDBRANCH  11  12
ENDBRANCH   9  11
ENDBRANCH   1   7
BRANCH   1  22
ATOM     22  N   UNL d   1      28.102 -13.773   1.883  0.00  0.00    -0.339 N 
ATOM     23  C   UNL d   1      27.920 -14.682   3.028  0.00  0.00     0.154 C 
ATOM     24  C   UNL d   1      28.458 -12.427   2.217  0.00  0.00     0.254 C 
ATOM     25  O   UNL d   1      29.075 -12.173   3.255  0.00  0.00    -0.267 OA
BRANCH  24  26
ATOM     26  C   UNL d   1      27.925 -11.223   1.439  0.00  0.00     0.036 C 
ATOM     27  C   UNL d   1      27.123 -10.224   1.990  0.00  0.00     0.053 C 
ATOM     28  C   UNL d   1      26.605  -9.195   1.146  0.00  0.00     0.106 C 
ATOM     29  C   UNL d   1      26.738  -9.211  -0.245  0.00  0.00     0.072 C 
ATOM     30  C   UNL d   1      27.463 -10.227  -0.784  0.00  0.00     0.106 C 
ATOM     31  C   UNL d   1      28.168 -11.056   0.087  0.00  0.00     0.053 C 
BRANCH  28  32
ATOM     32  N   UNL d   1      25.901  -8.049   1.707  0.00  0.00    -0.116 N 
ATOM     33  O   UNL d   1      26.192  -7.706   2.856  0.00  0.00    -0.532 OA
ATOM     34  O   UNL d   1      25.069  -7.485   0.982  0.00  0.00    -0.532 OA
ENDBRANCH  28  32
BRANCH  30  35
ATOM     35  N   UNL d   1      27.493 -10.366  -2.237  0.00  0.00    -0.116 N 
ATOM     36  O   UNL d   1      27.146  -9.390  -2.913  0.00  0.00    -0.532 OA
ATOM     37  O   UNL d   1      27.856 -11.444  -2.715  0.00  0.00    -0.532 OA
ENDBRANCH  30  35
ENDBRANCH  24  26
ENDBRANCH   1  22
TORSDOF 12
ENDMDL
