MODEL 1
REMARK VINA RESULT:    -7.337      0.000      0.000
REMARK INTER + INTRA:         -11.263
REMARK INTER:                 -10.320
REMARK INTRA:                  -0.943
REMARK CONF_INDEPENDENT:        2.983
REMARK UNBOUND:                -0.943
REMARK  10 active torsions:
REMARK  status: ('A' for Active; 'I' for Inactive)
REMARK    1  A    between atoms: O_2  and  C_3 
REMARK    2  A    between atoms: C_3  and  C_5 
REMARK    3  A    between atoms: C_7  and  C_8 
REMARK       I    between atoms: C_8  and  N_10 
REMARK    4  A    between atoms: N_10  and  N_11 
REMARK    5  A    between atoms: N_11  and  C_12 
REMARK    6  A    between atoms: C_12  and  N_14 
REMARK    7  A    between atoms: N_14  and  C_15 
REMARK    8  A    between atoms: C_15  and  C_16 
REMARK    9  A    between atoms: C_16  and  C_17 
REMARK   10  A    between atoms: C_21  and  N_22 
ROOT
ATOM      1  C   UNL d   1      27.451 -14.503   0.482  0.00  0.00     0.270 C 
ATOM      2  O   UNL d   1      27.389 -13.279   0.402  0.00  0.00    -0.266 OA
ATOM      3  N   UNL d   1      28.197 -15.148   1.466  0.00  0.00    -0.264 N 
ATOM      4  H   UNL d   1      28.309 -16.154   1.542  0.00  0.00     0.190 HD
ENDROOT
BRANCH   1   5
ATOM      5  C   UNL d   1      26.747 -15.363  -0.559  0.00  0.00     0.037 A 
ATOM      6  C   UNL d   1      25.984 -16.487  -0.152  0.00  0.00     0.034 A 
ATOM      7  C   UNL d   1      25.135 -17.174  -1.056  0.00  0.00     0.042 A 
ATOM      8  C   UNL d   1      25.083 -16.771  -2.392  0.00  0.00     0.053 A 
ATOM      9  C   UNL d   1      25.888 -15.702  -2.811  0.00  0.00     0.104 A 
ATOM     10  C   UNL d   1      26.734 -15.019  -1.915  0.00  0.00     0.053 A 
BRANCH   7  11
ATOM     11  C   UNL d   1      24.160 -18.186  -0.545  0.00  0.00     0.293 C 
ATOM     12  O   UNL d   1      24.177 -18.575   0.617  0.00  0.00    -0.259 OA
BRANCH  11  13
ATOM     13  O   UNL d   1      23.279 -18.577  -1.500  0.00  0.00    -0.323 OA
ATOM     14  C   UNL d   1      21.956 -18.865  -1.007  0.00  0.00     0.213 C 
ENDBRANCH  11  13
ENDBRANCH   7  11
BRANCH   9  15
ATOM     15  N   UNL d   1      25.781 -15.214  -4.196  0.00  0.00    -0.116 N 
ATOM     16  O   UNL d   1      26.653 -15.575  -4.998  0.00  0.00    -0.532 OA
ATOM     17  O   UNL d   1      24.839 -14.459  -4.469  0.00  0.00    -0.532 OA
ENDBRANCH   9  15
ENDBRANCH   1   5
BRANCH   3  18
ATOM     18  N   UNL d   1      28.941 -14.419   2.453  0.00  0.00    -0.274 N 
ATOM     19  H   UNL d   1      29.761 -13.920   2.116  0.00  0.00     0.189 HD
BRANCH  18  20
ATOM     20  C   UNL d   1      28.513 -14.425   3.781  0.00  0.00     0.186 C 
ATOM     21  S   UNL d   1      27.060 -13.706   4.248  0.00  0.00    -0.040 SA
BRANCH  20  22
ATOM     22  N   UNL d   1      29.380 -15.055   4.668  0.00  0.00    -0.366 N 
ATOM     23  H   UNL d   1      29.615 -16.029   4.530  0.00  0.00     0.161 HD
BRANCH  22  24
ATOM     24  C   UNL d   1      29.918 -14.394   5.866  0.00  0.00     0.122 C 
BRANCH  24  25
ATOM     25  C   UNL d   1      28.905 -14.088   6.974  0.00  0.00     0.023 C 
BRANCH  25  26
ATOM     26  C   UNL d   1      29.009 -12.623   7.473  0.00  0.00    -0.021 C 
ATOM     27  C   UNL d   1      28.151 -11.670   6.635  0.00  0.00     0.009 C 
ATOM     28  C   UNL d   1      28.579 -12.523   8.938  0.00  0.00     0.009 C 
ENDBRANCH  25  26
ENDBRANCH  24  25
ENDBRANCH  22  24
ENDBRANCH  20  22
ENDBRANCH  18  20
ENDBRANCH   3  18
TORSDOF 10
ENDMDL
MODEL 2
REMARK VINA RESULT:    -7.080      4.931      8.263
REMARK INTER + INTRA:         -10.907
REMARK INTER:                 -10.063
REMARK INTRA:                  -0.844
REMARK CONF_INDEPENDENT:        2.983
REMARK UNBOUND:                -0.844
REMARK  10 active torsions:
REMARK  status: ('A' for Active; 'I' for Inactive)
REMARK    1  A    between atoms: O_2  and  C_3 
REMARK    2  A    between atoms: C_3  and  C_5 
REMARK    3  A    between atoms: C_7  and  C_8 
REMARK       I    between atoms: C_8  and  N_10 
REMARK    4  A    between atoms: N_10  and  N_11 
REMARK    5  A    between atoms: N_11  and  C_12 
REMARK    6  A    between atoms: C_12  and  N_14 
REMARK    7  A    between atoms: N_14  and  C_15 
REMARK    8  A    between atoms: C_15  and  C_16 
REMARK    9  A    between atoms: C_16  and  C_17 
REMARK   10  A    between atoms: C_21  and  N_22 
ROOT
ATOM      1  C   UNL d   1      24.719 -16.718  -0.699  0.00  0.00     0.270 C 
ATOM      2  O   UNL d   1      25.108 -17.796  -0.258  0.00  0.00    -0.266 OA
ATOM      3  N   UNL d   1      23.396 -16.299  -0.578  0.00  0.00    -0.264 N 
ATOM      4  H   UNL d   1      23.023 -15.437  -0.964  0.00  0.00     0.190 HD
ENDROOT
BRANCH   1   5
ATOM      5  C   UNL d   1      25.685 -15.821  -1.462  0.00  0.00     0.037 A 
ATOM      6  C   UNL d   1      25.916 -16.039  -2.844  0.00  0.00     0.034 A 
ATOM      7  C   UNL d   1      26.624 -15.099  -3.635  0.00  0.00     0.042 A 
ATOM      8  C   UNL d   1      27.152 -13.955  -3.034  0.00  0.00     0.053 A 
ATOM      9  C   UNL d   1      26.982 -13.771  -1.654  0.00  0.00     0.104 A 
ATOM     10  C   UNL d   1      26.281 -14.705  -0.866  0.00  0.00     0.053 A 
BRANCH   7  11
ATOM     11  C   UNL d   1      26.632 -15.231  -5.124  0.00  0.00     0.293 C 
ATOM     12  O   UNL d   1      25.740 -15.812  -5.730  0.00  0.00    -0.259 OA
BRANCH  11  13
ATOM     13  O   UNL d   1      27.707 -14.623  -5.686  0.00  0.00    -0.323 OA
ATOM     14  C   UNL d   1      28.955 -15.317  -5.489  0.00  0.00     0.213 C 
ENDBRANCH  11  13
ENDBRANCH   7  11
BRANCH   9  15
ATOM     15  N   UNL d   1      27.462 -12.530  -1.025  0.00  0.00    -0.116 N 
ATOM     16  O   UNL d   1      26.944 -12.196   0.050  0.00  0.00    -0.532 OA
ATOM     17  O   UNL d   1      28.339 -11.886  -1.615  0.00  0.00    -0.532 OA
ENDBRANCH   9  15
ENDBRANCH   1   5
BRANCH   3  18
ATOM     18  N   UNL d   1      22.402 -17.104   0.072  0.00  0.00    -0.274 N 
ATOM     19  H   UNL d   1      22.063 -16.760   0.968  0.00  0.00     0.189 HD
BRANCH  18  20
ATOM     20  C   UNL d   1      21.959 -18.277  -0.540  0.00  0.00     0.186 C 
ATOM     21  S   UNL d   1      22.922 -19.661  -0.610  0.00  0.00    -0.040 SA
BRANCH  20  22
ATOM     22  N   UNL d   1      20.682 -18.200  -1.087  0.00  0.00    -0.366 N 
ATOM     23  H   UNL d   1      20.406 -17.372  -1.597  0.00  0.00     0.161 HD
BRANCH  22  24
ATOM     24  C   UNL d   1      19.663 -19.242  -0.889  0.00  0.00     0.122 C 
BRANCH  24  25
ATOM     25  C   UNL d   1      19.981 -20.295   0.178  0.00  0.00     0.023 C 
BRANCH  25  26
ATOM     26  C   UNL d   1      18.842 -20.432   1.221  0.00  0.00    -0.021 C 
ATOM     27  C   UNL d   1      18.011 -21.700   0.999  0.00  0.00     0.009 C 
ATOM     28  C   UNL d   1      19.413 -20.453   2.640  0.00  0.00     0.009 C 
ENDBRANCH  25  26
ENDBRANCH  24  25
ENDBRANCH  22  24
ENDBRANCH  20  22
ENDBRANCH  18  20
ENDBRANCH   3  18
TORSDOF 10
ENDMDL
MODEL 3
REMARK VINA RESULT:    -6.795      3.373      8.346
REMARK INTER + INTRA:         -11.378
REMARK INTER:                  -9.778
REMARK INTRA:                  -1.600
REMARK CONF_INDEPENDENT:        2.983
REMARK UNBOUND:                -1.600
REMARK  10 active torsions:
REMARK  status: ('A' for Active; 'I' for Inactive)
REMARK    1  A    between atoms: O_2  and  C_3 
REMARK    2  A    between atoms: C_3  and  C_5 
REMARK    3  A    between atoms: C_7  and  C_8 
REMARK       I    between atoms: C_8  and  N_10 
REMARK    4  A    between atoms: N_10  and  N_11 
REMARK    5  A    between atoms: N_11  and  C_12 
REMARK    6  A    between atoms: C_12  and  N_14 
REMARK    7  A    between atoms: N_14  and  C_15 
REMARK    8  A    between atoms: C_15  and  C_16 
REMARK    9  A    between atoms: C_16  and  C_17 
REMARK   10  A    between atoms: C_21  and  N_22 
ROOT
ATOM      1  C   UNL d   1      27.161 -13.682   1.161  0.00  0.00     0.270 C 
ATOM      2  O   UNL d   1      26.588 -13.454   0.100  0.00  0.00    -0.266 OA
ATOM      3  N   UNL d   1      27.820 -14.885   1.406  0.00  0.00    -0.264 N 
ATOM      4  H   UNL d   1      28.270 -15.131   2.283  0.00  0.00     0.190 HD
ENDROOT
BRANCH   1   5
ATOM      5  C   UNL d   1      27.111 -12.654   2.283  0.00  0.00     0.037 A 
ATOM      6  C   UNL d   1      27.741 -12.925   3.524  0.00  0.00     0.034 A 
ATOM      7  C   UNL d   1      27.913 -11.917   4.506  0.00  0.00     0.042 A 
ATOM      8  C   UNL d   1      27.405 -10.637   4.272  0.00  0.00     0.053 A 
ATOM      9  C   UNL d   1      26.722 -10.385   3.073  0.00  0.00     0.104 A 
ATOM     10  C   UNL d   1      26.549 -11.387   2.097  0.00  0.00     0.053 A 
BRANCH   7  11
ATOM     11  C   UNL d   1      28.796 -12.164   5.685  0.00  0.00     0.293 C 
ATOM     12  O   UNL d   1      29.776 -11.467   5.922  0.00  0.00    -0.259 OA
BRANCH  11  13
ATOM     13  O   UNL d   1      28.366 -13.208   6.438  0.00  0.00    -0.323 OA
ATOM     14  C   UNL d   1      28.839 -14.496   5.996  0.00  0.00     0.213 C 
ENDBRANCH  11  13
ENDBRANCH   7  11
BRANCH   9  15
ATOM     15  N   UNL d   1      26.256  -9.020   2.779  0.00  0.00    -0.116 N 
ATOM     16  O   UNL d   1      25.503  -8.870   1.807  0.00  0.00    -0.532 OA
ATOM     17  O   UNL d   1      26.659  -8.104   3.507  0.00  0.00    -0.532 OA
ENDBRANCH   9  15
ENDBRANCH   1   5
BRANCH   3  18
ATOM     18  N   UNL d   1      27.870 -15.935   0.431  0.00  0.00    -0.274 N 
ATOM     19  H   UNL d   1      28.749 -16.041  -0.069  0.00  0.00     0.189 HD
BRANCH  18  20
ATOM     20  C   UNL d   1      26.746 -16.738   0.227  0.00  0.00     0.186 C 
ATOM     21  S   UNL d   1      26.645 -18.300   0.858  0.00  0.00    -0.040 SA
BRANCH  20  22
ATOM     22  N   UNL d   1      25.742 -16.150  -0.536  0.00  0.00    -0.366 N 
ATOM     23  H   UNL d   1      25.690 -15.143  -0.602  0.00  0.00     0.161 HD
BRANCH  22  24
ATOM     24  C   UNL d   1      24.683 -16.926  -1.199  0.00  0.00     0.122 C 
BRANCH  24  25
ATOM     25  C   UNL d   1      23.276 -16.777  -0.610  0.00  0.00     0.023 C 
BRANCH  25  26
ATOM     26  C   UNL d   1      22.669 -18.142  -0.195  0.00  0.00    -0.021 C 
ATOM     27  C   UNL d   1      21.330 -18.408  -0.890  0.00  0.00     0.009 C 
ATOM     28  C   UNL d   1      23.636 -19.282  -0.522  0.00  0.00     0.009 C 
ENDBRANCH  25  26
ENDBRANCH  24  25
ENDBRANCH  22  24
ENDBRANCH  20  22
ENDBRANCH  18  20
ENDBRANCH   3  18
TORSDOF 10
ENDMDL
MODEL 4
REMARK VINA RESULT:    -6.356      3.672      8.341
REMARK INTER + INTRA:         -11.029
REMARK INTER:                  -9.339
REMARK INTRA:                  -1.690
REMARK CONF_INDEPENDENT:        2.983
REMARK UNBOUND:                -1.690
REMARK  10 active torsions:
REMARK  status: ('A' for Active; 'I' for Inactive)
REMARK    1  A    between atoms: O_2  and  C_3 
REMARK    2  A    between atoms: C_3  and  C_5 
REMARK    3  A    between atoms: C_7  and  C_8 
REMARK       I    between atoms: C_8  and  N_10 
REMARK    4  A    between atoms: N_10  and  N_11 
REMARK    5  A    between atoms: N_11  and  C_12 
REMARK    6  A    between atoms: C_12  and  N_14 
REMARK    7  A    between atoms: N_14  and  C_15 
REMARK    8  A    between atoms: C_15  and  C_16 
REMARK    9  A    between atoms: C_16  and  C_17 
REMARK   10  A    between atoms: C_21  and  N_22 
ROOT
ATOM      1  C   UNL d   1      26.945 -13.464   0.718  0.00  0.00     0.270 C 
ATOM      2  O   UNL d   1      27.094 -14.665   0.924  0.00  0.00    -0.266 OA
ATOM      3  N   UNL d   1      26.860 -12.935  -0.568  0.00  0.00    -0.264 N 
ATOM      4  H   UNL d   1      26.780 -11.945  -0.784  0.00  0.00     0.190 HD
ENDROOT
BRANCH   1   5
ATOM      5  C   UNL d   1      26.912 -12.495   1.892  0.00  0.00     0.037 A 
ATOM      6  C   UNL d   1      27.547 -12.836   3.114  0.00  0.00     0.034 A 
ATOM      7  C   UNL d   1      27.734 -11.882   4.145  0.00  0.00     0.042 A 
ATOM      8  C   UNL d   1      27.238 -10.587   3.981  0.00  0.00     0.053 A 
ATOM      9  C   UNL d   1      26.551 -10.266   2.802  0.00  0.00     0.104 A 
ATOM     10  C   UNL d   1      26.362 -11.214   1.776  0.00  0.00     0.053 A 
BRANCH   7  11
ATOM     11  C   UNL d   1      28.622 -12.199   5.305  0.00  0.00     0.293 C 
ATOM     12  O   UNL d   1      29.666 -11.591   5.510  0.00  0.00    -0.259 OA
BRANCH  11  13
ATOM     13  O   UNL d   1      28.120 -13.195   6.077  0.00  0.00    -0.323 OA
ATOM     14  C   UNL d   1      28.620 -14.508   5.758  0.00  0.00     0.213 C 
ENDBRANCH  11  13
ENDBRANCH   7  11
BRANCH   9  15
ATOM     15  N   UNL d   1      26.097  -8.883   2.581  0.00  0.00    -0.116 N 
ATOM     16  O   UNL d   1      26.654  -7.988   3.231  0.00  0.00    -0.532 OA
ATOM     17  O   UNL d   1      25.175  -8.701   1.776  0.00  0.00    -0.532 OA
ENDBRANCH   9  15
ENDBRANCH   1   5
BRANCH   3  18
ATOM     18  N   UNL d   1      26.942 -13.764  -1.736  0.00  0.00    -0.274 N 
ATOM     19  H   UNL d   1      27.822 -13.737  -2.243  0.00  0.00     0.189 HD
BRANCH  18  20
ATOM     20  C   UNL d   1      25.846 -14.547  -2.101  0.00  0.00     0.186 C 
ATOM     21  S   UNL d   1      24.825 -14.110  -3.371  0.00  0.00    -0.040 SA
BRANCH  20  22
ATOM     22  N   UNL d   1      25.668 -15.693  -1.330  0.00  0.00    -0.366 N 
ATOM     23  H   UNL d   1      26.125 -15.766  -0.431  0.00  0.00     0.161 HD
BRANCH  22  24
ATOM     24  C   UNL d   1      24.904 -16.860  -1.797  0.00  0.00     0.122 C 
BRANCH  24  25
ATOM     25  C   UNL d   1      24.617 -17.936  -0.745  0.00  0.00     0.023 C 
BRANCH  25  26
ATOM     26  C   UNL d   1      23.208 -17.778  -0.117  0.00  0.00    -0.021 C 
ATOM     27  C   UNL d   1      22.538 -16.466  -0.536  0.00  0.00     0.009 C 
ATOM     28  C   UNL d   1      22.307 -18.948  -0.517  0.00  0.00     0.009 C 
ENDBRANCH  25  26
ENDBRANCH  24  25
ENDBRANCH  22  24
ENDBRANCH  20  22
ENDBRANCH  18  20
ENDBRANCH   3  18
TORSDOF 10
ENDMDL
MODEL 5
REMARK VINA RESULT:    -6.313      1.661      2.255
REMARK INTER + INTRA:         -11.153
REMARK INTER:                  -9.296
REMARK INTRA:                  -1.857
REMARK CONF_INDEPENDENT:        2.983
REMARK UNBOUND:                -1.857
REMARK  10 active torsions:
REMARK  status: ('A' for Active; 'I' for Inactive)
REMARK    1  A    between atoms: O_2  and  C_3 
REMARK    2  A    between atoms: C_3  and  C_5 
REMARK    3  A    between atoms: C_7  and  C_8 
REMARK       I    between atoms: C_8  and  N_10 
REMARK    4  A    between atoms: N_10  and  N_11 
REMARK    5  A    between atoms: N_11  and  C_12 
REMARK    6  A    between atoms: C_12  and  N_14 
REMARK    7  A    between atoms: N_14  and  C_15 
REMARK    8  A    between atoms: C_15  and  C_16 
REMARK    9  A    between atoms: C_16  and  C_17 
REMARK   10  A    between atoms: C_21  and  N_22 
ROOT
ATOM      1  C   UNL d   1      28.597 -14.899  -0.240  0.00  0.00     0.270 C 
ATOM      2  O   UNL d   1      29.162 -13.908  -0.696  0.00  0.00    -0.266 OA
ATOM      3  N   UNL d   1      28.958 -15.465   0.981  0.00  0.00    -0.264 N 
ATOM      4  H   UNL d   1      28.546 -16.307   1.373  0.00  0.00     0.190 HD
ENDROOT
BRANCH   1   5
ATOM      5  C   UNL d   1      27.505 -15.584  -1.050  0.00  0.00     0.037 A 
ATOM      6  C   UNL d   1      26.641 -16.521  -0.428  0.00  0.00     0.034 A 
ATOM      7  C   UNL d   1      25.479 -17.007  -1.080  0.00  0.00     0.042 A 
ATOM      8  C   UNL d   1      25.201 -16.595  -2.386  0.00  0.00     0.053 A 
ATOM      9  C   UNL d   1      26.090 -15.720  -3.027  0.00  0.00     0.104 A 
ATOM     10  C   UNL d   1      27.246 -15.238  -2.381  0.00  0.00     0.053 A 
BRANCH   7  11
ATOM     11  C   UNL d   1      24.464 -17.790  -0.313  0.00  0.00     0.293 C 
ATOM     12  O   UNL d   1      24.706 -18.263   0.791  0.00  0.00    -0.259 OA
BRANCH  11  13
ATOM     13  O   UNL d   1      23.280 -17.877  -0.971  0.00  0.00    -0.323 OA
ATOM     14  C   UNL d   1      22.241 -18.559  -0.242  0.00  0.00     0.213 C 
ENDBRANCH  11  13
ENDBRANCH   7  11
BRANCH   9  15
ATOM     15  N   UNL d   1      25.765 -15.214  -4.370  0.00  0.00    -0.116 N 
ATOM     16  O   UNL d   1      24.780 -14.471  -4.478  0.00  0.00    -0.532 OA
ATOM     17  O   UNL d   1      26.483 -15.576  -5.311  0.00  0.00    -0.532 OA
ENDBRANCH   9  15
ENDBRANCH   1   5
BRANCH   3  18
ATOM     18  N   UNL d   1      30.015 -14.924   1.785  0.00  0.00    -0.274 N 
ATOM     19  H   UNL d   1      30.746 -15.575   2.060  0.00  0.00     0.189 HD
BRANCH  18  20
ATOM     20  C   UNL d   1      29.992 -13.572   2.131  0.00  0.00     0.186 C 
ATOM     21  S   UNL d   1      31.347 -12.797   2.771  0.00  0.00    -0.040 SA
BRANCH  20  22
ATOM     22  N   UNL d   1      28.773 -12.938   1.916  0.00  0.00    -0.366 N 
ATOM     23  H   UNL d   1      28.503 -12.678   0.976  0.00  0.00     0.161 HD
BRANCH  22  24
ATOM     24  C   UNL d   1      27.873 -12.542   3.010  0.00  0.00     0.122 C 
BRANCH  24  25
ATOM     25  C   UNL d   1      27.031 -13.665   3.625  0.00  0.00     0.023 C 
BRANCH  25  26
ATOM     26  C   UNL d   1      27.476 -14.004   5.071  0.00  0.00    -0.021 C 
ATOM     27  C   UNL d   1      28.712 -14.909   5.093  0.00  0.00     0.009 C 
ATOM     28  C   UNL d   1      27.781 -12.725   5.853  0.00  0.00     0.009 C 
ENDBRANCH  25  26
ENDBRANCH  24  25
ENDBRANCH  22  24
ENDBRANCH  20  22
ENDBRANCH  18  20
ENDBRANCH   3  18
TORSDOF 10
ENDMDL
MODEL 6
REMARK VINA RESULT:    -6.180      2.024      2.867
REMARK INTER + INTRA:         -10.918
REMARK INTER:                  -9.163
REMARK INTRA:                  -1.756
REMARK CONF_INDEPENDENT:        2.983
REMARK UNBOUND:                -1.756
REMARK  10 active torsions:
REMARK  status: ('A' for Active; 'I' for Inactive)
REMARK    1  A    between atoms: O_2  and  C_3 
REMARK    2  A    between atoms: C_3  and  C_5 
REMARK    3  A    between atoms: C_7  and  C_8 
REMARK       I    between atoms: C_8  and  N_10 
REMARK    4  A    between atoms: N_10  and  N_11 
REMARK    5  A    between atoms: N_11  and  C_12 
REMARK    6  A    between atoms: C_12  and  N_14 
REMARK    7  A    between atoms: N_14  and  C_15 
REMARK    8  A    between atoms: C_15  and  C_16 
REMARK    9  A    between atoms: C_16  and  C_17 
REMARK   10  A    between atoms: C_21  and  N_22 
ROOT
ATOM      1  C   UNL d   1      27.281 -14.628   0.570  0.00  0.00     0.270 C 
ATOM      2  O   UNL d   1      27.253 -13.400   0.547  0.00  0.00    -0.266 OA
ATOM      3  N   UNL d   1      28.022 -15.337   1.514  0.00  0.00    -0.264 N 
ATOM      4  H   UNL d   1      28.106 -16.348   1.543  0.00  0.00     0.190 HD
ENDROOT
BRANCH   1   5
ATOM      5  C   UNL d   1      26.539 -15.421  -0.497  0.00  0.00     0.037 A 
ATOM      6  C   UNL d   1      25.653 -16.463  -0.120  0.00  0.00     0.034 A 
ATOM      7  C   UNL d   1      24.779 -17.068  -1.057  0.00  0.00     0.042 A 
ATOM      8  C   UNL d   1      24.821 -16.669  -2.395  0.00  0.00     0.053 A 
ATOM      9  C   UNL d   1      25.743 -15.686  -2.782  0.00  0.00     0.104 A 
ATOM     10  C   UNL d   1      26.615 -15.084  -1.852  0.00  0.00     0.053 A 
BRANCH   7  11
ATOM     11  C   UNL d   1      23.690 -17.977  -0.585  0.00  0.00     0.293 C 
ATOM     12  O   UNL d   1      23.917 -18.950   0.124  0.00  0.00    -0.259 OA
BRANCH  11  13
ATOM     13  O   UNL d   1      22.466 -17.576  -1.013  0.00  0.00    -0.323 OA
ATOM     14  C   UNL d   1      21.436 -18.577  -0.895  0.00  0.00     0.213 C 
ENDBRANCH  11  13
ENDBRANCH   7  11
BRANCH   9  15
ATOM     15  N   UNL d   1      25.741 -15.197  -4.170  0.00  0.00    -0.116 N 
ATOM     16  O   UNL d   1      24.812 -14.452  -4.513  0.00  0.00    -0.532 OA
ATOM     17  O   UNL d   1      26.654 -15.575  -4.915  0.00  0.00    -0.532 OA
ENDBRANCH   9  15
ENDBRANCH   1   5
BRANCH   3  18
ATOM     18  N   UNL d   1      28.799 -14.674   2.521  0.00  0.00    -0.274 N 
ATOM     19  H   UNL d   1      29.808 -14.687   2.388  0.00  0.00     0.189 HD
BRANCH  18  20
ATOM     20  C   UNL d   1      28.154 -14.058   3.594  0.00  0.00     0.186 C 
ATOM     21  S   UNL d   1      28.003 -14.816   5.093  0.00  0.00    -0.040 SA
BRANCH  20  22
ATOM     22  N   UNL d   1      27.647 -12.792   3.318  0.00  0.00    -0.366 N 
ATOM     23  H   UNL d   1      26.993 -12.671   2.556  0.00  0.00     0.161 HD
BRANCH  22  24
ATOM     24  C   UNL d   1      28.082 -11.583   4.033  0.00  0.00     0.122 C 
BRANCH  24  25
ATOM     25  C   UNL d   1      27.345 -10.289   3.671  0.00  0.00     0.023 C 
BRANCH  25  26
ATOM     26  C   UNL d   1      26.644 -10.383   2.291  0.00  0.00    -0.021 C 
ATOM     27  C   UNL d   1      25.530  -9.342   2.142  0.00  0.00     0.009 C 
ATOM     28  C   UNL d   1      27.657 -10.194   1.160  0.00  0.00     0.009 C 
ENDBRANCH  25  26
ENDBRANCH  24  25
ENDBRANCH  22  24
ENDBRANCH  20  22
ENDBRANCH  18  20
ENDBRANCH   3  18
TORSDOF 10
ENDMDL
MODEL 7
REMARK VINA RESULT:    -6.170      1.537      3.370
REMARK INTER + INTRA:         -10.368
REMARK INTER:                  -9.153
REMARK INTRA:                  -1.215
REMARK CONF_INDEPENDENT:        2.983
REMARK UNBOUND:                -1.215
REMARK  10 active torsions:
REMARK  status: ('A' for Active; 'I' for Inactive)
REMARK    1  A    between atoms: O_2  and  C_3 
REMARK    2  A    between atoms: C_3  and  C_5 
REMARK    3  A    between atoms: C_7  and  C_8 
REMARK       I    between atoms: C_8  and  N_10 
REMARK    4  A    between atoms: N_10  and  N_11 
REMARK    5  A    between atoms: N_11  and  C_12 
REMARK    6  A    between atoms: C_12  and  N_14 
REMARK    7  A    between atoms: N_14  and  C_15 
REMARK    8  A    between atoms: C_15  and  C_16 
REMARK    9  A    between atoms: C_16  and  C_17 
REMARK   10  A    between atoms: C_21  and  N_22 
ROOT
ATOM      1  C   UNL d   1      27.962 -15.661   0.408  0.00  0.00     0.270 C 
ATOM      2  O   UNL d   1      29.044 -16.164   0.120  0.00  0.00    -0.266 OA
ATOM      3  N   UNL d   1      27.753 -14.980   1.605  0.00  0.00    -0.264 N 
ATOM      4  H   UNL d   1      26.864 -14.587   1.901  0.00  0.00     0.190 HD
ENDROOT
BRANCH   1   5
ATOM      5  C   UNL d   1      26.777 -15.829  -0.534  0.00  0.00     0.037 A 
ATOM      6  C   UNL d   1      26.837 -15.306  -1.851  0.00  0.00     0.034 A 
ATOM      7  C   UNL d   1      25.860 -15.633  -2.825  0.00  0.00     0.042 A 
ATOM      8  C   UNL d   1      24.782 -16.447  -2.471  0.00  0.00     0.053 A 
ATOM      9  C   UNL d   1      24.685 -16.910  -1.150  0.00  0.00     0.104 A 
ATOM     10  C   UNL d   1      25.654 -16.585  -0.181  0.00  0.00     0.053 A 
BRANCH   7  11
ATOM     11  C   UNL d   1      26.085 -15.277  -4.259  0.00  0.00     0.293 C 
ATOM     12  O   UNL d   1      27.117 -15.574  -4.849  0.00  0.00    -0.259 OA
BRANCH  11  13
ATOM     13  O   UNL d   1      25.023 -14.628  -4.798  0.00  0.00    -0.323 OA
ATOM     14  C   UNL d   1      24.776 -13.322  -4.241  0.00  0.00     0.213 C 
ENDBRANCH  11  13
ENDBRANCH   7  11
BRANCH   9  15
ATOM     15  N   UNL d   1      23.600 -17.836  -0.786  0.00  0.00    -0.116 N 
ATOM     16  O   UNL d   1      23.865 -19.045  -0.760  0.00  0.00    -0.532 OA
ATOM     17  O   UNL d   1      22.487 -17.352  -0.544  0.00  0.00    -0.532 OA
ENDBRANCH   9  15
ENDBRANCH   1   5
BRANCH   3  18
ATOM     18  N   UNL d   1      28.793 -14.824   2.580  0.00  0.00    -0.274 N 
ATOM     19  H   UNL d   1      29.726 -15.105   2.287  0.00  0.00     0.189 HD
BRANCH  18  20
ATOM     20  C   UNL d   1      28.485 -14.304   3.838  0.00  0.00     0.186 C 
ATOM     21  S   UNL d   1      27.537 -12.920   4.019  0.00  0.00    -0.040 SA
BRANCH  20  22
ATOM     22  N   UNL d   1      29.028 -15.009   4.907  0.00  0.00    -0.366 N 
ATOM     23  H   UNL d   1      29.618 -15.812   4.728  0.00  0.00     0.161 HD
BRANCH  22  24
ATOM     24  C   UNL d   1      28.721 -14.697   6.311  0.00  0.00     0.122 C 
BRANCH  24  25
ATOM     25  C   UNL d   1      29.855 -14.059   7.119  0.00  0.00     0.023 C 
BRANCH  25  26
ATOM     26  C   UNL d   1      29.437 -12.702   7.743  0.00  0.00    -0.021 C 
ATOM     27  C   UNL d   1      28.715 -11.805   6.733  0.00  0.00     0.009 C 
ATOM     28  C   UNL d   1      28.527 -12.925   8.952  0.00  0.00     0.009 C 
ENDBRANCH  25  26
ENDBRANCH  24  25
ENDBRANCH  22  24
ENDBRANCH  20  22
ENDBRANCH  18  20
ENDBRANCH   3  18
TORSDOF 10
ENDMDL
MODEL 8
REMARK VINA RESULT:    -6.040      3.447      8.442
REMARK INTER + INTRA:         -10.745
REMARK INTER:                  -9.023
REMARK INTRA:                  -1.721
REMARK CONF_INDEPENDENT:        2.983
REMARK UNBOUND:                -1.721
REMARK  10 active torsions:
REMARK  status: ('A' for Active; 'I' for Inactive)
REMARK    1  A    between atoms: O_2  and  C_3 
REMARK    2  A    between atoms: C_3  and  C_5 
REMARK    3  A    between atoms: C_7  and  C_8 
REMARK       I    between atoms: C_8  and  N_10 
REMARK    4  A    between atoms: N_10  and  N_11 
REMARK    5  A    between atoms: N_11  and  C_12 
REMARK    6  A    between atoms: C_12  and  N_14 
REMARK    7  A    between atoms: N_14  and  C_15 
REMARK    8  A    between atoms: C_15  and  C_16 
REMARK    9  A    between atoms: C_16  and  C_17 
REMARK   10  A    between atoms: C_21  and  N_22 
ROOT
ATOM      1  C   UNL d   1      27.524 -13.605   1.444  0.00  0.00     0.270 C 
ATOM      2  O   UNL d   1      27.287 -13.378   0.261  0.00  0.00    -0.266 OA
ATOM      3  N   UNL d   1      27.960 -14.851   1.890  0.00  0.00    -0.264 N 
ATOM      4  H   UNL d   1      28.126 -15.093   2.862  0.00  0.00     0.190 HD
ENDROOT
BRANCH   1   5
ATOM      5  C   UNL d   1      27.282 -12.519   2.485  0.00  0.00     0.037 A 
ATOM      6  C   UNL d   1      27.785 -12.673   3.802  0.00  0.00     0.034 A 
ATOM      7  C   UNL d   1      27.780 -11.599   4.728  0.00  0.00     0.042 A 
ATOM      8  C   UNL d   1      27.222 -10.374   4.357  0.00  0.00     0.053 A 
ATOM      9  C   UNL d   1      26.663 -10.241   3.077  0.00  0.00     0.104 A 
ATOM     10  C   UNL d   1      26.665 -11.307   2.156  0.00  0.00     0.053 A 
BRANCH   7  11
ATOM     11  C   UNL d   1      28.539 -11.715   6.010  0.00  0.00     0.293 C 
ATOM     12  O   UNL d   1      29.070 -10.746   6.541  0.00  0.00    -0.259 OA
BRANCH  11  13
ATOM     13  O   UNL d   1      28.537 -12.983   6.494  0.00  0.00    -0.323 OA
ATOM     14  C   UNL d   1      29.748 -13.721   6.236  0.00  0.00     0.213 C 
ENDBRANCH  11  13
ENDBRANCH   7  11
BRANCH   9  15
ATOM     15  N   UNL d   1      26.147  -8.932   2.645  0.00  0.00    -0.116 N 
ATOM     16  O   UNL d   1      26.661  -7.921   3.144  0.00  0.00    -0.532 OA
ATOM     17  O   UNL d   1      25.220  -8.921   1.825  0.00  0.00    -0.532 OA
ENDBRANCH   9  15
ENDBRANCH   1   5
BRANCH   3  18
ATOM     18  N   UNL d   1      28.158 -15.951   0.990  0.00  0.00    -0.274 N 
ATOM     19  H   UNL d   1      29.123 -16.232   0.834  0.00  0.00     0.189 HD
BRANCH  18  20
ATOM     20  C   UNL d   1      27.053 -16.564   0.399  0.00  0.00     0.186 C 
ATOM     21  S   UNL d   1      26.656 -18.173   0.715  0.00  0.00    -0.040 SA
BRANCH  20  22
ATOM     22  N   UNL d   1      26.329 -15.748  -0.465  0.00  0.00    -0.366 N 
ATOM     23  H   UNL d   1      26.546 -14.762  -0.520  0.00  0.00     0.161 HD
BRANCH  22  24
ATOM     24  C   UNL d   1      25.190 -16.234  -1.258  0.00  0.00     0.122 C 
BRANCH  24  25
ATOM     25  C   UNL d   1      24.723 -15.316  -2.392  0.00  0.00     0.023 C 
BRANCH  25  26
ATOM     26  C   UNL d   1      25.912 -14.728  -3.195  0.00  0.00    -0.021 C 
ATOM     27  C   UNL d   1      25.907 -15.198  -4.652  0.00  0.00     0.009 C 
ATOM     28  C   UNL d   1      25.876 -13.198  -3.164  0.00  0.00     0.009 C 
ENDBRANCH  25  26
ENDBRANCH  24  25
ENDBRANCH  22  24
ENDBRANCH  20  22
ENDBRANCH  18  20
ENDBRANCH   3  18
TORSDOF 10
ENDMDL
MODEL 9
REMARK VINA RESULT:    -5.769      4.188      8.007
REMARK INTER + INTRA:         -10.435
REMARK INTER:                  -8.752
REMARK INTRA:                  -1.684
REMARK CONF_INDEPENDENT:        2.983
REMARK UNBOUND:                -1.684
REMARK  10 active torsions:
REMARK  status: ('A' for Active; 'I' for Inactive)
REMARK    1  A    between atoms: O_2  and  C_3 
REMARK    2  A    between atoms: C_3  and  C_5 
REMARK    3  A    between atoms: C_7  and  C_8 
REMARK       I    between atoms: C_8  and  N_10 
REMARK    4  A    between atoms: N_10  and  N_11 
REMARK    5  A    between atoms: N_11  and  C_12 
REMARK    6  A    between atoms: C_12  and  N_14 
REMARK    7  A    between atoms: N_14  and  C_15 
REMARK    8  A    between atoms: C_15  and  C_16 
REMARK    9  A    between atoms: C_16  and  C_17 
REMARK   10  A    between atoms: C_21  and  N_22 
ROOT
ATOM      1  C   UNL d   1      27.185 -13.334   1.089  0.00  0.00     0.270 C 
ATOM      2  O   UNL d   1      26.425 -13.701   1.981  0.00  0.00    -0.266 OA
ATOM      3  N   UNL d   1      28.052 -14.212   0.441  0.00  0.00    -0.264 N 
ATOM      4  H   UNL d   1      28.725 -13.942  -0.270  0.00  0.00     0.190 HD
ENDROOT
BRANCH   1   5
ATOM      5  C   UNL d   1      27.241 -11.861   0.704  0.00  0.00     0.037 A 
ATOM      6  C   UNL d   1      27.608 -11.485  -0.613  0.00  0.00     0.034 A 
ATOM      7  C   UNL d   1      27.455 -10.153  -1.074  0.00  0.00     0.042 A 
ATOM      8  C   UNL d   1      26.980  -9.173  -0.199  0.00  0.00     0.053 A 
ATOM      9  C   UNL d   1      26.680  -9.530   1.124  0.00  0.00     0.104 A 
ATOM     10  C   UNL d   1      26.834 -10.853   1.584  0.00  0.00     0.053 A 
BRANCH   7  11
ATOM     11  C   UNL d   1      27.609  -9.843  -2.528  0.00  0.00     0.293 C 
ATOM     12  O   UNL d   1      28.641  -9.368  -2.986  0.00  0.00    -0.259 OA
BRANCH  11  13
ATOM     13  O   UNL d   1      26.501 -10.169  -3.241  0.00  0.00    -0.323 OA
ATOM     14  C   UNL d   1      25.545  -9.100  -3.379  0.00  0.00     0.213 C 
ENDBRANCH  11  13
ENDBRANCH   7  11
BRANCH   9  15
ATOM     15  N   UNL d   1      26.101  -8.526   2.031  0.00  0.00    -0.116 N 
ATOM     16  O   UNL d   1      26.280  -8.683   3.247  0.00  0.00    -0.532 OA
ATOM     17  O   UNL d   1      25.456  -7.598   1.527  0.00  0.00    -0.532 OA
ENDBRANCH   9  15
ENDBRANCH   1   5
BRANCH   3  18
ATOM     18  N   UNL d   1      28.111 -15.605   0.778  0.00  0.00    -0.274 N 
ATOM     19  H   UNL d   1      28.898 -15.893   1.354  0.00  0.00     0.189 HD
BRANCH  18  20
ATOM     20  C   UNL d   1      27.113 -16.466   0.320  0.00  0.00     0.186 C 
ATOM     21  S   UNL d   1      27.350 -18.134   0.234  0.00  0.00    -0.040 SA
BRANCH  20  22
ATOM     22  N   UNL d   1      25.932 -15.836  -0.062  0.00  0.00    -0.366 N 
ATOM     23  H   UNL d   1      25.597 -15.041   0.465  0.00  0.00     0.161 HD
BRANCH  22  24
ATOM     24  C   UNL d   1      25.086 -16.322  -1.163  0.00  0.00     0.122 C 
BRANCH  24  25
ATOM     25  C   UNL d   1      23.577 -16.324  -0.896  0.00  0.00     0.023 C 
BRANCH  25  26
ATOM     26  C   UNL d   1      23.105 -17.637  -0.218  0.00  0.00    -0.021 C 
ATOM     27  C   UNL d   1      21.858 -18.215  -0.894  0.00  0.00     0.009 C 
ATOM     28  C   UNL d   1      24.219 -18.686  -0.246  0.00  0.00     0.009 C 
ENDBRANCH  25  26
ENDBRANCH  24  25
ENDBRANCH  22  24
ENDBRANCH  20  22
ENDBRANCH  18  20
ENDBRANCH   3  18
TORSDOF 10
ENDMDL
