MODEL 1
REMARK VINA RESULT:    -8.184      0.000      0.000
REMARK INTER + INTRA:         -11.080
REMARK INTER:                  -9.377
REMARK INTRA:                  -1.703
REMARK CONF_INDEPENDENT:        1.193
REMARK UNBOUND:                -1.703
REMARK  4 active torsions:
REMARK  status: ('A' for Active; 'I' for Inactive)
REMARK       I    between atoms: C_2  and  N_3 
REMARK    1  A    between atoms: C_2  and  C_18 
REMARK    2  A    between atoms: N_3  and  C_4 
REMARK    3  A    between atoms: C_9  and  N_10 
REMARK       I    between atoms: N_10  and  C_11 
REMARK       I    between atoms: C_11  and  N_13 
REMARK    4  A    between atoms: C_22  and  N_23 
ROOT
ATOM      1  O   UNL d   1      26.745 -14.072   1.438  0.00  0.00    -0.266 OA
ATOM      2  C   UNL d   1      27.775 -14.495   1.927  0.00  0.00     0.272 C 
ATOM      3  N   UNL d   1      28.709 -15.283   1.198  0.00  0.00    -0.320 N 
ATOM      4  H   UNL d   1      29.534 -15.592   1.685  0.00  0.00     0.169 HD
ENDROOT
BRANCH   3   5
ATOM      5  C   UNL d   1      28.901 -15.402  -0.214  0.00  0.00     0.062 A 
ATOM      6  C   UNL d   1      30.202 -15.075  -0.679  0.00  0.00     0.032 A 
ATOM      7  C   UNL d   1      30.546 -15.128  -2.036  0.00  0.00     0.002 A 
ATOM      8  C   UNL d   1      29.590 -15.517  -2.962  0.00  0.00     0.002 A 
ATOM      9  C   UNL d   1      28.278 -15.790  -2.533  0.00  0.00     0.032 A 
ATOM     10  C   UNL d   1      27.904 -15.713  -1.165  0.00  0.00     0.063 A 
BRANCH  10  11
ATOM     11  N   UNL d   1      26.532 -15.939  -0.834  0.00  0.00    -0.307 N 
ATOM     12  C   UNL d   1      25.986 -17.188  -0.632  0.00  0.00     0.322 C 
ATOM     13  O   UNL d   1      26.654 -18.167  -0.298  0.00  0.00    -0.247 OA
ATOM     14  N   UNL d   1      24.628 -17.316  -0.822  0.00  0.00    -0.334 N 
ATOM     15  C   UNL d   1      23.618 -16.327  -1.151  0.00  0.00     0.127 C 
ATOM     16  C   UNL d   1      23.982 -18.585  -0.521  0.00  0.00     0.127 C 
ATOM     17  C   UNL d   1      22.536 -16.694  -0.145  0.00  0.00     0.022 C 
ATOM     18  C   UNL d   1      22.537 -18.224  -0.189  0.00  0.00     0.022 C 
ATOM     19  H   UNL d   1      26.039 -15.182  -0.389  0.00  0.00     0.170 HD
ENDBRANCH  10  11
ENDBRANCH   3   5
BRANCH   2  20
ATOM     20  C   UNL d   1      28.170 -14.253   3.358  0.00  0.00     0.102 C 
ATOM     21  C   UNL d   1      27.887 -13.103   4.052  0.00  0.00     0.049 C 
ATOM     22  C   UNL d   1      28.151 -13.275   5.410  0.00  0.00    -0.005 C 
ATOM     23  C   UNL d   1      27.814 -12.461   6.487  0.00  0.00     0.050 C 
ATOM     24  C   UNL d   1      28.999 -14.361   5.546  0.00  0.00     0.043 C 
ATOM     25  C   UNL d   1      28.537 -12.529   7.665  0.00  0.00     0.103 C 
ATOM     26  C   UNL d   1      29.548 -13.486   7.796  0.00  0.00     0.038 C 
ATOM     27  C   UNL d   1      29.782 -14.450   6.748  0.00  0.00     0.033 C 
ATOM     28  N   UNL d   1      28.734 -15.101   4.357  0.00  0.00    -0.351 N 
ATOM     29  H   UNL d   1      28.693 -16.116   4.300  0.00  0.00     0.166 HD
BRANCH  25  30
ATOM     30  N   UNL d   1      28.256 -11.484   8.664  0.00  0.00    -0.116 N 
ATOM     31  O   UNL d   1      28.549 -10.314   8.366  0.00  0.00    -0.532 OA
ATOM     32  O   UNL d   1      27.767 -11.822   9.750  0.00  0.00    -0.532 OA
ENDBRANCH  25  30
ENDBRANCH   2  20
TORSDOF 4
ENDMDL
MODEL 2
REMARK VINA RESULT:    -7.814      6.229      8.512
REMARK INTER + INTRA:         -10.801
REMARK INTER:                  -9.007
REMARK INTRA:                  -1.794
REMARK CONF_INDEPENDENT:        1.193
REMARK UNBOUND:                -1.794
REMARK  4 active torsions:
REMARK  status: ('A' for Active; 'I' for Inactive)
REMARK       I    between atoms: C_2  and  N_3 
REMARK    1  A    between atoms: C_2  and  C_18 
REMARK    2  A    between atoms: N_3  and  C_4 
REMARK    3  A    between atoms: C_9  and  N_10 
REMARK       I    between atoms: N_10  and  C_11 
REMARK       I    between atoms: C_11  and  N_13 
REMARK    4  A    between atoms: C_22  and  N_23 
ROOT
ATOM      1  O   UNL d   1      29.154 -15.580  -2.652  0.00  0.00    -0.266 OA
ATOM      2  C   UNL d   1      27.958 -15.518  -2.871  0.00  0.00     0.272 C 
ATOM      3  N   UNL d   1      27.404 -14.713  -3.904  0.00  0.00    -0.320 N 
ATOM      4  H   UNL d   1      26.403 -14.723  -4.011  0.00  0.00     0.169 HD
ENDROOT
BRANCH   3   5
ATOM      5  C   UNL d   1      28.016 -14.189  -5.086  0.00  0.00     0.062 A 
ATOM      6  C   UNL d   1      27.327 -13.112  -5.701  0.00  0.00     0.032 A 
ATOM      7  C   UNL d   1      27.791 -12.498  -6.872  0.00  0.00     0.002 A 
ATOM      8  C   UNL d   1      28.967 -12.950  -7.452  0.00  0.00     0.002 A 
ATOM      9  C   UNL d   1      29.637 -14.054  -6.894  0.00  0.00     0.032 A 
ATOM     10  C   UNL d   1      29.165 -14.706  -5.724  0.00  0.00     0.063 A 
BRANCH  10  11
ATOM     11  N   UNL d   1      29.875 -15.861  -5.272  0.00  0.00    -0.307 N 
ATOM     12  C   UNL d   1      30.257 -16.900  -6.093  0.00  0.00     0.322 C 
ATOM     13  O   UNL d   1      30.417 -16.771  -7.308  0.00  0.00    -0.247 OA
ATOM     14  N   UNL d   1      30.461 -18.126  -5.500  0.00  0.00    -0.334 N 
ATOM     15  C   UNL d   1      30.403 -18.528  -4.106  0.00  0.00     0.127 C 
ATOM     16  C   UNL d   1      30.967 -19.230  -6.301  0.00  0.00     0.127 C 
ATOM     17  C   UNL d   1      31.682 -19.346  -4.002  0.00  0.00     0.022 C 
ATOM     18  C   UNL d   1      31.683 -20.143  -5.309  0.00  0.00     0.022 C 
ATOM     19  H   UNL d   1      30.420 -15.762  -4.430  0.00  0.00     0.170 HD
ENDBRANCH  10  11
ENDBRANCH   3   5
BRANCH   2  20
ATOM     20  C   UNL d   1      26.933 -16.265  -2.064  0.00  0.00     0.102 C 
ATOM     21  C   UNL d   1      25.582 -16.232  -2.312  0.00  0.00     0.049 C 
ATOM     22  C   UNL d   1      24.926 -17.210  -1.567  0.00  0.00    -0.005 C 
ATOM     23  C   UNL d   1      23.615 -17.667  -1.667  0.00  0.00     0.050 C 
ATOM     24  C   UNL d   1      25.759 -17.587  -0.528  0.00  0.00     0.043 C 
ATOM     25  C   UNL d   1      23.005 -18.276  -0.584  0.00  0.00     0.103 C 
ATOM     26  C   UNL d   1      23.746 -18.512   0.578  0.00  0.00     0.038 C 
ATOM     27  C   UNL d   1      25.154 -18.202   0.622  0.00  0.00     0.033 C 
ATOM     28  N   UNL d   1      27.047 -17.246  -1.035  0.00  0.00    -0.351 N 
ATOM     29  H   UNL d   1      27.892 -17.793  -0.891  0.00  0.00     0.166 HD
BRANCH  25  30
ATOM     30  N   UNL d   1      21.558 -18.523  -0.704  0.00  0.00    -0.116 N 
ATOM     31  O   UNL d   1      21.170 -19.701  -0.627  0.00  0.00    -0.532 OA
ATOM     32  O   UNL d   1      20.809 -17.557  -0.895  0.00  0.00    -0.532 OA
ENDBRANCH  25  30
ENDBRANCH   2  20
TORSDOF 4
ENDMDL
MODEL 3
REMARK VINA RESULT:    -7.767      6.425      8.547
REMARK INTER + INTRA:         -11.280
REMARK INTER:                  -8.960
REMARK INTRA:                  -2.320
REMARK CONF_INDEPENDENT:        1.193
REMARK UNBOUND:                -2.320
REMARK  4 active torsions:
REMARK  status: ('A' for Active; 'I' for Inactive)
REMARK       I    between atoms: C_2  and  N_3 
REMARK    1  A    between atoms: C_2  and  C_18 
REMARK    2  A    between atoms: N_3  and  C_4 
REMARK    3  A    between atoms: C_9  and  N_10 
REMARK       I    between atoms: N_10  and  C_11 
REMARK       I    between atoms: C_11  and  N_13 
REMARK    4  A    between atoms: C_22  and  N_23 
ROOT
ATOM      1  O   UNL d   1      26.175 -12.389  -3.592  0.00  0.00    -0.266 OA
ATOM      2  C   UNL d   1      26.384 -13.551  -3.888  0.00  0.00     0.272 C 
ATOM      3  N   UNL d   1      26.953 -13.940  -5.131  0.00  0.00    -0.320 N 
ATOM      4  H   UNL d   1      27.088 -14.925  -5.290  0.00  0.00     0.169 HD
ENDROOT
BRANCH   3   5
ATOM      5  C   UNL d   1      27.741 -13.183  -6.055  0.00  0.00     0.062 A 
ATOM      6  C   UNL d   1      27.354 -11.827  -6.214  0.00  0.00     0.032 A 
ATOM      7  C   UNL d   1      28.017 -10.959  -7.091  0.00  0.00     0.002 A 
ATOM      8  C   UNL d   1      29.092 -11.432  -7.829  0.00  0.00     0.002 A 
ATOM      9  C   UNL d   1      29.458 -12.788  -7.732  0.00  0.00     0.032 A 
ATOM     10  C   UNL d   1      28.778 -13.689  -6.870  0.00  0.00     0.063 A 
BRANCH  10  11
ATOM     11  N   UNL d   1      29.176 -15.061  -6.892  0.00  0.00    -0.307 N 
ATOM     12  C   UNL d   1      29.328 -15.836  -5.763  0.00  0.00     0.322 C 
ATOM     13  O   UNL d   1      28.755 -15.594  -4.700  0.00  0.00    -0.247 OA
ATOM     14  N   UNL d   1      30.167 -16.924  -5.857  0.00  0.00    -0.334 N 
ATOM     15  C   UNL d   1      30.904 -17.460  -6.988  0.00  0.00     0.127 C 
ATOM     16  C   UNL d   1      30.283 -17.836  -4.729  0.00  0.00     0.127 C 
ATOM     17  C   UNL d   1      30.579 -18.941  -6.851  0.00  0.00     0.022 C 
ATOM     18  C   UNL d   1      30.688 -19.174  -5.342  0.00  0.00     0.022 C 
ATOM     19  H   UNL d   1      28.996 -15.575  -7.740  0.00  0.00     0.170 HD
ENDBRANCH  10  11
ENDBRANCH   3   5
BRANCH   2  20
ATOM     20  C   UNL d   1      26.046 -14.705  -2.985  0.00  0.00     0.102 C 
ATOM     21  C   UNL d   1      24.769 -15.041  -2.607  0.00  0.00     0.049 C 
ATOM     22  C   UNL d   1      24.756 -16.288  -1.985  0.00  0.00    -0.005 C 
ATOM     23  C   UNL d   1      23.676 -17.096  -1.645  0.00  0.00     0.050 C 
ATOM     24  C   UNL d   1      26.046 -16.571  -1.570  0.00  0.00     0.043 C 
ATOM     25  C   UNL d   1      23.802 -18.043  -0.644  0.00  0.00     0.103 C 
ATOM     26  C   UNL d   1      25.048 -18.244  -0.042  0.00  0.00     0.038 C 
ATOM     27  C   UNL d   1      26.212 -17.534  -0.516  0.00  0.00     0.033 C 
ATOM     28  N   UNL d   1      26.830 -15.770  -2.452  0.00  0.00    -0.351 N 
ATOM     29  H   UNL d   1      27.719 -16.051  -2.856  0.00  0.00     0.166 HD
BRANCH  25  30
ATOM     30  N   UNL d   1      22.558 -18.694  -0.200  0.00  0.00    -0.116 N 
ATOM     31  O   UNL d   1      21.907 -19.325  -1.049  0.00  0.00    -0.532 OA
ATOM     32  O   UNL d   1      22.213 -18.562   0.982  0.00  0.00    -0.532 OA
ENDBRANCH  25  30
ENDBRANCH   2  20
TORSDOF 4
ENDMDL
MODEL 4
REMARK VINA RESULT:    -7.767      3.055      8.075
REMARK INTER + INTRA:         -10.685
REMARK INTER:                  -8.960
REMARK INTRA:                  -1.725
REMARK CONF_INDEPENDENT:        1.193
REMARK UNBOUND:                -1.725
REMARK  4 active torsions:
REMARK  status: ('A' for Active; 'I' for Inactive)
REMARK       I    between atoms: C_2  and  N_3 
REMARK    1  A    between atoms: C_2  and  C_18 
REMARK    2  A    between atoms: N_3  and  C_4 
REMARK    3  A    between atoms: C_9  and  N_10 
REMARK       I    between atoms: N_10  and  C_11 
REMARK       I    between atoms: C_11  and  N_13 
REMARK    4  A    between atoms: C_22  and  N_23 
ROOT
ATOM      1  O   UNL d   1      27.827 -16.061  -3.161  0.00  0.00    -0.266 OA
ATOM      2  C   UNL d   1      27.703 -16.332  -1.982  0.00  0.00     0.272 C 
ATOM      3  N   UNL d   1      28.754 -16.166  -1.037  0.00  0.00    -0.320 N 
ATOM      4  H   UNL d   1      28.561 -16.417  -0.082  0.00  0.00     0.169 HD
ENDROOT
BRANCH   3   5
ATOM      5  C   UNL d   1      29.919 -15.338  -1.100  0.00  0.00     0.062 A 
ATOM      6  C   UNL d   1      30.524 -15.238  -2.380  0.00  0.00     0.032 A 
ATOM      7  C   UNL d   1      31.679 -14.476  -2.603  0.00  0.00     0.002 A 
ATOM      8  C   UNL d   1      32.253 -13.790  -1.543  0.00  0.00     0.002 A 
ATOM      9  C   UNL d   1      31.705 -13.921  -0.253  0.00  0.00     0.032 A 
ATOM     10  C   UNL d   1      30.552 -14.712  -0.004  0.00  0.00     0.063 A 
BRANCH  10  11
ATOM     11  N   UNL d   1      30.111 -14.839   1.349  0.00  0.00    -0.307 N 
ATOM     12  C   UNL d   1      28.831 -14.553   1.772  0.00  0.00     0.322 C 
ATOM     13  O   UNL d   1      27.856 -14.573   1.020  0.00  0.00    -0.247 OA
ATOM     14  N   UNL d   1      28.667 -14.229   3.101  0.00  0.00    -0.334 N 
ATOM     15  C   UNL d   1      29.622 -14.192   4.193  0.00  0.00     0.127 C 
ATOM     16  C   UNL d   1      27.326 -14.020   3.623  0.00  0.00     0.127 C 
ATOM     17  C   UNL d   1      28.834 -14.923   5.271  0.00  0.00     0.022 C 
ATOM     18  C   UNL d   1      27.425 -14.349   5.111  0.00  0.00     0.022 C 
ATOM     19  H   UNL d   1      30.619 -15.483   1.936  0.00  0.00     0.170 HD
ENDBRANCH  10  11
ENDBRANCH   3   5
BRANCH   2  20
ATOM     20  C   UNL d   1      26.438 -16.891  -1.392  0.00  0.00     0.102 C 
ATOM     21  C   UNL d   1      25.231 -16.924  -2.045  0.00  0.00     0.049 C 
ATOM     22  C   UNL d   1      24.321 -17.719  -1.350  0.00  0.00    -0.005 C 
ATOM     23  C   UNL d   1      23.077 -18.196  -1.750  0.00  0.00     0.050 C 
ATOM     24  C   UNL d   1      24.776 -17.850  -0.049  0.00  0.00     0.043 C 
ATOM     25  C   UNL d   1      22.132 -18.556  -0.806  0.00  0.00     0.103 C 
ATOM     26  C   UNL d   1      22.470 -18.523   0.551  0.00  0.00     0.038 C 
ATOM     27  C   UNL d   1      23.815 -18.200   0.961  0.00  0.00     0.033 C 
ATOM     28  N   UNL d   1      26.175 -17.619  -0.194  0.00  0.00    -0.351 N 
ATOM     29  H   UNL d   1      26.902 -18.114   0.317  0.00  0.00     0.166 HD
BRANCH  25  30
ATOM     30  N   UNL d   1      20.777 -18.835  -1.311  0.00  0.00    -0.116 N 
ATOM     31  O   UNL d   1      20.655 -19.742  -2.151  0.00  0.00    -0.532 OA
ATOM     32  O   UNL d   1      19.838 -18.144  -0.894  0.00  0.00    -0.532 OA
ENDBRANCH  25  30
ENDBRANCH   2  20
TORSDOF 4
ENDMDL
MODEL 5
REMARK VINA RESULT:    -7.724      6.331      8.682
REMARK INTER + INTRA:         -10.669
REMARK INTER:                  -8.917
REMARK INTRA:                  -1.751
REMARK CONF_INDEPENDENT:        1.193
REMARK UNBOUND:                -1.751
REMARK  4 active torsions:
REMARK  status: ('A' for Active; 'I' for Inactive)
REMARK       I    between atoms: C_2  and  N_3 
REMARK    1  A    between atoms: C_2  and  C_18 
REMARK    2  A    between atoms: N_3  and  C_4 
REMARK    3  A    between atoms: C_9  and  N_10 
REMARK       I    between atoms: N_10  and  C_11 
REMARK       I    between atoms: C_11  and  N_13 
REMARK    4  A    between atoms: C_22  and  N_23 
ROOT
ATOM      1  O   UNL d   1      26.970 -13.289  -2.551  0.00  0.00    -0.266 OA
ATOM      2  C   UNL d   1      26.565 -14.345  -3.001  0.00  0.00     0.272 C 
ATOM      3  N   UNL d   1      26.690 -14.698  -4.373  0.00  0.00    -0.320 N 
ATOM      4  H   UNL d   1      26.324 -15.592  -4.656  0.00  0.00     0.169 HD
ENDROOT
BRANCH   3   5
ATOM      5  C   UNL d   1      27.589 -14.200  -5.368  0.00  0.00     0.062 A 
ATOM      6  C   UNL d   1      28.442 -15.170  -5.956  0.00  0.00     0.032 A 
ATOM      7  C   UNL d   1      29.387 -14.839  -6.936  0.00  0.00     0.002 A 
ATOM      8  C   UNL d   1      29.494 -13.521  -7.356  0.00  0.00     0.002 A 
ATOM      9  C   UNL d   1      28.700 -12.532  -6.746  0.00  0.00     0.032 A 
ATOM     10  C   UNL d   1      27.758 -12.845  -5.731  0.00  0.00     0.063 A 
BRANCH  10  11
ATOM     11  N   UNL d   1      27.047 -11.764  -5.123  0.00  0.00    -0.307 N 
ATOM     12  C   UNL d   1      26.146 -10.964  -5.791  0.00  0.00     0.322 C 
ATOM     13  O   UNL d   1      25.549 -11.327  -6.805  0.00  0.00    -0.247 OA
ATOM     14  N   UNL d   1      25.926  -9.704  -5.278  0.00  0.00    -0.334 N 
ATOM     15  C   UNL d   1      26.444  -9.062  -4.084  0.00  0.00     0.127 C 
ATOM     16  C   UNL d   1      24.909  -8.857  -5.881  0.00  0.00     0.127 C 
ATOM     17  C   UNL d   1      25.163  -8.464  -3.517  0.00  0.00     0.022 C 
ATOM     18  C   UNL d   1      24.463  -7.918  -4.764  0.00  0.00     0.022 C 
ATOM     19  H   UNL d   1      26.921 -11.806  -4.124  0.00  0.00     0.170 HD
ENDBRANCH  10  11
ENDBRANCH   3   5
BRANCH   2  20
ATOM     20  C   UNL d   1      25.869 -15.384  -2.166  0.00  0.00     0.102 C 
ATOM     21  C   UNL d   1      24.506 -15.477  -2.026  0.00  0.00     0.049 C 
ATOM     22  C   UNL d   1      24.159 -16.676  -1.407  0.00  0.00    -0.005 C 
ATOM     23  C   UNL d   1      22.909 -17.269  -1.264  0.00  0.00     0.050 C 
ATOM     24  C   UNL d   1      25.282 -17.164  -0.760  0.00  0.00     0.043 C 
ATOM     25  C   UNL d   1      22.682 -18.182  -0.249  0.00  0.00     0.103 C 
ATOM     26  C   UNL d   1      23.744 -18.573   0.572  0.00  0.00     0.038 C 
ATOM     27  C   UNL d   1      25.081 -18.097   0.315  0.00  0.00     0.033 C 
ATOM     28  N   UNL d   1      26.342 -16.548  -1.489  0.00  0.00    -0.351 N 
ATOM     29  H   UNL d   1      27.224 -16.996  -1.722  0.00  0.00     0.166 HD
BRANCH  25  30
ATOM     30  N   UNL d   1      21.282 -18.586  -0.035  0.00  0.00    -0.116 N 
ATOM     31  O   UNL d   1      20.444 -18.214  -0.874  0.00  0.00    -0.532 OA
ATOM     32  O   UNL d   1      21.008 -19.251   0.972  0.00  0.00    -0.532 OA
ENDBRANCH  25  30
ENDBRANCH   2  20
TORSDOF 4
ENDMDL
MODEL 6
REMARK VINA RESULT:    -7.543      3.175      9.096
REMARK INTER + INTRA:         -10.448
REMARK INTER:                  -8.737
REMARK INTRA:                  -1.711
REMARK CONF_INDEPENDENT:        1.193
REMARK UNBOUND:                -1.711
REMARK  4 active torsions:
REMARK  status: ('A' for Active; 'I' for Inactive)
REMARK       I    between atoms: C_2  and  N_3 
REMARK    1  A    between atoms: C_2  and  C_18 
REMARK    2  A    between atoms: N_3  and  C_4 
REMARK    3  A    between atoms: C_9  and  N_10 
REMARK       I    between atoms: N_10  and  C_11 
REMARK       I    between atoms: C_11  and  N_13 
REMARK    4  A    between atoms: C_22  and  N_23 
ROOT
ATOM      1  O   UNL d   1      29.224 -12.808   2.088  0.00  0.00    -0.266 OA
ATOM      2  C   UNL d   1      28.533 -13.799   2.237  0.00  0.00     0.272 C 
ATOM      3  N   UNL d   1      28.326 -14.412   3.503  0.00  0.00    -0.320 N 
ATOM      4  H   UNL d   1      27.739 -15.230   3.530  0.00  0.00     0.169 HD
ENDROOT
BRANCH   3   5
ATOM      5  C   UNL d   1      28.469 -13.869   4.819  0.00  0.00     0.062 A 
ATOM      6  C   UNL d   1      28.747 -14.815   5.839  0.00  0.00     0.032 A 
ATOM      7  C   UNL d   1      28.902 -14.444   7.181  0.00  0.00     0.002 A 
ATOM      8  C   UNL d   1      28.786 -13.106   7.531  0.00  0.00     0.002 A 
ATOM      9  C   UNL d   1      28.453 -12.157   6.546  0.00  0.00     0.032 A 
ATOM     10  C   UNL d   1      28.264 -12.521   5.187  0.00  0.00     0.063 A 
BRANCH  10  11
ATOM     11  N   UNL d   1      27.859 -11.499   4.273  0.00  0.00    -0.307 N 
ATOM     12  C   UNL d   1      28.037 -10.152   4.498  0.00  0.00     0.322 C 
ATOM     13  O   UNL d   1      28.900  -9.706   5.254  0.00  0.00    -0.247 OA
ATOM     14  N   UNL d   1      27.192  -9.289   3.835  0.00  0.00    -0.334 N 
ATOM     15  C   UNL d   1      26.149  -9.545   2.859  0.00  0.00     0.127 C 
ATOM     16  C   UNL d   1      27.403  -7.854   3.954  0.00  0.00     0.127 C 
ATOM     17  C   UNL d   1      26.481  -8.484   1.818  0.00  0.00     0.022 C 
ATOM     18  C   UNL d   1      26.818  -7.261   2.674  0.00  0.00     0.022 C 
ATOM     19  H   UNL d   1      27.775 -11.762   3.303  0.00  0.00     0.170 HD
ENDBRANCH  10  11
ENDBRANCH   3   5
BRANCH   2  20
ATOM     20  C   UNL d   1      27.839 -14.497   1.101  0.00  0.00     0.102 C 
ATOM     21  C   UNL d   1      27.431 -13.876  -0.054  0.00  0.00     0.049 C 
ATOM     22  C   UNL d   1      27.055 -14.818  -1.009  0.00  0.00    -0.005 C 
ATOM     23  C   UNL d   1      26.788 -14.647  -2.364  0.00  0.00     0.050 C 
ATOM     24  C   UNL d   1      26.803 -16.012  -0.355  0.00  0.00     0.043 C 
ATOM     25  C   UNL d   1      25.995 -15.559  -3.039  0.00  0.00     0.103 C 
ATOM     26  C   UNL d   1      25.542 -16.701  -2.371  0.00  0.00     0.038 C 
ATOM     27  C   UNL d   1      25.964 -16.972  -1.018  0.00  0.00     0.033 C 
ATOM     28  N   UNL d   1      27.578 -15.874   0.834  0.00  0.00    -0.351 N 
ATOM     29  H   UNL d   1      28.097 -16.626   1.280  0.00  0.00     0.166 HD
BRANCH  25  30
ATOM     30  N   UNL d   1      25.584 -15.183  -4.402  0.00  0.00    -0.116 N 
ATOM     31  O   UNL d   1      26.268 -15.614  -5.346  0.00  0.00    -0.532 OA
ATOM     32  O   UNL d   1      24.599 -14.446  -4.539  0.00  0.00    -0.532 OA
ENDBRANCH  25  30
ENDBRANCH   2  20
TORSDOF 4
ENDMDL
MODEL 7
REMARK VINA RESULT:    -7.513      3.831      4.909
REMARK INTER + INTRA:         -10.186
REMARK INTER:                  -8.706
REMARK INTRA:                  -1.480
REMARK CONF_INDEPENDENT:        1.193
REMARK UNBOUND:                -1.480
REMARK  4 active torsions:
REMARK  status: ('A' for Active; 'I' for Inactive)
REMARK       I    between atoms: C_2  and  N_3 
REMARK    1  A    between atoms: C_2  and  C_18 
REMARK    2  A    between atoms: N_3  and  C_4 
REMARK    3  A    between atoms: C_9  and  N_10 
REMARK       I    between atoms: N_10  and  C_11 
REMARK       I    between atoms: C_11  and  N_13 
REMARK    4  A    between atoms: C_22  and  N_23 
ROOT
ATOM      1  O   UNL d   1      28.751 -14.593  -1.371  0.00  0.00    -0.266 OA
ATOM      2  C   UNL d   1      28.397 -13.435  -1.495  0.00  0.00     0.272 C 
ATOM      3  N   UNL d   1      28.387 -12.761  -2.748  0.00  0.00    -0.320 N 
ATOM      4  H   UNL d   1      28.080 -11.802  -2.755  0.00  0.00     0.169 HD
ENDROOT
BRANCH   3   5
ATOM      5  C   UNL d   1      28.356 -13.294  -4.075  0.00  0.00     0.062 A 
ATOM      6  C   UNL d   1      28.854 -12.434  -5.087  0.00  0.00     0.032 A 
ATOM      7  C   UNL d   1      28.879 -12.804  -6.438  0.00  0.00     0.002 A 
ATOM      8  C   UNL d   1      28.407 -14.056  -6.806  0.00  0.00     0.002 A 
ATOM      9  C   UNL d   1      27.853 -14.904  -5.828  0.00  0.00     0.032 A 
ATOM     10  C   UNL d   1      27.794 -14.532  -4.458  0.00  0.00     0.063 A 
BRANCH  10  11
ATOM     11  N   UNL d   1      27.152 -15.430  -3.551  0.00  0.00    -0.307 N 
ATOM     12  C   UNL d   1      25.819 -15.357  -3.211  0.00  0.00     0.322 C 
ATOM     13  O   UNL d   1      24.971 -14.825  -3.929  0.00  0.00    -0.247 OA
ATOM     14  N   UNL d   1      25.448 -15.911  -2.005  0.00  0.00    -0.334 N 
ATOM     15  C   UNL d   1      26.223 -16.638  -1.017  0.00  0.00     0.127 C 
ATOM     16  C   UNL d   1      24.039 -15.955  -1.645  0.00  0.00     0.127 C 
ATOM     17  C   UNL d   1      25.288 -17.808  -0.742  0.00  0.00     0.022 C 
ATOM     18  C   UNL d   1      23.912 -17.140  -0.690  0.00  0.00     0.022 C 
ATOM     19  H   UNL d   1      27.572 -16.339  -3.434  0.00  0.00     0.170 HD
ENDBRANCH  10  11
ENDBRANCH   3   5
BRANCH   2  20
ATOM     20  C   UNL d   1      27.952 -12.581  -0.341  0.00  0.00     0.102 C 
ATOM     21  C   UNL d   1      27.857 -11.211  -0.385  0.00  0.00     0.049 C 
ATOM     22  C   UNL d   1      27.184 -10.732   0.737  0.00  0.00    -0.005 C 
ATOM     23  C   UNL d   1      26.685  -9.459   0.992  0.00  0.00     0.050 C 
ATOM     24  C   UNL d   1      27.219 -11.717   1.709  0.00  0.00     0.043 C 
ATOM     25  C   UNL d   1      26.476  -9.040   2.295  0.00  0.00     0.103 C 
ATOM     26  C   UNL d   1      26.684  -9.938   3.346  0.00  0.00     0.038 C 
ATOM     27  C   UNL d   1      27.029 -11.312   3.075  0.00  0.00     0.033 C 
ATOM     28  N   UNL d   1      27.397 -12.900   0.934  0.00  0.00    -0.351 N 
ATOM     29  H   UNL d   1      26.959 -13.796   1.132  0.00  0.00     0.166 HD
BRANCH  25  30
ATOM     30  N   UNL d   1      26.162  -7.613   2.479  0.00  0.00    -0.116 N 
ATOM     31  O   UNL d   1      25.431  -7.073   1.632  0.00  0.00    -0.532 OA
ATOM     32  O   UNL d   1      26.655  -7.021   3.448  0.00  0.00    -0.532 OA
ENDBRANCH  25  30
ENDBRANCH   2  20
TORSDOF 4
ENDMDL
MODEL 8
REMARK VINA RESULT:    -7.360      3.466      4.078
REMARK INTER + INTRA:         -10.262
REMARK INTER:                  -8.553
REMARK INTRA:                  -1.709
REMARK CONF_INDEPENDENT:        1.193
REMARK UNBOUND:                -1.709
REMARK  4 active torsions:
REMARK  status: ('A' for Active; 'I' for Inactive)
REMARK       I    between atoms: C_2  and  N_3 
REMARK    1  A    between atoms: C_2  and  C_18 
REMARK    2  A    between atoms: N_3  and  C_4 
REMARK    3  A    between atoms: C_9  and  N_10 
REMARK       I    between atoms: N_10  and  C_11 
REMARK       I    between atoms: C_11  and  N_13 
REMARK    4  A    between atoms: C_22  and  N_23 
ROOT
ATOM      1  O   UNL d   1      26.366 -14.264   0.390  0.00  0.00    -0.266 OA
ATOM      2  C   UNL d   1      27.321 -13.873   1.033  0.00  0.00     0.272 C 
ATOM      3  N   UNL d   1      28.489 -14.660   1.237  0.00  0.00    -0.320 N 
ATOM      4  H   UNL d   1      29.230 -14.255   1.785  0.00  0.00     0.169 HD
ENDROOT
BRANCH   3   5
ATOM      5  C   UNL d   1      28.987 -15.771   0.487  0.00  0.00     0.062 A 
ATOM      6  C   UNL d   1      30.397 -15.817   0.332  0.00  0.00     0.032 A 
ATOM      7  C   UNL d   1      31.038 -16.834  -0.386  0.00  0.00     0.002 A 
ATOM      8  C   UNL d   1      30.275 -17.838  -0.965  0.00  0.00     0.002 A 
ATOM      9  C   UNL d   1      28.872 -17.782  -0.876  0.00  0.00     0.032 A 
ATOM     10  C   UNL d   1      28.205 -16.743  -0.176  0.00  0.00     0.063 A 
BRANCH  10  11
ATOM     11  N   UNL d   1      26.776 -16.733  -0.199  0.00  0.00    -0.307 N 
ATOM     12  C   UNL d   1      25.996 -17.859  -0.048  0.00  0.00     0.322 C 
ATOM     13  O   UNL d   1      26.389 -18.876   0.526  0.00  0.00    -0.247 OA
ATOM     14  N   UNL d   1      24.725 -17.817  -0.577  0.00  0.00    -0.334 N 
ATOM     15  C   UNL d   1      24.006 -16.742  -1.236  0.00  0.00     0.127 C 
ATOM     16  C   UNL d   1      23.824 -18.938  -0.355  0.00  0.00     0.127 C 
ATOM     17  C   UNL d   1      22.664 -16.832  -0.522  0.00  0.00     0.022 C 
ATOM     18  C   UNL d   1      22.421 -18.341  -0.442  0.00  0.00     0.022 C 
ATOM     19  H   UNL d   1      26.321 -15.866   0.040  0.00  0.00     0.170 HD
ENDBRANCH  10  11
ENDBRANCH   3   5
BRANCH   2  20
ATOM     20  C   UNL d   1      27.370 -12.527   1.702  0.00  0.00     0.102 C 
ATOM     21  C   UNL d   1      26.866 -11.374   1.153  0.00  0.00     0.049 C 
ATOM     22  C   UNL d   1      26.831 -10.355   2.104  0.00  0.00    -0.005 C 
ATOM     23  C   UNL d   1      26.210  -9.112   2.046  0.00  0.00     0.050 C 
ATOM     24  C   UNL d   1      27.695 -10.699   3.130  0.00  0.00     0.043 C 
ATOM     25  C   UNL d   1      26.655  -8.073   2.845  0.00  0.00     0.103 C 
ATOM     26  C   UNL d   1      27.671  -8.309   3.776  0.00  0.00     0.038 C 
ATOM     27  C   UNL d   1      28.194  -9.641   3.964  0.00  0.00     0.033 C 
ATOM     28  N   UNL d   1      27.750 -12.119   3.015  0.00  0.00    -0.351 N 
ATOM     29  H   UNL d   1      27.788 -12.764   3.800  0.00  0.00     0.166 HD
BRANCH  25  30
ATOM     30  N   UNL d   1      26.092  -6.742   2.559  0.00  0.00    -0.116 N 
ATOM     31  O   UNL d   1      26.224  -5.865   3.429  0.00  0.00    -0.532 OA
ATOM     32  O   UNL d   1      25.501  -6.570   1.485  0.00  0.00    -0.532 OA
ENDBRANCH  25  30
ENDBRANCH   2  20
TORSDOF 4
ENDMDL
MODEL 9
REMARK VINA RESULT:    -6.709      2.444      2.900
REMARK INTER + INTRA:         -10.240
REMARK INTER:                  -7.902
REMARK INTRA:                  -2.338
REMARK CONF_INDEPENDENT:        1.193
REMARK UNBOUND:                -2.338
REMARK  4 active torsions:
REMARK  status: ('A' for Active; 'I' for Inactive)
REMARK       I    between atoms: C_2  and  N_3 
REMARK    1  A    between atoms: C_2  and  C_18 
REMARK    2  A    between atoms: N_3  and  C_4 
REMARK    3  A    between atoms: C_9  and  N_10 
REMARK       I    between atoms: N_10  and  C_11 
REMARK       I    between atoms: C_11  and  N_13 
REMARK    4  A    between atoms: C_22  and  N_23 
ROOT
ATOM      1  O   UNL d   1      28.429 -11.242  -0.431  0.00  0.00    -0.266 OA
ATOM      2  C   UNL d   1      27.697 -12.101   0.024  0.00  0.00     0.272 C 
ATOM      3  N   UNL d   1      26.648 -12.698  -0.730  0.00  0.00    -0.320 N 
ATOM      4  H   UNL d   1      26.091 -13.400  -0.271  0.00  0.00     0.169 HD
ENDROOT
BRANCH   3   5
ATOM      5  C   UNL d   1      26.471 -12.782  -2.147  0.00  0.00     0.062 A 
ATOM      6  C   UNL d   1      27.033 -11.713  -2.893  0.00  0.00     0.032 A 
ATOM      7  C   UNL d   1      26.933 -11.643  -4.289  0.00  0.00     0.002 A 
ATOM      8  C   UNL d   1      26.270 -12.652  -4.972  0.00  0.00     0.002 A 
ATOM      9  C   UNL d   1      25.654 -13.691  -4.249  0.00  0.00     0.032 A 
ATOM     10  C   UNL d   1      25.720 -13.762  -2.833  0.00  0.00     0.063 A 
BRANCH  10  11
ATOM     11  N   UNL d   1      25.006 -14.816  -2.183  0.00  0.00    -0.307 N 
ATOM     12  C   UNL d   1      25.529 -15.591  -1.172  0.00  0.00     0.322 C 
ATOM     13  O   UNL d   1      26.452 -15.217  -0.448  0.00  0.00    -0.247 OA
ATOM     14  N   UNL d   1      24.976 -16.840  -0.989  0.00  0.00    -0.334 N 
ATOM     15  C   UNL d   1      23.861 -17.490  -1.652  0.00  0.00     0.127 C 
ATOM     16  C   UNL d   1      25.419 -17.658   0.129  0.00  0.00     0.127 C 
ATOM     17  C   UNL d   1      23.111 -18.043  -0.448  0.00  0.00     0.022 C 
ATOM     18  C   UNL d   1      24.239 -18.575   0.440  0.00  0.00     0.022 C 
ATOM     19  H   UNL d   1      23.999 -14.764  -2.203  0.00  0.00     0.170 HD
ENDBRANCH  10  11
ENDBRANCH   3   5
BRANCH   2  20
ATOM     20  C   UNL d   1      27.801 -12.613   1.434  0.00  0.00     0.102 C 
ATOM     21  C   UNL d   1      28.060 -11.821   2.525  0.00  0.00     0.049 C 
ATOM     22  C   UNL d   1      27.846 -12.530   3.705  0.00  0.00    -0.005 C 
ATOM     23  C   UNL d   1      27.780 -12.069   5.016  0.00  0.00     0.050 C 
ATOM     24  C   UNL d   1      27.870 -13.881   3.401  0.00  0.00     0.043 C 
ATOM     25  C   UNL d   1      28.029 -12.928   6.071  0.00  0.00     0.103 C 
ATOM     26  C   UNL d   1      28.257 -14.284   5.813  0.00  0.00     0.038 C 
ATOM     27  C   UNL d   1      28.150 -14.800   4.470  0.00  0.00     0.033 C 
ATOM     28  N   UNL d   1      27.528 -13.885   2.017  0.00  0.00    -0.351 N 
ATOM     29  H   UNL d   1      26.937 -14.579   1.567  0.00  0.00     0.166 HD
BRANCH  25  30
ATOM     30  N   UNL d   1      28.157 -12.309   7.401  0.00  0.00    -0.116 N 
ATOM     31  O   UNL d   1      28.249 -11.071   7.450  0.00  0.00    -0.532 OA
ATOM     32  O   UNL d   1      28.188 -13.047   8.395  0.00  0.00    -0.532 OA
ENDBRANCH  25  30
ENDBRANCH   2  20
TORSDOF 4
ENDMDL
