MODEL 1
REMARK VINA RESULT:   -32.672      0.000      0.000
REMARK INTER + INTRA:         -36.776
REMARK INTER:                 -35.059
REMARK INTRA:                  -1.718
REMARK CONF_INDEPENDENT:        2.386
REMARK UNBOUND:                -1.718
REMARK  8 active torsions:
REMARK  status: ('A' for Active; 'I' for Inactive)
REMARK    1  A    between atoms: C_5  and  N_6 
REMARK    2  A    between atoms: N_6  and  C_7 
REMARK    3  A    between atoms: C_7  and  C_8 
REMARK    4  A    between atoms: C_8  and  N_9 
REMARK       I    between atoms: N_9  and  C_10 
REMARK    5  A    between atoms: C_10  and  C_12 
REMARK    6  A    between atoms: C_12  and  N_13 
REMARK       I    between atoms: N_13  and  C_14 
REMARK    7  A    between atoms: C_14  and  C_16 
REMARK    8  A    between atoms: C_16  and  C_17 
ROOT
ATOM      1  N   UNL d   1      25.425 -17.400  -0.173  0.00  0.00    -0.358 N 
ATOM      2  C   UNL d   1      26.587 -17.776   0.500  0.00  0.00     0.235 C 
ATOM      3  O   UNL d   1      26.585 -18.674   1.336  0.00  0.00    -0.272 OA
ATOM      4  H   UNL d   1      25.470 -16.651  -0.855  0.00  0.00     0.162 HD
ENDROOT
BRANCH   2   5
ATOM      5  C   UNL d   1      27.876 -16.997   0.133  0.00  0.00     0.225 C 
BRANCH   5   6
ATOM      6  N   UNL d   1      28.097 -15.768   0.911  0.00  0.00    -0.352 N 
ATOM      7  C   UNL d   1      27.222 -14.693   0.747  0.00  0.00     0.218 C 
ATOM      8  O   UNL d   1      26.262 -14.797   0.010  0.00  0.00    -0.274 OA
ATOM      9  H   UNL d   1      28.894 -15.750   1.542  0.00  0.00     0.162 HD
BRANCH   7  10
ATOM     10  C   UNL d   1      27.519 -13.403   1.543  0.00  0.00     0.112 C 
BRANCH  10  11
ATOM     11  C   UNL d   1      28.312 -13.508   2.937  0.00  0.00    -0.031 C 
ATOM     12  C   UNL d   1      29.850 -14.030   3.162  0.00  0.00     0.014 C 
ATOM     13  C   UNL d   1      30.193 -14.005   4.706  0.00  0.00    -0.013 C 
ATOM     14  C   UNL d   1      30.079 -12.533   5.133  0.00  0.00     0.009 C 
ATOM     15  C   UNL d   1      29.212 -14.980   5.381  0.00  0.00     0.009 C 
ATOM     16  C   UNL d   1      28.629 -12.075   5.029  0.00  0.00    -0.013 C 
ATOM     17  C   UNL d   1      27.725 -13.019   5.825  0.00  0.00     0.009 C 
ATOM     18  C   UNL d   1      28.225 -12.090   3.561  0.00  0.00     0.014 C 
ATOM     19  C   UNL d   1      27.791 -14.447   5.266  0.00  0.00    -0.013 C 
ATOM     20  C   UNL d   1      27.406 -14.455   3.788  0.00  0.00     0.014 C 
ENDBRANCH  10  11
ENDBRANCH   7  10
ENDBRANCH   5   6
ENDBRANCH   2   5
BRANCH   1  21
ATOM     21  C   UNL d   1      24.148 -18.079   0.098  0.00  0.00     0.142 C 
BRANCH  21  22
ATOM     22  C   UNL d   1      23.249 -18.251  -1.144  0.00  0.00     0.141 C 
BRANCH  22  23
ATOM     23  N   UNL d   1      21.834 -17.920  -0.923  0.00  0.00    -0.372 N 
ATOM     24  H   UNL d   1      21.532 -16.954  -1.016  0.00  0.00     0.161 HD
BRANCH  23  25
ATOM     25  C   UNL d   1      20.908 -18.843  -0.460  0.00  0.00     0.143 C 
ATOM     26  C   UNL d   1      20.993 -19.357   0.823  0.00  0.00     0.054 C 
ATOM     27  C   UNL d   1      19.964 -20.127   1.328  0.00  0.00     0.030 C 
ATOM     28  C   UNL d   1      18.919 -20.471   0.488  0.00  0.00     0.024 C 
ATOM     29  C   UNL d   1      17.753 -21.264   0.991  0.00  0.00     0.070 C 
ATOM     30  N   UNL d   1      18.967 -20.077  -0.798  0.00  0.00    -0.281 N 
ATOM     31  N   UNL d   1      19.902 -19.238  -1.269  0.00  0.00    -0.157 NA
ATOM     32  H   UNL d   1      18.259 -20.421  -1.452  0.00  0.00     0.189 HD
ENDBRANCH  23  25
ENDBRANCH  22  23
ENDBRANCH  21  22
ENDBRANCH   1  21
TORSDOF 8
ENDMDL
MODEL 2
REMARK VINA RESULT:   -32.595      0.416      1.284
REMARK INTER + INTRA:         -36.699
REMARK INTER:                 -34.982
REMARK INTRA:                  -1.718
REMARK CONF_INDEPENDENT:        2.386
REMARK UNBOUND:                -1.718
REMARK  8 active torsions:
REMARK  status: ('A' for Active; 'I' for Inactive)
REMARK    1  A    between atoms: C_5  and  N_6 
REMARK    2  A    between atoms: N_6  and  C_7 
REMARK    3  A    between atoms: C_7  and  C_8 
REMARK    4  A    between atoms: C_8  and  N_9 
REMARK       I    between atoms: N_9  and  C_10 
REMARK    5  A    between atoms: C_10  and  C_12 
REMARK    6  A    between atoms: C_12  and  N_13 
REMARK       I    between atoms: N_13  and  C_14 
REMARK    7  A    between atoms: C_14  and  C_16 
REMARK    8  A    between atoms: C_16  and  C_17 
ROOT
ATOM      1  N   UNL d   1      25.324 -17.352  -0.014  0.00  0.00    -0.358 N 
ATOM      2  C   UNL d   1      26.527 -17.847   0.489  0.00  0.00     0.235 C 
ATOM      3  O   UNL d   1      26.589 -18.930   1.060  0.00  0.00    -0.272 OA
ATOM      4  H   UNL d   1      25.316 -16.449  -0.478  0.00  0.00     0.162 HD
ENDROOT
BRANCH   2   5
ATOM      5  C   UNL d   1      27.775 -16.951   0.287  0.00  0.00     0.225 C 
BRANCH   5   6
ATOM      6  N   UNL d   1      27.849 -15.784   1.180  0.00  0.00    -0.352 N 
ATOM      7  C   UNL d   1      27.142 -14.627   0.847  0.00  0.00     0.218 C 
ATOM      8  O   UNL d   1      26.435 -14.610  -0.141  0.00  0.00    -0.274 OA
ATOM      9  H   UNL d   1      28.426 -15.868   2.012  0.00  0.00     0.162 HD
BRANCH   7  10
ATOM     10  C   UNL d   1      27.288 -13.408   1.783  0.00  0.00     0.112 C 
BRANCH  10  11
ATOM     11  C   UNL d   1      27.998 -13.598   3.212  0.00  0.00    -0.031 C 
ATOM     12  C   UNL d   1      27.771 -14.828   4.273  0.00  0.00     0.014 C 
ATOM     13  C   UNL d   1      28.646 -14.574   5.566  0.00  0.00    -0.013 C 
ATOM     14  C   UNL d   1      30.106 -14.569   5.086  0.00  0.00     0.009 C 
ATOM     15  C   UNL d   1      28.134 -13.260   6.181  0.00  0.00     0.009 C 
ATOM     16  C   UNL d   1      30.350 -13.364   4.186  0.00  0.00    -0.013 C 
ATOM     17  C   UNL d   1      29.934 -12.080   4.907  0.00  0.00     0.009 C 
ATOM     18  C   UNL d   1      29.521 -13.535   2.920  0.00  0.00     0.014 C 
ATOM     19  C   UNL d   1      28.437 -12.098   5.245  0.00  0.00    -0.013 C 
ATOM     20  C   UNL d   1      27.609 -12.291   3.976  0.00  0.00     0.014 C 
ENDBRANCH  10  11
ENDBRANCH   7  10
ENDBRANCH   5   6
ENDBRANCH   2   5
BRANCH   1  21
ATOM     21  C   UNL d   1      24.080 -18.125   0.120  0.00  0.00     0.142 C 
BRANCH  21  22
ATOM     22  C   UNL d   1      23.234 -18.190  -1.168  0.00  0.00     0.141 C 
BRANCH  22  23
ATOM     23  N   UNL d   1      21.807 -17.894  -0.977  0.00  0.00    -0.372 N 
ATOM     24  H   UNL d   1      21.478 -16.942  -1.111  0.00  0.00     0.161 HD
BRANCH  23  25
ATOM     25  C   UNL d   1      20.903 -18.826  -0.490  0.00  0.00     0.143 C 
ATOM     26  C   UNL d   1      21.029 -19.343   0.788  0.00  0.00     0.054 C 
ATOM     27  C   UNL d   1      20.022 -20.123   1.321  0.00  0.00     0.030 C 
ATOM     28  C   UNL d   1      18.956 -20.473   0.511  0.00  0.00     0.024 C 
ATOM     29  C   UNL d   1      17.811 -21.277   1.046  0.00  0.00     0.070 C 
ATOM     30  N   UNL d   1      18.962 -20.075  -0.774  0.00  0.00    -0.281 N 
ATOM     31  N   UNL d   1      19.876 -19.227  -1.270  0.00  0.00    -0.157 NA
ATOM     32  H   UNL d   1      18.239 -20.423  -1.408  0.00  0.00     0.189 HD
ENDBRANCH  23  25
ENDBRANCH  22  23
ENDBRANCH  21  22
ENDBRANCH   1  21
TORSDOF 8
ENDMDL
MODEL 3
REMARK VINA RESULT:   -32.441      0.665      1.684
REMARK INTER + INTRA:         -36.387
REMARK INTER:                 -34.827
REMARK INTRA:                  -1.560
REMARK CONF_INDEPENDENT:        2.386
REMARK UNBOUND:                -1.560
REMARK  8 active torsions:
REMARK  status: ('A' for Active; 'I' for Inactive)
REMARK    1  A    between atoms: C_5  and  N_6 
REMARK    2  A    between atoms: N_6  and  C_7 
REMARK    3  A    between atoms: C_7  and  C_8 
REMARK    4  A    between atoms: C_8  and  N_9 
REMARK       I    between atoms: N_9  and  C_10 
REMARK    5  A    between atoms: C_10  and  C_12 
REMARK    6  A    between atoms: C_12  and  N_13 
REMARK       I    between atoms: N_13  and  C_14 
REMARK    7  A    between atoms: C_14  and  C_16 
REMARK    8  A    between atoms: C_16  and  C_17 
ROOT
ATOM      1  N   UNL d   1      25.396 -17.542  -0.441  0.00  0.00    -0.358 N 
ATOM      2  C   UNL d   1      26.445 -17.961   0.376  0.00  0.00     0.235 C 
ATOM      3  O   UNL d   1      26.245 -18.578   1.417  0.00  0.00    -0.272 OA
ATOM      4  H   UNL d   1      25.606 -17.031  -1.292  0.00  0.00     0.162 HD
ENDROOT
BRANCH   2   5
ATOM      5  C   UNL d   1      27.874 -17.601  -0.105  0.00  0.00     0.225 C 
BRANCH   5   6
ATOM      6  N   UNL d   1      28.407 -16.339   0.433  0.00  0.00    -0.352 N 
ATOM      7  C   UNL d   1      27.726 -15.149   0.174  0.00  0.00     0.218 C 
ATOM      8  O   UNL d   1      26.679 -15.169  -0.441  0.00  0.00    -0.274 OA
ATOM      9  H   UNL d   1      29.267 -16.387   0.973  0.00  0.00     0.162 HD
BRANCH   7  10
ATOM     10  C   UNL d   1      28.346 -13.841   0.712  0.00  0.00     0.112 C 
BRANCH  10  11
ATOM     11  C   UNL d   1      28.298 -13.542   2.291  0.00  0.00    -0.031 C 
ATOM     12  C   UNL d   1      27.498 -12.322   3.041  0.00  0.00     0.014 C 
ATOM     13  C   UNL d   1      27.772 -12.394   4.597  0.00  0.00    -0.013 C 
ATOM     14  C   UNL d   1      27.204 -13.745   5.058  0.00  0.00     0.009 C 
ATOM     15  C   UNL d   1      29.289 -12.204   4.776  0.00  0.00     0.009 C 
ATOM     16  C   UNL d   1      28.015 -14.882   4.448  0.00  0.00    -0.013 C 
ATOM     17  C   UNL d   1      29.499 -14.696   4.770  0.00  0.00     0.009 C 
ATOM     18  C   UNL d   1      27.809 -14.863   2.940  0.00  0.00     0.014 C 
ATOM     19  C   UNL d   1      30.033 -13.386   4.172  0.00  0.00    -0.013 C 
ATOM     20  C   UNL d   1      29.805 -13.362   2.662  0.00  0.00     0.014 C 
ENDBRANCH  10  11
ENDBRANCH   7  10
ENDBRANCH   5   6
ENDBRANCH   2   5
BRANCH   1  21
ATOM     21  C   UNL d   1      24.000 -17.835  -0.079  0.00  0.00     0.142 C 
BRANCH  21  22
ATOM     22  C   UNL d   1      23.141 -18.359  -1.248  0.00  0.00     0.141 C 
BRANCH  22  23
ATOM     23  N   UNL d   1      21.704 -18.076  -1.125  0.00  0.00    -0.372 N 
ATOM     24  H   UNL d   1      21.362 -17.145  -1.346  0.00  0.00     0.161 HD
BRANCH  23  25
ATOM     25  C   UNL d   1      20.802 -18.983  -0.588  0.00  0.00     0.143 C 
ATOM     26  C   UNL d   1      21.032 -19.578   0.640  0.00  0.00     0.054 C 
ATOM     27  C   UNL d   1      20.042 -20.330   1.240  0.00  0.00     0.030 C 
ATOM     28  C   UNL d   1      18.876 -20.574   0.536  0.00  0.00     0.024 C 
ATOM     29  C   UNL d   1      17.748 -21.343   1.152  0.00  0.00     0.070 C 
ATOM     30  N   UNL d   1      18.769 -20.105  -0.721  0.00  0.00    -0.281 N 
ATOM     31  N   UNL d   1      19.675 -19.281  -1.270  0.00  0.00    -0.157 NA
ATOM     32  H   UNL d   1      17.962 -20.375  -1.288  0.00  0.00     0.189 HD
ENDBRANCH  23  25
ENDBRANCH  22  23
ENDBRANCH  21  22
ENDBRANCH   1  21
TORSDOF 8
ENDMDL
MODEL 4
REMARK VINA RESULT:   -32.393      3.235      5.609
REMARK INTER + INTRA:         -36.765
REMARK INTER:                 -34.779
REMARK INTRA:                  -1.985
REMARK CONF_INDEPENDENT:        2.386
REMARK UNBOUND:                -1.985
REMARK  8 active torsions:
REMARK  status: ('A' for Active; 'I' for Inactive)
REMARK    1  A    between atoms: C_5  and  N_6 
REMARK    2  A    between atoms: N_6  and  C_7 
REMARK    3  A    between atoms: C_7  and  C_8 
REMARK    4  A    between atoms: C_8  and  N_9 
REMARK       I    between atoms: N_9  and  C_10 
REMARK    5  A    between atoms: C_10  and  C_12 
REMARK    6  A    between atoms: C_12  and  N_13 
REMARK       I    between atoms: N_13  and  C_14 
REMARK    7  A    between atoms: C_14  and  C_16 
REMARK    8  A    between atoms: C_16  and  C_17 
ROOT
ATOM      1  N   UNL d   1      25.159 -16.947  -0.547  0.00  0.00    -0.358 N 
ATOM      2  C   UNL d   1      26.093 -17.716   0.146  0.00  0.00     0.235 C 
ATOM      3  O   UNL d   1      25.960 -18.928   0.277  0.00  0.00    -0.272 OA
ATOM      4  H   UNL d   1      25.306 -15.946  -0.630  0.00  0.00     0.162 HD
ENDROOT
BRANCH   2   5
ATOM      5  C   UNL d   1      27.304 -16.953   0.740  0.00  0.00     0.225 C 
BRANCH   5   6
ATOM      6  N   UNL d   1      27.887 -15.934  -0.147  0.00  0.00    -0.352 N 
ATOM      7  C   UNL d   1      27.268 -14.687  -0.249  0.00  0.00     0.218 C 
ATOM      8  O   UNL d   1      26.293 -14.435   0.430  0.00  0.00    -0.274 OA
ATOM      9  H   UNL d   1      28.726 -16.186  -0.662  0.00  0.00     0.162 HD
BRANCH   7  10
ATOM     10  C   UNL d   1      27.882 -13.664  -1.229  0.00  0.00     0.112 C 
BRANCH  10  11
ATOM     11  C   UNL d   1      27.381 -13.643  -2.756  0.00  0.00    -0.031 C 
ATOM     12  C   UNL d   1      28.311 -13.497  -4.100  0.00  0.00     0.014 C 
ATOM     13  C   UNL d   1      27.384 -13.481  -5.381  0.00  0.00    -0.013 C 
ATOM     14  C   UNL d   1      26.668 -14.841  -5.393  0.00  0.00     0.009 C 
ATOM     15  C   UNL d   1      26.479 -12.245  -5.242  0.00  0.00     0.009 C 
ATOM     16  C   UNL d   1      25.720 -14.937  -4.205  0.00  0.00    -0.013 C 
ATOM     17  C   UNL d   1      24.767 -13.739  -4.199  0.00  0.00     0.009 C 
ATOM     18  C   UNL d   1      26.549 -14.942  -2.928  0.00  0.00     0.014 C 
ATOM     19  C   UNL d   1      25.540 -12.421  -4.057  0.00  0.00    -0.013 C 
ATOM     20  C   UNL d   1      26.387 -12.438  -2.786  0.00  0.00     0.014 C 
ENDBRANCH  10  11
ENDBRANCH   7  10
ENDBRANCH   5   6
ENDBRANCH   2   5
BRANCH   1  21
ATOM     21  C   UNL d   1      23.974 -17.573  -1.154  0.00  0.00     0.142 C 
BRANCH  21  22
ATOM     22  C   UNL d   1      22.746 -17.637  -0.223  0.00  0.00     0.141 C 
BRANCH  22  23
ATOM     23  N   UNL d   1      21.482 -17.962  -0.899  0.00  0.00    -0.372 N 
ATOM     24  H   UNL d   1      21.171 -17.380  -1.672  0.00  0.00     0.161 HD
BRANCH  23  25
ATOM     25  C   UNL d   1      20.619 -18.949  -0.448  0.00  0.00     0.143 C 
ATOM     26  C   UNL d   1      20.840 -19.595   0.757  0.00  0.00     0.054 C 
ATOM     27  C   UNL d   1      19.877 -20.437   1.276  0.00  0.00     0.030 C 
ATOM     28  C   UNL d   1      18.755 -20.712   0.513  0.00  0.00     0.024 C 
ATOM     29  C   UNL d   1      17.655 -21.580   1.042  0.00  0.00     0.070 C 
ATOM     30  N   UNL d   1      18.666 -20.182  -0.721  0.00  0.00    -0.281 N 
ATOM     31  N   UNL d   1      19.540 -19.278  -1.189  0.00  0.00    -0.157 NA
ATOM     32  H   UNL d   1      17.899 -20.470  -1.333  0.00  0.00     0.189 HD
ENDBRANCH  23  25
ENDBRANCH  22  23
ENDBRANCH  21  22
ENDBRANCH   1  21
TORSDOF 8
ENDMDL
MODEL 5
REMARK VINA RESULT:   -31.782      1.183      1.939
REMARK INTER + INTRA:         -35.286
REMARK INTER:                 -34.168
REMARK INTRA:                  -1.118
REMARK CONF_INDEPENDENT:        2.386
REMARK UNBOUND:                -1.118
REMARK  8 active torsions:
REMARK  status: ('A' for Active; 'I' for Inactive)
REMARK    1  A    between atoms: C_5  and  N_6 
REMARK    2  A    between atoms: N_6  and  C_7 
REMARK    3  A    between atoms: C_7  and  C_8 
REMARK    4  A    between atoms: C_8  and  N_9 
REMARK       I    between atoms: N_9  and  C_10 
REMARK    5  A    between atoms: C_10  and  C_12 
REMARK    6  A    between atoms: C_12  and  N_13 
REMARK       I    between atoms: N_13  and  C_14 
REMARK    7  A    between atoms: C_14  and  C_16 
REMARK    8  A    between atoms: C_16  and  C_17 
ROOT
ATOM      1  N   UNL d   1      25.395 -17.815  -0.433  0.00  0.00    -0.358 N 
ATOM      2  C   UNL d   1      25.232 -16.484  -0.815  0.00  0.00     0.235 C 
ATOM      3  O   UNL d   1      24.131 -16.026  -1.098  0.00  0.00    -0.272 OA
ATOM      4  H   UNL d   1      26.325 -18.156  -0.210  0.00  0.00     0.162 HD
ENDROOT
BRANCH   2   5
ATOM      5  C   UNL d   1      26.519 -15.622  -0.862  0.00  0.00     0.225 C 
BRANCH   5   6
ATOM      6  N   UNL d   1      26.488 -14.421  -0.012  0.00  0.00    -0.352 N 
ATOM      7  C   UNL d   1      27.031 -14.484   1.273  0.00  0.00     0.218 C 
ATOM      8  O   UNL d   1      27.567 -15.503   1.657  0.00  0.00    -0.274 OA
ATOM      9  H   UNL d   1      26.061 -13.584  -0.399  0.00  0.00     0.162 HD
BRANCH   7  10
ATOM     10  C   UNL d   1      26.932 -13.217   2.151  0.00  0.00     0.112 C 
BRANCH  10  11
ATOM     11  C   UNL d   1      27.838 -13.108   3.474  0.00  0.00    -0.031 C 
ATOM     12  C   UNL d   1      27.984 -11.812   4.468  0.00  0.00     0.014 C 
ATOM     13  C   UNL d   1      29.020 -12.144   5.616  0.00  0.00    -0.013 C 
ATOM     14  C   UNL d   1      28.414 -13.325   6.392  0.00  0.00     0.009 C 
ATOM     15  C   UNL d   1      30.364 -12.415   4.919  0.00  0.00     0.009 C 
ATOM     16  C   UNL d   1      28.378 -14.563   5.505  0.00  0.00    -0.013 C 
ATOM     17  C   UNL d   1      29.774 -14.845   4.944  0.00  0.00     0.009 C 
ATOM     18  C   UNL d   1      27.406 -14.305   4.362  0.00  0.00     0.014 C 
ATOM     19  C   UNL d   1      30.264 -13.678   4.076  0.00  0.00    -0.013 C 
ATOM     20  C   UNL d   1      29.276 -13.409   2.942  0.00  0.00     0.014 C 
ENDBRANCH  10  11
ENDBRANCH   7  10
ENDBRANCH   5   6
ENDBRANCH   2   5
BRANCH   1  21
ATOM     21  C   UNL d   1      24.237 -18.720  -0.352  0.00  0.00     0.142 C 
BRANCH  21  22
ATOM     22  C   UNL d   1      23.195 -18.514  -1.470  0.00  0.00     0.141 C 
BRANCH  22  23
ATOM     23  N   UNL d   1      21.876 -18.066  -1.000  0.00  0.00    -0.372 N 
ATOM     24  H   UNL d   1      21.681 -17.070  -0.949  0.00  0.00     0.161 HD
BRANCH  23  25
ATOM     25  C   UNL d   1      20.923 -18.936  -0.491  0.00  0.00     0.143 C 
ATOM     26  C   UNL d   1      21.009 -19.410   0.807  0.00  0.00     0.054 C 
ATOM     27  C   UNL d   1      19.960 -20.121   1.354  0.00  0.00     0.030 C 
ATOM     28  C   UNL d   1      18.888 -20.452   0.543  0.00  0.00     0.024 C 
ATOM     29  C   UNL d   1      17.701 -21.181   1.091  0.00  0.00     0.070 C 
ATOM     30  N   UNL d   1      18.930 -20.103  -0.756  0.00  0.00    -0.281 N 
ATOM     31  N   UNL d   1      19.889 -19.318  -1.270  0.00  0.00    -0.157 NA
ATOM     32  H   UNL d   1      18.198 -20.441  -1.387  0.00  0.00     0.189 HD
ENDBRANCH  23  25
ENDBRANCH  22  23
ENDBRANCH  21  22
ENDBRANCH   1  21
TORSDOF 8
ENDMDL
MODEL 6
REMARK VINA RESULT:   -31.614      4.708      6.425
REMARK INTER + INTRA:         -35.600
REMARK INTER:                 -34.000
REMARK INTRA:                  -1.600
REMARK CONF_INDEPENDENT:        2.386
REMARK UNBOUND:                -1.600
REMARK  8 active torsions:
REMARK  status: ('A' for Active; 'I' for Inactive)
REMARK    1  A    between atoms: C_5  and  N_6 
REMARK    2  A    between atoms: N_6  and  C_7 
REMARK    3  A    between atoms: C_7  and  C_8 
REMARK    4  A    between atoms: C_8  and  N_9 
REMARK       I    between atoms: N_9  and  C_10 
REMARK    5  A    between atoms: C_10  and  C_12 
REMARK    6  A    between atoms: C_12  and  N_13 
REMARK       I    between atoms: N_13  and  C_14 
REMARK    7  A    between atoms: C_14  and  C_16 
REMARK    8  A    between atoms: C_16  and  C_17 
ROOT
ATOM      1  N   UNL d   1      25.144 -17.327  -0.805  0.00  0.00    -0.358 N 
ATOM      2  C   UNL d   1      24.620 -16.134  -1.303  0.00  0.00     0.235 C 
ATOM      3  O   UNL d   1      23.413 -15.973  -1.450  0.00  0.00    -0.272 OA
ATOM      4  H   UNL d   1      26.149 -17.420  -0.702  0.00  0.00     0.162 HD
ENDROOT
BRANCH   2   5
ATOM      5  C   UNL d   1      25.647 -15.030  -1.659  0.00  0.00     0.225 C 
BRANCH   5   6
ATOM      6  N   UNL d   1      26.351 -15.230  -2.936  0.00  0.00    -0.352 N 
ATOM      7  C   UNL d   1      25.731 -14.837  -4.123  0.00  0.00     0.218 C 
ATOM      8  O   UNL d   1      24.648 -14.288  -4.090  0.00  0.00    -0.274 OA
ATOM      9  H   UNL d   1      27.271 -15.659  -2.900  0.00  0.00     0.162 HD
BRANCH   7  10
ATOM     10  C   UNL d   1      26.481 -15.111  -5.445  0.00  0.00     0.112 C 
BRANCH  10  11
ATOM     11  C   UNL d   1      28.030 -14.699  -5.567  0.00  0.00    -0.031 C 
ATOM     12  C   UNL d   1      28.937 -14.658  -6.933  0.00  0.00     0.014 C 
ATOM     13  C   UNL d   1      30.417 -14.238  -6.569  0.00  0.00    -0.013 C 
ATOM     14  C   UNL d   1      30.313 -12.824  -5.975  0.00  0.00     0.009 C 
ATOM     15  C   UNL d   1      30.954 -15.328  -5.624  0.00  0.00     0.009 C 
ATOM     16  C   UNL d   1      29.565 -12.873  -4.649  0.00  0.00    -0.013 C 
ATOM     17  C   UNL d   1      30.227 -13.887  -3.713  0.00  0.00     0.009 C 
ATOM     18  C   UNL d   1      28.126 -13.290  -4.925  0.00  0.00     0.014 C 
ATOM     19  C   UNL d   1      30.183 -15.300  -4.312  0.00  0.00    -0.013 C 
ATOM     20  C   UNL d   1      28.740 -15.706  -4.607  0.00  0.00     0.014 C 
ENDBRANCH  10  11
ENDBRANCH   7  10
ENDBRANCH   5   6
ENDBRANCH   2   5
BRANCH   1  21
ATOM     21  C   UNL d   1      24.255 -18.439  -0.432  0.00  0.00     0.142 C 
BRANCH  21  22
ATOM     22  C   UNL d   1      23.148 -18.736  -1.464  0.00  0.00     0.141 C 
BRANCH  22  23
ATOM     23  N   UNL d   1      21.811 -18.264  -1.078  0.00  0.00    -0.372 N 
ATOM     24  H   UNL d   1      21.611 -17.268  -1.104  0.00  0.00     0.161 HD
BRANCH  23  25
ATOM     25  C   UNL d   1      20.841 -19.101  -0.546  0.00  0.00     0.143 C 
ATOM     26  C   UNL d   1      21.015 -19.702   0.689  0.00  0.00     0.054 C 
ATOM     27  C   UNL d   1      19.967 -20.379   1.282  0.00  0.00     0.030 C 
ATOM     28  C   UNL d   1      18.795 -20.545   0.565  0.00  0.00     0.024 C 
ATOM     29  C   UNL d   1      17.609 -21.228   1.173  0.00  0.00     0.070 C 
ATOM     30  N   UNL d   1      18.736 -20.079  -0.695  0.00  0.00    -0.281 N 
ATOM     31  N   UNL d   1      19.704 -19.325  -1.239  0.00  0.00    -0.157 NA
ATOM     32  H   UNL d   1      17.919 -20.297  -1.271  0.00  0.00     0.189 HD
ENDBRANCH  23  25
ENDBRANCH  22  23
ENDBRANCH  21  22
ENDBRANCH   1  21
TORSDOF 8
ENDMDL
MODEL 7
REMARK VINA RESULT:   -31.578      4.699      6.847
REMARK INTER + INTRA:         -35.412
REMARK INTER:                 -33.964
REMARK INTRA:                  -1.448
REMARK CONF_INDEPENDENT:        2.386
REMARK UNBOUND:                -1.448
REMARK  8 active torsions:
REMARK  status: ('A' for Active; 'I' for Inactive)
REMARK    1  A    between atoms: C_5  and  N_6 
REMARK    2  A    between atoms: N_6  and  C_7 
REMARK    3  A    between atoms: C_7  and  C_8 
REMARK    4  A    between atoms: C_8  and  N_9 
REMARK       I    between atoms: N_9  and  C_10 
REMARK    5  A    between atoms: C_10  and  C_12 
REMARK    6  A    between atoms: C_12  and  N_13 
REMARK       I    between atoms: N_13  and  C_14 
REMARK    7  A    between atoms: C_14  and  C_16 
REMARK    8  A    between atoms: C_16  and  C_17 
ROOT
ATOM      1  N   UNL d   1      25.120 -17.197  -0.830  0.00  0.00    -0.358 N 
ATOM      2  C   UNL d   1      24.610 -15.995  -1.320  0.00  0.00     0.235 C 
ATOM      3  O   UNL d   1      23.408 -15.828  -1.493  0.00  0.00    -0.272 OA
ATOM      4  H   UNL d   1      26.122 -17.294  -0.704  0.00  0.00     0.162 HD
ENDROOT
BRANCH   2   5
ATOM      5  C   UNL d   1      25.648 -14.887  -1.633  0.00  0.00     0.225 C 
BRANCH   5   6
ATOM      6  N   UNL d   1      26.452 -15.119  -2.843  0.00  0.00    -0.352 N 
ATOM      7  C   UNL d   1      25.889 -14.862  -4.094  0.00  0.00     0.218 C 
ATOM      8  O   UNL d   1      24.768 -14.401  -4.173  0.00  0.00    -0.274 OA
ATOM      9  H   UNL d   1      27.398 -15.469  -2.717  0.00  0.00     0.162 HD
BRANCH   7  10
ATOM     10  C   UNL d   1      26.749 -15.168  -5.340  0.00  0.00     0.112 C 
BRANCH  10  11
ATOM     11  C   UNL d   1      28.255 -14.612  -5.409  0.00  0.00    -0.031 C 
ATOM     12  C   UNL d   1      29.318 -14.482  -4.166  0.00  0.00     0.014 C 
ATOM     13  C   UNL d   1      30.665 -13.841  -4.691  0.00  0.00    -0.013 C 
ATOM     14  C   UNL d   1      31.212 -14.825  -5.737  0.00  0.00     0.009 C 
ATOM     15  C   UNL d   1      30.301 -12.439  -5.210  0.00  0.00     0.009 C 
ATOM     16  C   UNL d   1      30.282 -14.867  -6.944  0.00  0.00    -0.013 C 
ATOM     17  C   UNL d   1      30.063 -13.452  -7.484  0.00  0.00     0.009 C 
ATOM     18  C   UNL d   1      28.952 -15.462  -6.504  0.00  0.00     0.014 C 
ATOM     19  C   UNL d   1      29.398 -12.557  -6.429  0.00  0.00    -0.013 C 
ATOM     20  C   UNL d   1      28.074 -13.168  -5.975  0.00  0.00     0.014 C 
ENDBRANCH  10  11
ENDBRANCH   7  10
ENDBRANCH   5   6
ENDBRANCH   2   5
BRANCH   1  21
ATOM     21  C   UNL d   1      24.221 -18.313  -0.496  0.00  0.00     0.142 C 
BRANCH  21  22
ATOM     22  C   UNL d   1      23.122 -18.574  -1.546  0.00  0.00     0.141 C 
BRANCH  22  23
ATOM     23  N   UNL d   1      21.772 -18.162  -1.134  0.00  0.00    -0.372 N 
ATOM     24  H   UNL d   1      21.534 -17.174  -1.140  0.00  0.00     0.161 HD
BRANCH  23  25
ATOM     25  C   UNL d   1      20.844 -19.046  -0.604  0.00  0.00     0.143 C 
ATOM     26  C   UNL d   1      21.074 -19.685   0.602  0.00  0.00     0.054 C 
ATOM     27  C   UNL d   1      20.066 -20.413   1.202  0.00  0.00     0.030 C 
ATOM     28  C   UNL d   1      18.876 -20.588   0.516  0.00  0.00     0.024 C 
ATOM     29  C   UNL d   1      17.730 -21.327   1.134  0.00  0.00     0.070 C 
ATOM     30  N   UNL d   1      18.764 -20.078  -0.724  0.00  0.00    -0.281 N 
ATOM     31  N   UNL d   1      19.693 -19.278  -1.270  0.00  0.00    -0.157 NA
ATOM     32  H   UNL d   1      17.935 -20.300  -1.282  0.00  0.00     0.189 HD
ENDBRANCH  23  25
ENDBRANCH  22  23
ENDBRANCH  21  22
ENDBRANCH   1  21
TORSDOF 8
ENDMDL
MODEL 8
REMARK VINA RESULT:   -31.320      3.826      5.807
REMARK INTER + INTRA:         -35.396
REMARK INTER:                 -33.706
REMARK INTRA:                  -1.690
REMARK CONF_INDEPENDENT:        2.386
REMARK UNBOUND:                -1.690
REMARK  8 active torsions:
REMARK  status: ('A' for Active; 'I' for Inactive)
REMARK    1  A    between atoms: C_5  and  N_6 
REMARK    2  A    between atoms: N_6  and  C_7 
REMARK    3  A    between atoms: C_7  and  C_8 
REMARK    4  A    between atoms: C_8  and  N_9 
REMARK       I    between atoms: N_9  and  C_10 
REMARK    5  A    between atoms: C_10  and  C_12 
REMARK    6  A    between atoms: C_12  and  N_13 
REMARK       I    between atoms: N_13  and  C_14 
REMARK    7  A    between atoms: C_14  and  C_16 
REMARK    8  A    between atoms: C_16  and  C_17 
ROOT
ATOM      1  N   UNL d   1      25.037 -17.425  -0.412  0.00  0.00    -0.358 N 
ATOM      2  C   UNL d   1      26.337 -17.593   0.063  0.00  0.00     0.235 C 
ATOM      3  O   UNL d   1      26.672 -18.598   0.683  0.00  0.00    -0.272 OA
ATOM      4  H   UNL d   1      24.801 -16.578  -0.918  0.00  0.00     0.162 HD
ENDROOT
BRANCH   2   5
ATOM      5  C   UNL d   1      27.330 -16.442  -0.235  0.00  0.00     0.225 C 
BRANCH   5   6
ATOM      6  N   UNL d   1      27.477 -16.106  -1.660  0.00  0.00    -0.352 N 
ATOM      7  C   UNL d   1      26.417 -15.488  -2.325  0.00  0.00     0.218 C 
ATOM      8  O   UNL d   1      25.411 -15.186  -1.716  0.00  0.00    -0.274 OA
ATOM      9  H   UNL d   1      28.356 -16.348  -2.110  0.00  0.00     0.162 HD
BRANCH   7  10
ATOM     10  C   UNL d   1      26.592 -15.200  -3.832  0.00  0.00     0.112 C 
BRANCH  10  11
ATOM     11  C   UNL d   1      27.026 -13.725  -4.303  0.00  0.00    -0.031 C 
ATOM     12  C   UNL d   1      28.108 -13.340  -5.474  0.00  0.00     0.014 C 
ATOM     13  C   UNL d   1      28.250 -11.768  -5.560  0.00  0.00    -0.013 C 
ATOM     14  C   UNL d   1      26.859 -11.246  -5.952  0.00  0.00     0.009 C 
ATOM     15  C   UNL d   1      28.782 -11.307  -4.192  0.00  0.00     0.009 C 
ATOM     16  C   UNL d   1      25.872 -11.504  -4.820  0.00  0.00    -0.013 C 
ATOM     17  C   UNL d   1      26.408 -10.911  -3.514  0.00  0.00     0.009 C 
ATOM     18  C   UNL d   1      25.699 -13.009  -4.669  0.00  0.00     0.014 C 
ATOM     19  C   UNL d   1      27.738 -11.567  -3.117  0.00  0.00    -0.013 C 
ATOM     20  C   UNL d   1      27.565 -13.079  -2.987  0.00  0.00     0.014 C 
ENDBRANCH  10  11
ENDBRANCH   7  10
ENDBRANCH   5   6
ENDBRANCH   2   5
BRANCH   1  21
ATOM     21  C   UNL d   1      24.016 -18.461  -0.188  0.00  0.00     0.142 C 
BRANCH  21  22
ATOM     22  C   UNL d   1      23.021 -18.630  -1.354  0.00  0.00     0.141 C 
BRANCH  22  23
ATOM     23  N   UNL d   1      21.639 -18.242  -1.038  0.00  0.00    -0.372 N 
ATOM     24  H   UNL d   1      21.377 -17.262  -1.086  0.00  0.00     0.161 HD
BRANCH  23  25
ATOM     25  C   UNL d   1      20.700 -19.137  -0.545  0.00  0.00     0.143 C 
ATOM     26  C   UNL d   1      20.924 -19.831   0.631  0.00  0.00     0.054 C 
ATOM     27  C   UNL d   1      19.907 -20.571   1.202  0.00  0.00     0.030 C 
ATOM     28  C   UNL d   1      18.715 -20.701   0.511  0.00  0.00     0.024 C 
ATOM     29  C   UNL d   1      17.560 -21.452   1.100  0.00  0.00     0.070 C 
ATOM     30  N   UNL d   1      18.607 -20.137  -0.705  0.00  0.00    -0.281 N 
ATOM     31  N   UNL d   1      19.545 -19.325  -1.218  0.00  0.00    -0.157 NA
ATOM     32  H   UNL d   1      17.774 -20.323  -1.270  0.00  0.00     0.189 HD
ENDBRANCH  23  25
ENDBRANCH  22  23
ENDBRANCH  21  22
ENDBRANCH   1  21
TORSDOF 8
ENDMDL
MODEL 9
REMARK VINA RESULT:   -30.604      3.775      5.646
REMARK INTER + INTRA:         -35.062
REMARK INTER:                 -32.990
REMARK INTRA:                  -2.072
REMARK CONF_INDEPENDENT:        2.386
REMARK UNBOUND:                -2.072
REMARK  8 active torsions:
REMARK  status: ('A' for Active; 'I' for Inactive)
REMARK    1  A    between atoms: C_5  and  N_6 
REMARK    2  A    between atoms: N_6  and  C_7 
REMARK    3  A    between atoms: C_7  and  C_8 
REMARK    4  A    between atoms: C_8  and  N_9 
REMARK       I    between atoms: N_9  and  C_10 
REMARK    5  A    between atoms: C_10  and  C_12 
REMARK    6  A    between atoms: C_12  and  N_13 
REMARK       I    between atoms: N_13  and  C_14 
REMARK    7  A    between atoms: C_14  and  C_16 
REMARK    8  A    between atoms: C_16  and  C_17 
ROOT
ATOM      1  N   UNL d   1      24.648 -16.473  -0.263  0.00  0.00    -0.358 N 
ATOM      2  C   UNL d   1      25.148 -17.774  -0.242  0.00  0.00     0.235 C 
ATOM      3  O   UNL d   1      24.623 -18.676  -0.886  0.00  0.00    -0.272 OA
ATOM      4  H   UNL d   1      25.111 -15.756   0.286  0.00  0.00     0.162 HD
ENDROOT
BRANCH   2   5
ATOM      5  C   UNL d   1      26.401 -18.013   0.638  0.00  0.00     0.225 C 
BRANCH   5   6
ATOM      6  N   UNL d   1      27.677 -17.629   0.014  0.00  0.00    -0.352 N 
ATOM      7  C   UNL d   1      27.835 -16.327  -0.464  0.00  0.00     0.218 C 
ATOM      8  O   UNL d   1      26.947 -15.512  -0.314  0.00  0.00    -0.274 OA
ATOM      9  H   UNL d   1      28.399 -18.341  -0.050  0.00  0.00     0.162 HD
BRANCH   7  10
ATOM     10  C   UNL d   1      29.170 -15.980  -1.158  0.00  0.00     0.112 C 
BRANCH  10  11
ATOM     11  C   UNL d   1      29.171 -15.639  -2.729  0.00  0.00    -0.031 C 
ATOM     12  C   UNL d   1      29.288 -16.704  -3.971  0.00  0.00     0.014 C 
ATOM     13  C   UNL d   1      29.293 -15.913  -5.341  0.00  0.00    -0.013 C 
ATOM     14  C   UNL d   1      27.940 -15.189  -5.408  0.00  0.00     0.009 C 
ATOM     15  C   UNL d   1      30.540 -15.012  -5.314  0.00  0.00     0.009 C 
ATOM     16  C   UNL d   1      27.870 -14.122  -4.322  0.00  0.00    -0.013 C 
ATOM     17  C   UNL d   1      29.076 -13.186  -4.431  0.00  0.00     0.009 C 
ATOM     18  C   UNL d   1      27.878 -14.816  -2.967  0.00  0.00     0.014 C 
ATOM     19  C   UNL d   1      30.390 -13.955  -4.230  0.00  0.00    -0.013 C 
ATOM     20  C   UNL d   1      30.385 -14.666  -2.878  0.00  0.00     0.014 C 
ENDBRANCH  10  11
ENDBRANCH   7  10
ENDBRANCH   5   6
ENDBRANCH   2   5
BRANCH   1  21
ATOM     21  C   UNL d   1      23.465 -16.137  -1.071  0.00  0.00     0.142 C 
BRANCH  21  22
ATOM     22  C   UNL d   1      22.155 -16.781  -0.571  0.00  0.00     0.141 C 
BRANCH  22  23
ATOM     23  N   UNL d   1      21.936 -18.158  -1.035  0.00  0.00    -0.372 N 
ATOM     24  H   UNL d   1      22.453 -18.496  -1.843  0.00  0.00     0.161 HD
BRANCH  23  25
ATOM     25  C   UNL d   1      20.954 -18.983  -0.508  0.00  0.00     0.143 C 
ATOM     26  C   UNL d   1      21.037 -19.453   0.792  0.00  0.00     0.054 C 
ATOM     27  C   UNL d   1      19.966 -20.115   1.359  0.00  0.00     0.030 C 
ATOM     28  C   UNL d   1      18.870 -20.403   0.564  0.00  0.00     0.024 C 
ATOM     29  C   UNL d   1      17.660 -21.077   1.133  0.00  0.00     0.070 C 
ATOM     30  N   UNL d   1      18.908 -20.065  -0.738  0.00  0.00    -0.281 N 
ATOM     31  N   UNL d   1      19.893 -19.325  -1.270  0.00  0.00    -0.157 NA
ATOM     32  H   UNL d   1      18.154 -20.374  -1.356  0.00  0.00     0.189 HD
ENDBRANCH  23  25
ENDBRANCH  22  23
ENDBRANCH  21  22
ENDBRANCH   1  21
TORSDOF 8
ENDMDL
