MODEL 1
REMARK VINA RESULT:   -31.602      0.000      0.000
REMARK INTER + INTRA:         -35.097
REMARK INTER:                 -33.988
REMARK INTRA:                  -1.109
REMARK CONF_INDEPENDENT:        2.386
REMARK UNBOUND:                -1.109
REMARK  8 active torsions:
REMARK  status: ('A' for Active; 'I' for Inactive)
REMARK    1  A    between atoms: O_2  and  C_3 
REMARK    2  A    between atoms: C_6  and  C_7 
REMARK    3  A    between atoms: C_7  and  C_8 
REMARK    4  A    between atoms: C_8  and  C_9 
REMARK    5  A    between atoms: C_9  and  C_10 
REMARK       I    between atoms: C_10  and  N_12 
REMARK    6  A    between atoms: N_12  and  N_13 
REMARK       I    between atoms: N_13  and  C_14 
REMARK    7  A    between atoms: C_14  and  C_16 
REMARK    8  A    between atoms: C_16  and  C_17 
ROOT
ATOM      1  C   UNL d   1      27.666 -14.985   0.275  0.00  0.00     0.236 C 
ATOM      2  O   UNL d   1      27.105 -13.931  -0.031  0.00  0.00    -0.272 OA
ATOM      3  N   UNL d   1      26.972 -16.230   0.273  0.00  0.00    -0.268 N 
ATOM      4  H   UNL d   1      27.432 -17.101   0.525  0.00  0.00     0.190 HD
ENDROOT
BRANCH   3   5
ATOM      5  N   UNL d   1      25.467 -16.351  -0.230  0.00  0.00    -0.268 N 
ATOM      6  C   UNL d   1      24.667 -17.610  -0.189  0.00  0.00     0.236 C 
ATOM      7  O   UNL d   1      25.179 -18.589   0.368  0.00  0.00    -0.272 OA
ATOM      8  H   UNL d   1      25.116 -15.437  -0.514  0.00  0.00     0.190 HD
BRANCH   6   9
ATOM      9  C   UNL d   1      23.031 -17.609  -0.923  0.00  0.00     0.118 C 
BRANCH   9  10
ATOM     10  C   UNL d   1      21.468 -18.397  -0.358  0.00  0.00     0.014 C 
ATOM     11  C   UNL d   1      21.227 -19.325  -1.300  0.00  0.00     0.090 C 
ATOM     12  N   UNL d   1      19.903 -19.010  -1.270  0.00  0.00    -0.288 NA
ATOM     13  C   UNL d   1      19.521 -19.651  -0.129  0.00  0.00     0.001 A 
ATOM     14  H   UNL d   1      19.485 -18.105  -1.429  0.00  0.00     0.128 HD
ATOM     15  C   UNL d   1      18.308 -20.453  -0.170  0.00  0.00     0.020 A 
ATOM     16  C   UNL d   1      20.641 -19.302   0.917  0.00  0.00     0.042 A 
ATOM     17  C   UNL d   1      17.845 -21.252   0.827  0.00  0.00     0.001 A 
ATOM     18  C   UNL d   1      18.669 -21.200   1.900  0.00  0.00    -0.003 A 
ATOM     19  C   UNL d   1      19.888 -20.304   1.857  0.00  0.00    -0.009 A 
ENDBRANCH   9  10
ENDBRANCH   6   9
ENDBRANCH   3   5
BRANCH   1  20
ATOM     20  C   UNL d   1      29.200 -14.985   0.680  0.00  0.00     0.105 C 
BRANCH  20  21
ATOM     21  C   UNL d   1      29.454 -14.452   2.117  0.00  0.00     0.014 C 
BRANCH  21  22
ATOM     22  C   UNL d   1      28.203 -14.082   2.959  0.00  0.00     0.039 C 
BRANCH  22  23
ATOM     23  C   UNL d   1      28.504 -13.818   4.431  0.00  0.00    -0.058 A 
ATOM     24  C   UNL d   1      29.576 -14.461   5.073  0.00  0.00     0.010 A 
ATOM     25  C   UNL d   1      29.774 -14.311   6.456  0.00  0.00     0.037 A 
ATOM     26  C   UNL d   1      28.960 -13.459   7.205  0.00  0.00     0.068 A 
ATOM     27  C   UNL d   1      27.922 -12.792   6.570  0.00  0.00     0.037 A 
ATOM     28  C   UNL d   1      27.702 -12.970   5.206  0.00  0.00     0.010 A 
BRANCH  26  29
ATOM     29  O   UNL d   1      29.309 -13.265   8.513  0.00  0.00    -0.356 OA
ATOM     30  C   UNL d   1      29.330 -14.431   9.334  0.00  0.00     0.210 C 
ENDBRANCH  26  29
ENDBRANCH  22  23
ENDBRANCH  21  22
ENDBRANCH  20  21
ENDBRANCH   1  20
TORSDOF 8
ENDMDL
MODEL 2
REMARK VINA RESULT:   -31.325      2.161      2.884
REMARK INTER + INTRA:         -34.623
REMARK INTER:                 -33.712
REMARK INTRA:                  -0.911
REMARK CONF_INDEPENDENT:        2.386
REMARK UNBOUND:                -0.911
REMARK  8 active torsions:
REMARK  status: ('A' for Active; 'I' for Inactive)
REMARK    1  A    between atoms: O_2  and  C_3 
REMARK    2  A    between atoms: C_6  and  C_7 
REMARK    3  A    between atoms: C_7  and  C_8 
REMARK    4  A    between atoms: C_8  and  C_9 
REMARK    5  A    between atoms: C_9  and  C_10 
REMARK       I    between atoms: C_10  and  N_12 
REMARK    6  A    between atoms: N_12  and  N_13 
REMARK       I    between atoms: N_13  and  C_14 
REMARK    7  A    between atoms: C_14  and  C_16 
REMARK    8  A    between atoms: C_16  and  C_17 
ROOT
ATOM      1  C   UNL d   1      27.294 -14.569   0.510  0.00  0.00     0.236 C 
ATOM      2  O   UNL d   1      26.545 -13.591   0.450  0.00  0.00    -0.272 OA
ATOM      3  N   UNL d   1      26.840 -15.881   0.188  0.00  0.00    -0.268 N 
ATOM      4  H   UNL d   1      27.455 -16.689   0.236  0.00  0.00     0.190 HD
ENDROOT
BRANCH   3   5
ATOM      5  N   UNL d   1      25.375 -16.147  -0.376  0.00  0.00    -0.268 N 
ATOM      6  C   UNL d   1      24.592 -17.391  -0.121  0.00  0.00     0.236 C 
ATOM      7  O   UNL d   1      25.076 -18.217   0.661  0.00  0.00    -0.272 OA
ATOM      8  H   UNL d   1      25.031 -15.322  -0.868  0.00  0.00     0.190 HD
BRANCH   6   9
ATOM      9  C   UNL d   1      23.010 -17.590  -0.944  0.00  0.00     0.118 C 
BRANCH   9  10
ATOM     10  C   UNL d   1      21.456 -18.387  -0.368  0.00  0.00     0.014 C 
ATOM     11  C   UNL d   1      21.221 -19.325  -1.302  0.00  0.00     0.090 C 
ATOM     12  N   UNL d   1      19.894 -19.023  -1.270  0.00  0.00    -0.288 NA
ATOM     13  C   UNL d   1      19.521 -19.657  -0.123  0.00  0.00     0.001 A 
ATOM     14  H   UNL d   1      19.467 -18.123  -1.435  0.00  0.00     0.128 HD
ATOM     15  C   UNL d   1      18.316 -20.471  -0.153  0.00  0.00     0.020 A 
ATOM     16  C   UNL d   1      20.642 -19.289   0.918  0.00  0.00     0.042 A 
ATOM     17  C   UNL d   1      17.863 -21.266   0.852  0.00  0.00     0.001 A 
ATOM     18  C   UNL d   1      18.690 -21.197   1.922  0.00  0.00    -0.003 A 
ATOM     19  C   UNL d   1      19.900 -20.291   1.868  0.00  0.00    -0.009 A 
ENDBRANCH   9  10
ENDBRANCH   6   9
ENDBRANCH   3   5
BRANCH   1  20
ATOM     20  C   UNL d   1      28.808 -14.390   0.951  0.00  0.00     0.105 C 
BRANCH  20  21
ATOM     21  C   UNL d   1      29.017 -14.508   2.485  0.00  0.00     0.014 C 
BRANCH  21  22
ATOM     22  C   UNL d   1      27.848 -14.037   3.391  0.00  0.00     0.039 C 
BRANCH  22  23
ATOM     23  C   UNL d   1      27.656 -12.524   3.418  0.00  0.00    -0.058 A 
ATOM     24  C   UNL d   1      28.051 -11.769   4.535  0.00  0.00     0.010 A 
ATOM     25  C   UNL d   1      27.761 -10.396   4.608  0.00  0.00     0.037 A 
ATOM     26  C   UNL d   1      27.146  -9.739   3.540  0.00  0.00     0.068 A 
ATOM     27  C   UNL d   1      26.786 -10.472   2.418  0.00  0.00     0.037 A 
ATOM     28  C   UNL d   1      27.040 -11.841   2.361  0.00  0.00     0.010 A 
BRANCH  26  29
ATOM     29  O   UNL d   1      27.027  -8.380   3.638  0.00  0.00    -0.356 OA
ATOM     30  C   UNL d   1      27.779  -7.761   4.679  0.00  0.00     0.210 C 
ENDBRANCH  26  29
ENDBRANCH  22  23
ENDBRANCH  21  22
ENDBRANCH  20  21
ENDBRANCH   1  20
TORSDOF 8
ENDMDL
MODEL 3
REMARK VINA RESULT:   -31.101      4.975      8.280
REMARK INTER + INTRA:         -34.551
REMARK INTER:                 -33.487
REMARK INTRA:                  -1.063
REMARK CONF_INDEPENDENT:        2.386
REMARK UNBOUND:                -1.063
REMARK  8 active torsions:
REMARK  status: ('A' for Active; 'I' for Inactive)
REMARK    1  A    between atoms: O_2  and  C_3 
REMARK    2  A    between atoms: C_6  and  C_7 
REMARK    3  A    between atoms: C_7  and  C_8 
REMARK    4  A    between atoms: C_8  and  C_9 
REMARK    5  A    between atoms: C_9  and  C_10 
REMARK       I    between atoms: C_10  and  N_12 
REMARK    6  A    between atoms: N_12  and  N_13 
REMARK       I    between atoms: N_13  and  C_14 
REMARK    7  A    between atoms: C_14  and  C_16 
REMARK    8  A    between atoms: C_16  and  C_17 
ROOT
ATOM      1  C   UNL d   1      28.316 -16.499  -1.532  0.00  0.00     0.236 C 
ATOM      2  O   UNL d   1      28.020 -15.663  -2.389  0.00  0.00    -0.272 OA
ATOM      3  N   UNL d   1      27.320 -17.253  -0.846  0.00  0.00    -0.268 N 
ATOM      4  H   UNL d   1      27.561 -17.943  -0.140  0.00  0.00     0.190 HD
ENDROOT
BRANCH   3   5
ATOM      5  N   UNL d   1      25.777 -17.143  -1.223  0.00  0.00    -0.268 N 
ATOM      6  C   UNL d   1      24.664 -17.603  -0.341  0.00  0.00     0.236 C 
ATOM      7  O   UNL d   1      24.964 -17.996   0.792  0.00  0.00    -0.272 OA
ATOM      8  H   UNL d   1      25.665 -16.655  -2.111  0.00  0.00     0.190 HD
BRANCH   6   9
ATOM      9  C   UNL d   1      22.988 -17.534  -0.974  0.00  0.00     0.118 C 
BRANCH   9  10
ATOM     10  C   UNL d   1      21.453 -18.356  -0.380  0.00  0.00     0.014 C 
ATOM     11  C   UNL d   1      21.239 -19.317  -1.296  0.00  0.00     0.090 C 
ATOM     12  N   UNL d   1      19.905 -19.044  -1.268  0.00  0.00    -0.288 NA
ATOM     13  C   UNL d   1      19.547 -19.665  -0.109  0.00  0.00     0.001 A 
ATOM     14  H   UNL d   1      19.457 -18.158  -1.450  0.00  0.00     0.128 HD
ATOM     15  C   UNL d   1      18.361 -20.507  -0.122  0.00  0.00     0.020 A 
ATOM     16  C   UNL d   1      20.660 -19.251   0.923  0.00  0.00     0.042 A 
ATOM     17  C   UNL d   1      17.927 -21.292   0.899  0.00  0.00     0.001 A 
ATOM     18  C   UNL d   1      18.753 -21.183   1.966  0.00  0.00    -0.003 A 
ATOM     19  C   UNL d   1      19.943 -20.250   1.893  0.00  0.00    -0.009 A 
ENDBRANCH   9  10
ENDBRANCH   6   9
ENDBRANCH   3   5
BRANCH   1  20
ATOM     20  C   UNL d   1      29.838 -16.765  -1.168  0.00  0.00     0.105 C 
BRANCH  20  21
ATOM     21  C   UNL d   1      30.553 -17.707  -2.174  0.00  0.00     0.014 C 
BRANCH  21  22
ATOM     22  C   UNL d   1      31.223 -17.040  -3.405  0.00  0.00     0.039 C 
BRANCH  22  23
ATOM     23  C   UNL d   1      30.986 -17.783  -4.717  0.00  0.00    -0.058 A 
ATOM     24  C   UNL d   1      30.885 -19.183  -4.742  0.00  0.00     0.010 A 
ATOM     25  C   UNL d   1      30.791 -19.871  -5.964  0.00  0.00     0.037 A 
ATOM     26  C   UNL d   1      30.716 -19.173  -7.172  0.00  0.00     0.068 A 
ATOM     27  C   UNL d   1      30.779 -17.787  -7.151  0.00  0.00     0.037 A 
ATOM     28  C   UNL d   1      30.909 -17.107  -5.942  0.00  0.00     0.010 A 
BRANCH  26  29
ATOM     29  O   UNL d   1      30.487 -19.914  -8.298  0.00  0.00    -0.356 OA
ATOM     30  C   UNL d   1      31.594 -20.065  -9.183  0.00  0.00     0.210 C 
ENDBRANCH  26  29
ENDBRANCH  22  23
ENDBRANCH  21  22
ENDBRANCH  20  21
ENDBRANCH   1  20
TORSDOF 8
ENDMDL
MODEL 4
REMARK VINA RESULT:   -31.097      0.916      1.319
REMARK INTER + INTRA:         -34.599
REMARK INTER:                 -33.484
REMARK INTRA:                  -1.115
REMARK CONF_INDEPENDENT:        2.386
REMARK UNBOUND:                -1.115
REMARK  8 active torsions:
REMARK  status: ('A' for Active; 'I' for Inactive)
REMARK    1  A    between atoms: O_2  and  C_3 
REMARK    2  A    between atoms: C_6  and  C_7 
REMARK    3  A    between atoms: C_7  and  C_8 
REMARK    4  A    between atoms: C_8  and  C_9 
REMARK    5  A    between atoms: C_9  and  C_10 
REMARK       I    between atoms: C_10  and  N_12 
REMARK    6  A    between atoms: N_12  and  N_13 
REMARK       I    between atoms: N_13  and  C_14 
REMARK    7  A    between atoms: C_14  and  C_16 
REMARK    8  A    between atoms: C_16  and  C_17 
ROOT
ATOM      1  C   UNL d   1      27.762 -15.034  -0.758  0.00  0.00     0.236 C 
ATOM      2  O   UNL d   1      27.306 -14.168  -1.508  0.00  0.00    -0.272 OA
ATOM      3  N   UNL d   1      26.959 -16.110  -0.279  0.00  0.00    -0.268 N 
ATOM      4  H   UNL d   1      27.332 -16.825   0.338  0.00  0.00     0.190 HD
ENDROOT
BRANCH   3   5
ATOM      5  N   UNL d   1      25.460 -16.320  -0.772  0.00  0.00    -0.268 N 
ATOM      6  C   UNL d   1      24.565 -17.414  -0.292  0.00  0.00     0.236 C 
ATOM      7  O   UNL d   1      24.987 -18.133   0.621  0.00  0.00    -0.272 OA
ATOM      8  H   UNL d   1      25.186 -15.566  -1.401  0.00  0.00     0.190 HD
BRANCH   6   9
ATOM      9  C   UNL d   1      22.950 -17.593  -1.051  0.00  0.00     0.118 C 
BRANCH   9  10
ATOM     10  C   UNL d   1      21.417 -18.392  -0.422  0.00  0.00     0.014 C 
ATOM     11  C   UNL d   1      21.146 -19.324  -1.353  0.00  0.00     0.090 C 
ATOM     12  N   UNL d   1      19.822 -19.020  -1.270  0.00  0.00    -0.288 NA
ATOM     13  C   UNL d   1      19.490 -19.661  -0.114  0.00  0.00     0.001 A 
ATOM     14  H   UNL d   1      19.390 -18.118  -1.413  0.00  0.00     0.128 HD
ATOM     15  C   UNL d   1      18.284 -20.473  -0.104  0.00  0.00     0.020 A 
ATOM     16  C   UNL d   1      20.649 -19.301   0.887  0.00  0.00     0.042 A 
ATOM     17  C   UNL d   1      17.867 -21.274   0.912  0.00  0.00     0.001 A 
ATOM     18  C   UNL d   1      18.733 -21.212   1.951  0.00  0.00    -0.003 A 
ATOM     19  C   UNL d   1      19.942 -20.307   1.857  0.00  0.00    -0.009 A 
ENDBRANCH   9  10
ENDBRANCH   6   9
ENDBRANCH   3   5
BRANCH   1  20
ATOM     20  C   UNL d   1      29.281 -14.977  -0.301  0.00  0.00     0.105 C 
BRANCH  20  21
ATOM     21  C   UNL d   1      29.454 -14.687   1.215  0.00  0.00     0.014 C 
BRANCH  21  22
ATOM     22  C   UNL d   1      28.187 -14.814   2.102  0.00  0.00     0.039 C 
BRANCH  22  23
ATOM     23  C   UNL d   1      28.405 -14.401   3.555  0.00  0.00    -0.058 A 
ATOM     24  C   UNL d   1      27.357 -13.851   4.311  0.00  0.00     0.010 A 
ATOM     25  C   UNL d   1      27.593 -13.359   5.607  0.00  0.00     0.037 A 
ATOM     26  C   UNL d   1      28.853 -13.479   6.197  0.00  0.00     0.068 A 
ATOM     27  C   UNL d   1      29.884 -14.056   5.469  0.00  0.00     0.037 A 
ATOM     28  C   UNL d   1      29.659 -14.509   4.171  0.00  0.00     0.010 A 
BRANCH  26  29
ATOM     29  O   UNL d   1      28.958 -13.101   7.507  0.00  0.00    -0.356 OA
ATOM     30  C   UNL d   1      28.492 -11.791   7.819  0.00  0.00     0.210 C 
ENDBRANCH  26  29
ENDBRANCH  22  23
ENDBRANCH  21  22
ENDBRANCH  20  21
ENDBRANCH   1  20
TORSDOF 8
ENDMDL
MODEL 5
REMARK VINA RESULT:   -30.978      3.215      5.807
REMARK INTER + INTRA:         -34.784
REMARK INTER:                 -33.364
REMARK INTRA:                  -1.420
REMARK CONF_INDEPENDENT:        2.386
REMARK UNBOUND:                -1.420
REMARK  8 active torsions:
REMARK  status: ('A' for Active; 'I' for Inactive)
REMARK    1  A    between atoms: O_2  and  C_3 
REMARK    2  A    between atoms: C_6  and  C_7 
REMARK    3  A    between atoms: C_7  and  C_8 
REMARK    4  A    between atoms: C_8  and  C_9 
REMARK    5  A    between atoms: C_9  and  C_10 
REMARK       I    between atoms: C_10  and  N_12 
REMARK    6  A    between atoms: N_12  and  N_13 
REMARK       I    between atoms: N_13  and  C_14 
REMARK    7  A    between atoms: C_14  and  C_16 
REMARK    8  A    between atoms: C_16  and  C_17 
ROOT
ATOM      1  C   UNL d   1      27.273 -14.764   0.880  0.00  0.00     0.236 C 
ATOM      2  O   UNL d   1      26.486 -13.834   1.066  0.00  0.00    -0.272 OA
ATOM      3  N   UNL d   1      26.848 -16.004   0.320  0.00  0.00    -0.268 N 
ATOM      4  H   UNL d   1      27.494 -16.773   0.165  0.00  0.00     0.190 HD
ENDROOT
BRANCH   3   5
ATOM      5  N   UNL d   1      25.360 -16.222  -0.203  0.00  0.00    -0.268 N 
ATOM      6  C   UNL d   1      24.686 -17.551  -0.284  0.00  0.00     0.236 C 
ATOM      7  O   UNL d   1      25.290 -18.523   0.183  0.00  0.00    -0.272 OA
ATOM      8  H   UNL d   1      24.922 -15.323  -0.403  0.00  0.00     0.190 HD
BRANCH   6   9
ATOM      9  C   UNL d   1      23.056 -17.639  -1.026  0.00  0.00     0.118 C 
BRANCH   9  10
ATOM     10  C   UNL d   1      21.503 -18.411  -0.411  0.00  0.00     0.014 C 
ATOM     11  C   UNL d   1      21.214 -19.325  -1.353  0.00  0.00     0.090 C 
ATOM     12  N   UNL d   1      19.897 -18.992  -1.270  0.00  0.00    -0.288 NA
ATOM     13  C   UNL d   1      19.548 -19.640  -0.123  0.00  0.00     0.001 A 
ATOM     14  H   UNL d   1      19.486 -18.079  -1.404  0.00  0.00     0.128 HD
ATOM     15  C   UNL d   1      18.323 -20.425  -0.126  0.00  0.00     0.020 A 
ATOM     16  C   UNL d   1      20.712 -19.318   0.885  0.00  0.00     0.042 A 
ATOM     17  C   UNL d   1      17.886 -21.228   0.879  0.00  0.00     0.001 A 
ATOM     18  C   UNL d   1      18.750 -21.199   1.921  0.00  0.00    -0.003 A 
ATOM     19  C   UNL d   1      19.980 -20.320   1.841  0.00  0.00    -0.009 A 
ENDBRANCH   9  10
ENDBRANCH   6   9
ENDBRANCH   3   5
BRANCH   1  20
ATOM     20  C   UNL d   1      28.805 -14.604   1.262  0.00  0.00     0.105 C 
BRANCH  20  21
ATOM     21  C   UNL d   1      29.566 -13.615   0.338  0.00  0.00     0.014 C 
BRANCH  21  22
ATOM     22  C   UNL d   1      29.831 -14.080  -1.120  0.00  0.00     0.039 C 
BRANCH  22  23
ATOM     23  C   UNL d   1      28.568 -14.214  -1.966  0.00  0.00    -0.058 A 
ATOM     24  C   UNL d   1      27.982 -15.470  -2.189  0.00  0.00     0.010 A 
ATOM     25  C   UNL d   1      26.894 -15.605  -3.068  0.00  0.00     0.037 A 
ATOM     26  C   UNL d   1      26.323 -14.483  -3.674  0.00  0.00     0.068 A 
ATOM     27  C   UNL d   1      26.875 -13.234  -3.428  0.00  0.00     0.037 A 
ATOM     28  C   UNL d   1      27.977 -13.105  -2.586  0.00  0.00     0.010 A 
BRANCH  26  29
ATOM     29  O   UNL d   1      25.184 -14.689  -4.402  0.00  0.00    -0.356 OA
ATOM     30  C   UNL d   1      24.168 -13.699  -4.266  0.00  0.00     0.210 C 
ENDBRANCH  26  29
ENDBRANCH  22  23
ENDBRANCH  21  22
ENDBRANCH  20  21
ENDBRANCH   1  20
TORSDOF 8
ENDMDL
MODEL 6
REMARK VINA RESULT:   -30.928      3.657      6.597
REMARK INTER + INTRA:         -34.424
REMARK INTER:                 -33.315
REMARK INTRA:                  -1.109
REMARK CONF_INDEPENDENT:        2.386
REMARK UNBOUND:                -1.109
REMARK  8 active torsions:
REMARK  status: ('A' for Active; 'I' for Inactive)
REMARK    1  A    between atoms: O_2  and  C_3 
REMARK    2  A    between atoms: C_6  and  C_7 
REMARK    3  A    between atoms: C_7  and  C_8 
REMARK    4  A    between atoms: C_8  and  C_9 
REMARK    5  A    between atoms: C_9  and  C_10 
REMARK       I    between atoms: C_10  and  N_12 
REMARK    6  A    between atoms: N_12  and  N_13 
REMARK       I    between atoms: N_13  and  C_14 
REMARK    7  A    between atoms: C_14  and  C_16 
REMARK    8  A    between atoms: C_16  and  C_17 
ROOT
ATOM      1  C   UNL d   1      27.892 -15.355   0.323  0.00  0.00     0.236 C 
ATOM      2  O   UNL d   1      27.349 -14.253   0.217  0.00  0.00    -0.272 OA
ATOM      3  N   UNL d   1      27.157 -16.569   0.190  0.00  0.00    -0.268 N 
ATOM      4  H   UNL d   1      27.601 -17.478   0.277  0.00  0.00     0.190 HD
ENDROOT
BRANCH   3   5
ATOM      5  N   UNL d   1      25.617 -16.576  -0.214  0.00  0.00    -0.268 N 
ATOM      6  C   UNL d   1      24.804 -17.814  -0.398  0.00  0.00     0.236 C 
ATOM      7  O   UNL d   1      25.340 -18.891  -0.116  0.00  0.00    -0.272 OA
ATOM      8  H   UNL d   1      25.259 -15.622  -0.258  0.00  0.00     0.190 HD
BRANCH   6   9
ATOM      9  C   UNL d   1      23.119 -17.651  -0.990  0.00  0.00     0.118 C 
BRANCH   9  10
ATOM     10  C   UNL d   1      21.557 -18.398  -0.368  0.00  0.00     0.014 C 
ATOM     11  C   UNL d   1      21.206 -19.248  -1.349  0.00  0.00     0.090 C 
ATOM     12  N   UNL d   1      19.905 -18.872  -1.206  0.00  0.00    -0.288 NA
ATOM     13  C   UNL d   1      19.566 -19.569  -0.085  0.00  0.00     0.001 A 
ATOM     14  H   UNL d   1      19.526 -17.939  -1.277  0.00  0.00     0.128 HD
ATOM     15  C   UNL d   1      18.313 -20.307  -0.091  0.00  0.00     0.020 A 
ATOM     16  C   UNL d   1      20.771 -19.345   0.901  0.00  0.00     0.042 A 
ATOM     17  C   UNL d   1      17.875 -21.148   0.883  0.00  0.00     0.001 A 
ATOM     18  C   UNL d   1      18.770 -21.207   1.896  0.00  0.00    -0.003 A 
ATOM     19  C   UNL d   1      20.029 -20.371   1.826  0.00  0.00    -0.009 A 
ENDBRANCH   9  10
ENDBRANCH   6   9
ENDBRANCH   3   5
BRANCH   1  20
ATOM     20  C   UNL d   1      29.450 -15.454   0.612  0.00  0.00     0.105 C 
BRANCH  20  21
ATOM     21  C   UNL d   1      30.188 -16.434  -0.340  0.00  0.00     0.014 C 
BRANCH  21  22
ATOM     22  C   UNL d   1      29.304 -17.296  -1.282  0.00  0.00     0.039 C 
BRANCH  22  23
ATOM     23  C   UNL d   1      28.969 -16.620  -2.608  0.00  0.00    -0.058 A 
ATOM     24  C   UNL d   1      27.930 -15.679  -2.692  0.00  0.00     0.010 A 
ATOM     25  C   UNL d   1      27.543 -15.151  -3.936  0.00  0.00     0.037 A 
ATOM     26  C   UNL d   1      28.236 -15.489  -5.101  0.00  0.00     0.068 A 
ATOM     27  C   UNL d   1      29.288 -16.390  -5.018  0.00  0.00     0.037 A 
ATOM     28  C   UNL d   1      29.647 -16.942  -3.791  0.00  0.00     0.010 A 
BRANCH  26  29
ATOM     29  O   UNL d   1      27.883 -14.824  -6.243  0.00  0.00    -0.356 OA
ATOM     30  C   UNL d   1      28.957 -14.423  -7.090  0.00  0.00     0.210 C 
ENDBRANCH  26  29
ENDBRANCH  22  23
ENDBRANCH  21  22
ENDBRANCH  20  21
ENDBRANCH   1  20
TORSDOF 8
ENDMDL
MODEL 7
REMARK VINA RESULT:   -30.786      6.011      8.308
REMARK INTER + INTRA:         -33.889
REMARK INTER:                 -33.173
REMARK INTRA:                  -0.717
REMARK CONF_INDEPENDENT:        2.386
REMARK UNBOUND:                -0.717
REMARK  8 active torsions:
REMARK  status: ('A' for Active; 'I' for Inactive)
REMARK    1  A    between atoms: O_2  and  C_3 
REMARK    2  A    between atoms: C_6  and  C_7 
REMARK    3  A    between atoms: C_7  and  C_8 
REMARK    4  A    between atoms: C_8  and  C_9 
REMARK    5  A    between atoms: C_9  and  C_10 
REMARK       I    between atoms: C_10  and  N_12 
REMARK    6  A    between atoms: N_12  and  N_13 
REMARK       I    between atoms: N_13  and  C_14 
REMARK    7  A    between atoms: C_14  and  C_16 
REMARK    8  A    between atoms: C_16  and  C_17 
ROOT
ATOM      1  C   UNL d   1      25.656 -15.300  -3.288  0.00  0.00     0.236 C 
ATOM      2  O   UNL d   1      24.519 -14.822  -3.289  0.00  0.00    -0.272 OA
ATOM      3  N   UNL d   1      26.117 -16.133  -2.227  0.00  0.00    -0.268 N 
ATOM      4  H   UNL d   1      27.053 -16.529  -2.223  0.00  0.00     0.190 HD
ENDROOT
BRANCH   3   5
ATOM      5  N   UNL d   1      25.158 -16.586  -1.040  0.00  0.00    -0.268 N 
ATOM      6  C   UNL d   1      24.015 -17.532  -1.200  0.00  0.00     0.236 C 
ATOM      7  O   UNL d   1      23.876 -18.072  -2.304  0.00  0.00    -0.272 OA
ATOM      8  H   UNL d   1      25.481 -16.194  -0.156  0.00  0.00     0.190 HD
BRANCH   6   9
ATOM      9  C   UNL d   1      22.948 -17.831   0.210  0.00  0.00     0.118 C 
BRANCH   9  10
ATOM     10  C   UNL d   1      21.286 -18.613   0.305  0.00  0.00     0.014 C 
ATOM     11  C   UNL d   1      21.202 -19.310  -0.842  0.00  0.00     0.090 C 
ATOM     12  N   UNL d   1      19.905 -18.921  -0.982  0.00  0.00    -0.288 NA
ATOM     13  C   UNL d   1      19.297 -19.755  -0.093  0.00  0.00     0.001 A 
ATOM     14  H   UNL d   1      19.549 -17.977  -1.016  0.00  0.00     0.128 HD
ATOM     15  C   UNL d   1      18.093 -20.450  -0.520  0.00  0.00     0.020 A 
ATOM     16  C   UNL d   1      20.209 -19.703   1.188  0.00  0.00     0.042 A 
ATOM     17  C   UNL d   1      17.428 -21.404   0.184  0.00  0.00     0.001 A 
ATOM     18  C   UNL d   1      18.036 -21.627   1.373  0.00  0.00    -0.003 A 
ATOM     19  C   UNL d   1      19.265 -20.825   1.741  0.00  0.00    -0.009 A 
ENDBRANCH   9  10
ENDBRANCH   6   9
ENDBRANCH   3   5
BRANCH   1  20
ATOM     20  C   UNL d   1      26.650 -15.000  -4.488  0.00  0.00     0.105 C 
BRANCH  20  21
ATOM     21  C   UNL d   1      28.142 -15.225  -4.118  0.00  0.00     0.014 C 
BRANCH  21  22
ATOM     22  C   UNL d   1      29.200 -14.755  -5.152  0.00  0.00     0.039 C 
BRANCH  22  23
ATOM     23  C   UNL d   1      29.950 -15.897  -5.832  0.00  0.00    -0.058 A 
ATOM     24  C   UNL d   1      29.876 -17.206  -5.330  0.00  0.00     0.010 A 
ATOM     25  C   UNL d   1      30.664 -18.230  -5.883  0.00  0.00     0.037 A 
ATOM     26  C   UNL d   1      31.476 -17.984  -6.993  0.00  0.00     0.068 A 
ATOM     27  C   UNL d   1      31.525 -16.700  -7.518  0.00  0.00     0.037 A 
ATOM     28  C   UNL d   1      30.772 -15.677  -6.946  0.00  0.00     0.010 A 
BRANCH  26  29
ATOM     29  O   UNL d   1      32.100 -19.065  -7.551  0.00  0.00    -0.356 OA
ATOM     30  C   UNL d   1      31.306 -19.862  -8.427  0.00  0.00     0.210 C 
ENDBRANCH  26  29
ENDBRANCH  22  23
ENDBRANCH  21  22
ENDBRANCH  20  21
ENDBRANCH   1  20
TORSDOF 8
ENDMDL
MODEL 8
REMARK VINA RESULT:   -30.627      6.014      7.438
REMARK INTER + INTRA:         -33.842
REMARK INTER:                 -33.013
REMARK INTRA:                  -0.828
REMARK CONF_INDEPENDENT:        2.386
REMARK UNBOUND:                -0.828
REMARK  8 active torsions:
REMARK  status: ('A' for Active; 'I' for Inactive)
REMARK    1  A    between atoms: O_2  and  C_3 
REMARK    2  A    between atoms: C_6  and  C_7 
REMARK    3  A    between atoms: C_7  and  C_8 
REMARK    4  A    between atoms: C_8  and  C_9 
REMARK    5  A    between atoms: C_9  and  C_10 
REMARK       I    between atoms: C_10  and  N_12 
REMARK    6  A    between atoms: N_12  and  N_13 
REMARK       I    between atoms: N_13  and  C_14 
REMARK    7  A    between atoms: C_14  and  C_16 
REMARK    8  A    between atoms: C_16  and  C_17 
ROOT
ATOM      1  C   UNL d   1      25.432 -14.158  -3.044  0.00  0.00     0.236 C 
ATOM      2  O   UNL d   1      24.816 -14.818  -3.883  0.00  0.00    -0.272 OA
ATOM      3  N   UNL d   1      25.548 -14.588  -1.690  0.00  0.00    -0.268 N 
ATOM      4  H   UNL d   1      26.055 -14.046  -0.996  0.00  0.00     0.190 HD
ENDROOT
BRANCH   3   5
ATOM      5  N   UNL d   1      24.988 -15.998  -1.208  0.00  0.00    -0.268 N 
ATOM      6  C   UNL d   1      23.537 -16.332  -1.103  0.00  0.00     0.236 C 
ATOM      7  O   UNL d   1      22.730 -15.492  -1.515  0.00  0.00    -0.272 OA
ATOM      8  H   UNL d   1      25.757 -16.649  -1.053  0.00  0.00     0.190 HD
BRANCH   6   9
ATOM      9  C   UNL d   1      23.074 -17.920  -0.410  0.00  0.00     0.118 C 
BRANCH   9  10
ATOM     10  C   UNL d   1      21.414 -18.627  -0.049  0.00  0.00     0.014 C 
ATOM     11  C   UNL d   1      21.202 -19.466  -1.078  0.00  0.00     0.090 C 
ATOM     12  N   UNL d   1      19.905 -19.057  -1.143  0.00  0.00    -0.288 NA
ATOM     13  C   UNL d   1      19.373 -19.745  -0.094  0.00  0.00     0.001 A 
ATOM     14  H   UNL d   1      19.566 -18.114  -1.269  0.00  0.00     0.128 HD
ATOM     15  C   UNL d   1      18.118 -20.450  -0.305  0.00  0.00     0.020 A 
ATOM     16  C   UNL d   1      20.410 -19.555   1.073  0.00  0.00     0.042 A 
ATOM     17  C   UNL d   1      17.509 -21.280   0.582  0.00  0.00     0.001 A 
ATOM     18  C   UNL d   1      18.229 -21.364   1.726  0.00  0.00    -0.003 A 
ATOM     19  C   UNL d   1      19.504 -20.561   1.861  0.00  0.00    -0.009 A 
ENDBRANCH   9  10
ENDBRANCH   6   9
ENDBRANCH   3   5
BRANCH   1  20
ATOM     20  C   UNL d   1      26.126 -12.791  -3.455  0.00  0.00     0.105 C 
BRANCH  20  21
ATOM     21  C   UNL d   1      26.235 -12.597  -4.992  0.00  0.00     0.014 C 
BRANCH  21  22
ATOM     22  C   UNL d   1      27.665 -12.512  -5.590  0.00  0.00     0.039 C 
BRANCH  22  23
ATOM     23  C   UNL d   1      28.453 -13.815  -5.495  0.00  0.00    -0.058 A 
ATOM     24  C   UNL d   1      28.761 -14.381  -4.247  0.00  0.00     0.010 A 
ATOM     25  C   UNL d   1      29.591 -15.511  -4.160  0.00  0.00     0.037 A 
ATOM     26  C   UNL d   1      30.061 -16.142  -5.315  0.00  0.00     0.068 A 
ATOM     27  C   UNL d   1      29.729 -15.610  -6.553  0.00  0.00     0.037 A 
ATOM     28  C   UNL d   1      28.937 -14.467  -6.638  0.00  0.00     0.010 A 
BRANCH  26  29
ATOM     29  O   UNL d   1      30.745 -17.314  -5.142  0.00  0.00    -0.356 OA
ATOM     30  C   UNL d   1      30.404 -18.374  -6.031  0.00  0.00     0.210 C 
ENDBRANCH  26  29
ENDBRANCH  22  23
ENDBRANCH  21  22
ENDBRANCH  20  21
ENDBRANCH   1  20
TORSDOF 8
ENDMDL
MODEL 9
REMARK VINA RESULT:   -30.221      2.880      4.761
REMARK INTER + INTRA:         -33.704
REMARK INTER:                 -32.608
REMARK INTRA:                  -1.096
REMARK CONF_INDEPENDENT:        2.386
REMARK UNBOUND:                -1.096
REMARK  8 active torsions:
REMARK  status: ('A' for Active; 'I' for Inactive)
REMARK    1  A    between atoms: O_2  and  C_3 
REMARK    2  A    between atoms: C_6  and  C_7 
REMARK    3  A    between atoms: C_7  and  C_8 
REMARK    4  A    between atoms: C_8  and  C_9 
REMARK    5  A    between atoms: C_9  and  C_10 
REMARK       I    between atoms: C_10  and  N_12 
REMARK    6  A    between atoms: N_12  and  N_13 
REMARK       I    between atoms: N_13  and  C_14 
REMARK    7  A    between atoms: C_14  and  C_16 
REMARK    8  A    between atoms: C_16  and  C_17 
ROOT
ATOM      1  C   UNL d   1      25.459 -14.826  -3.538  0.00  0.00     0.236 C 
ATOM      2  O   UNL d   1      24.507 -14.085  -3.287  0.00  0.00    -0.272 OA
ATOM      3  N   UNL d   1      25.795 -15.927  -2.697  0.00  0.00    -0.268 N 
ATOM      4  H   UNL d   1      26.579 -16.540  -2.902  0.00  0.00     0.190 HD
ENDROOT
BRANCH   3   5
ATOM      5  N   UNL d   1      24.894 -16.333  -1.448  0.00  0.00    -0.268 N 
ATOM      6  C   UNL d   1      23.995 -17.523  -1.415  0.00  0.00     0.236 C 
ATOM      7  O   UNL d   1      24.035 -18.292  -2.382  0.00  0.00    -0.272 OA
ATOM      8  H   UNL d   1      25.077 -15.708  -0.664  0.00  0.00     0.190 HD
BRANCH   6   9
ATOM      9  C   UNL d   1      22.943 -17.760   0.018  0.00  0.00     0.118 C 
BRANCH   9  10
ATOM     10  C   UNL d   1      21.300 -18.573   0.173  0.00  0.00     0.014 C 
ATOM     11  C   UNL d   1      21.209 -19.308  -0.949  0.00  0.00     0.090 C 
ATOM     12  N   UNL d   1      19.901 -18.952  -1.075  0.00  0.00    -0.288 NA
ATOM     13  C   UNL d   1      19.329 -19.770  -0.147  0.00  0.00     0.001 A 
ATOM     14  H   UNL d   1      19.524 -18.017  -1.131  0.00  0.00     0.128 HD
ATOM     15  C   UNL d   1      18.132 -20.503  -0.526  0.00  0.00     0.020 A 
ATOM     16  C   UNL d   1      20.266 -19.657   1.112  0.00  0.00     0.042 A 
ATOM     17  C   UNL d   1      17.503 -21.448   0.221  0.00  0.00     0.001 A 
ATOM     18  C   UNL d   1      18.139 -21.620   1.404  0.00  0.00    -0.003 A 
ATOM     19  C   UNL d   1      19.357 -20.780   1.720  0.00  0.00    -0.009 A 
ENDBRANCH   9  10
ENDBRANCH   6   9
ENDBRANCH   3   5
BRANCH   1  20
ATOM     20  C   UNL d   1      26.350 -14.573  -4.827  0.00  0.00     0.105 C 
BRANCH  20  21
ATOM     21  C   UNL d   1      27.790 -15.141  -4.698  0.00  0.00     0.014 C 
BRANCH  21  22
ATOM     22  C   UNL d   1      28.743 -14.416  -3.710  0.00  0.00     0.039 C 
BRANCH  22  23
ATOM     23  C   UNL d   1      28.147 -14.198  -2.322  0.00  0.00    -0.058 A 
ATOM     24  C   UNL d   1      27.520 -12.986  -1.991  0.00  0.00     0.010 A 
ATOM     25  C   UNL d   1      27.083 -12.743  -0.677  0.00  0.00     0.037 A 
ATOM     26  C   UNL d   1      27.190 -13.731   0.304  0.00  0.00     0.068 A 
ATOM     27  C   UNL d   1      27.775 -14.945  -0.026  0.00  0.00     0.037 A 
ATOM     28  C   UNL d   1      28.242 -15.172  -1.319  0.00  0.00     0.010 A 
BRANCH  26  29
ATOM     29  O   UNL d   1      26.615 -13.461   1.515  0.00  0.00    -0.356 OA
ATOM     30  C   UNL d   1      27.505 -13.371   2.624  0.00  0.00     0.210 C 
ENDBRANCH  26  29
ENDBRANCH  22  23
ENDBRANCH  21  22
ENDBRANCH  20  21
ENDBRANCH   1  20
TORSDOF 8
ENDMDL
