MODEL 1
REMARK VINA RESULT:    -8.414      0.000      0.000
REMARK INTER + INTRA:         -16.547
REMARK INTER:                 -12.590
REMARK INTRA:                  -3.957
REMARK CONF_INDEPENDENT:        4.176
REMARK UNBOUND:                -3.957
REMARK  14 active torsions:
REMARK  status: ('A' for Active; 'I' for Inactive)
REMARK    1  A    between atoms: C_2  and  C_3 
REMARK       I    between atoms: C_2  and  N_18 
REMARK    2  A    between atoms: C_3  and  C_4 
REMARK    3  A    between atoms: C_4  and  C_5 
REMARK    4  A    between atoms: C_5  and  C_6 
REMARK    5  A    between atoms: C_6  and  O_8 
REMARK    6  A    between atoms: O_8  and  C_9 
REMARK    7  A    between atoms: C_9  and  C_10 
REMARK    8  A    between atoms: C_10  and  C_11 
REMARK    9  A    between atoms: C_11  and  C_12 
REMARK   10  A    between atoms: N_18  and  N_19 
REMARK       I    between atoms: N_19  and  C_20 
REMARK   11  A    between atoms: C_20  and  C_22 
REMARK   12  A    between atoms: C_22  and  O_23 
REMARK   13  A    between atoms: O_23  and  C_24 
REMARK   14  A    between atoms: C_29  and  C_30 
ROOT
ATOM      1  O   UNL d   1      26.431 -13.656   0.557  0.00  0.00    -0.272 OA
ATOM      2  C   UNL d   1      26.881 -14.204  -0.448  0.00  0.00     0.236 C 
ATOM      3  N   UNL d   1      26.166 -14.156  -1.622  0.00  0.00    -0.267 N 
ATOM      4  H   UNL d   1      25.285 -13.637  -1.614  0.00  0.00     0.190 HD
ENDROOT
BRANCH   3   5
ATOM      5  N   UNL d   1      26.579 -14.652  -2.870  0.00  0.00    -0.266 N 
ATOM      6  C   UNL d   1      25.639 -14.664  -3.907  0.00  0.00     0.260 C 
ATOM      7  O   UNL d   1      24.484 -14.277  -3.743  0.00  0.00    -0.269 OA
ATOM      8  H   UNL d   1      27.493 -15.078  -2.960  0.00  0.00     0.190 HD
BRANCH   6   9
ATOM      9  C   UNL d   1      26.179 -15.233  -5.231  0.00  0.00     0.280 C 
BRANCH   9  10
ATOM     10  O   UNL d   1      27.564 -15.574  -5.158  0.00  0.00    -0.341 OA
BRANCH  10  11
ATOM     11  C   UNL d   1      28.494 -14.831  -5.850  0.00  0.00     0.080 A 
ATOM     12  C   UNL d   1      29.442 -15.586  -6.559  0.00  0.00     0.037 A 
ATOM     13  C   UNL d   1      30.533 -14.974  -7.196  0.00  0.00     0.003 A 
ATOM     14  C   UNL d   1      30.665 -13.591  -7.179  0.00  0.00     0.001 A 
ATOM     15  C   UNL d   1      29.736 -12.832  -6.479  0.00  0.00     0.015 A 
ATOM     16  C   UNL d   1      28.655 -13.435  -5.794  0.00  0.00     0.007 A 
BRANCH  16  17
ATOM     17  C   UNL d   1      27.797 -12.558  -5.009  0.00  0.00    -0.023 A 
ATOM     18  C   UNL d   1      28.153 -12.220  -3.694  0.00  0.00     0.012 A 
ATOM     19  C   UNL d   1      27.344 -11.369  -2.952  0.00  0.00     0.001 A 
ATOM     20  C   UNL d   1      26.239 -10.762  -3.552  0.00  0.00     0.000 A 
ATOM     21  C   UNL d   1      25.904 -11.051  -4.874  0.00  0.00     0.001 A 
ATOM     22  C   UNL d   1      26.653 -11.980  -5.586  0.00  0.00     0.012 A 
ENDBRANCH  16  17
ENDBRANCH  10  11
ENDBRANCH   9  10
ENDBRANCH   6   9
ENDBRANCH   3   5
BRANCH   2  23
ATOM     23  C   UNL d   1      28.208 -14.955  -0.441  0.00  0.00     0.105 C 
BRANCH  23  24
ATOM     24  C   UNL d   1      28.147 -16.220   0.429  0.00  0.00     0.019 C 
BRANCH  24  25
ATOM     25  C   UNL d   1      27.634 -17.461  -0.318  0.00  0.00     0.111 C 
BRANCH  25  26
ATOM     26  C   UNL d   1      26.167 -17.706  -0.011  0.00  0.00     0.258 C 
ATOM     27  O   UNL d   1      25.755 -18.308   0.981  0.00  0.00    -0.265 OA
BRANCH  26  28
ATOM     28  O   UNL d   1      25.354 -17.175  -0.971  0.00  0.00    -0.321 OA
BRANCH  28  29
ATOM     29  C   UNL d   1      24.326 -16.316  -0.440  0.00  0.00     0.179 C 
BRANCH  29  30
ATOM     30  C   UNL d   1      22.956 -16.781  -0.926  0.00  0.00     0.031 C 
BRANCH  30  31
ATOM     31  C   UNL d   1      22.909 -18.303  -1.045  0.00  0.00     0.041 C 
BRANCH  31  32
ATOM     32  C   UNL d   1      21.620 -18.905  -0.547  0.00  0.00    -0.058 A 
ATOM     33  C   UNL d   1      20.649 -19.342  -1.457  0.00  0.00     0.007 A 
ATOM     34  C   UNL d   1      19.376 -19.695  -1.010  0.00  0.00     0.001 A 
ATOM     35  C   UNL d   1      19.095 -19.711   0.356  0.00  0.00     0.000 A 
ATOM     36  C   UNL d   1      20.077 -19.347   1.273  0.00  0.00     0.001 A 
ATOM     37  C   UNL d   1      21.332 -18.938   0.824  0.00  0.00     0.007 A 
ENDBRANCH  31  32
ENDBRANCH  30  31
ENDBRANCH  29  30
ENDBRANCH  28  29
ENDBRANCH  26  28
ENDBRANCH  25  26
ENDBRANCH  24  25
ENDBRANCH  23  24
ENDBRANCH   2  23
TORSDOF 14
ENDMDL
MODEL 2
REMARK VINA RESULT:    -7.466      2.428      7.947
REMARK INTER + INTRA:         -16.546
REMARK INTER:                 -11.643
REMARK INTRA:                  -4.904
REMARK CONF_INDEPENDENT:        4.176
REMARK UNBOUND:                -4.904
REMARK  14 active torsions:
REMARK  status: ('A' for Active; 'I' for Inactive)
REMARK    1  A    between atoms: C_2  and  C_3 
REMARK       I    between atoms: C_2  and  N_18 
REMARK    2  A    between atoms: C_3  and  C_4 
REMARK    3  A    between atoms: C_4  and  C_5 
REMARK    4  A    between atoms: C_5  and  C_6 
REMARK    5  A    between atoms: C_6  and  O_8 
REMARK    6  A    between atoms: O_8  and  C_9 
REMARK    7  A    between atoms: C_9  and  C_10 
REMARK    8  A    between atoms: C_10  and  C_11 
REMARK    9  A    between atoms: C_11  and  C_12 
REMARK   10  A    between atoms: N_18  and  N_19 
REMARK       I    between atoms: N_19  and  C_20 
REMARK   11  A    between atoms: C_20  and  C_22 
REMARK   12  A    between atoms: C_22  and  O_23 
REMARK   13  A    between atoms: O_23  and  C_24 
REMARK   14  A    between atoms: C_29  and  C_30 
ROOT
ATOM      1  O   UNL d   1      26.020  -9.960  -5.975  0.00  0.00    -0.272 OA
ATOM      2  C   UNL d   1      26.513 -11.053  -5.702  0.00  0.00     0.236 C 
ATOM      3  N   UNL d   1      25.763 -11.984  -5.024  0.00  0.00    -0.267 N 
ATOM      4  H   UNL d   1      24.800 -11.730  -4.790  0.00  0.00     0.190 HD
ENDROOT
BRANCH   3   5
ATOM      5  N   UNL d   1      26.146 -13.300  -4.715  0.00  0.00    -0.266 N 
ATOM      6  C   UNL d   1      25.150 -14.182  -4.281  0.00  0.00     0.260 C 
ATOM      7  O   UNL d   1      23.980 -13.829  -4.149  0.00  0.00    -0.269 OA
ATOM      8  H   UNL d   1      27.128 -13.546  -4.713  0.00  0.00     0.190 HD
BRANCH   6   9
ATOM      9  C   UNL d   1      25.666 -15.596  -3.959  0.00  0.00     0.280 C 
BRANCH   9  10
ATOM     10  O   UNL d   1      26.898 -15.579  -3.236  0.00  0.00    -0.341 OA
BRANCH  10  11
ATOM     11  C   UNL d   1      26.991 -14.883  -2.052  0.00  0.00     0.080 A 
ATOM     12  C   UNL d   1      27.913 -13.824  -2.061  0.00  0.00     0.037 A 
ATOM     13  C   UNL d   1      28.220 -13.114  -0.890  0.00  0.00     0.003 A 
ATOM     14  C   UNL d   1      27.572 -13.416   0.300  0.00  0.00     0.001 A 
ATOM     15  C   UNL d   1      26.659 -14.463   0.325  0.00  0.00     0.015 A 
ATOM     16  C   UNL d   1      26.369 -15.219  -0.835  0.00  0.00     0.007 A 
BRANCH  16  17
ATOM     17  C   UNL d   1      25.475 -16.358  -0.678  0.00  0.00    -0.023 A 
ATOM     18  C   UNL d   1      25.904 -17.496   0.021  0.00  0.00     0.012 A 
ATOM     19  C   UNL d   1      25.043 -18.575   0.187  0.00  0.00     0.001 A 
ATOM     20  C   UNL d   1      23.719 -18.479  -0.244  0.00  0.00     0.000 A 
ATOM     21  C   UNL d   1      23.267 -17.333  -0.895  0.00  0.00     0.001 A 
ATOM     22  C   UNL d   1      24.153 -16.294  -1.152  0.00  0.00     0.012 A 
ENDBRANCH  16  17
ENDBRANCH  10  11
ENDBRANCH   9  10
ENDBRANCH   6   9
ENDBRANCH   3   5
BRANCH   2  23
ATOM     23  C   UNL d   1      27.946 -11.416  -6.079  0.00  0.00     0.105 C 
BRANCH  23  24
ATOM     24  C   UNL d   1      28.003 -12.288  -7.343  0.00  0.00     0.019 C 
BRANCH  24  25
ATOM     25  C   UNL d   1      28.903 -13.525  -7.202  0.00  0.00     0.111 C 
BRANCH  25  26
ATOM     26  C   UNL d   1      28.416 -14.420  -6.075  0.00  0.00     0.258 C 
ATOM     27  O   UNL d   1      27.468 -15.200  -6.167  0.00  0.00    -0.265 OA
BRANCH  26  28
ATOM     28  O   UNL d   1      29.161 -14.258  -4.943  0.00  0.00    -0.321 OA
BRANCH  28  29
ATOM     29  C   UNL d   1      30.488 -13.758  -5.196  0.00  0.00     0.179 C 
BRANCH  29  30
ATOM     30  C   UNL d   1      31.393 -14.895  -5.661  0.00  0.00     0.031 C 
BRANCH  30  31
ATOM     31  C   UNL d   1      31.206 -16.133  -4.785  0.00  0.00     0.041 C 
BRANCH  31  32
ATOM     32  C   UNL d   1      30.902 -17.383  -5.570  0.00  0.00    -0.058 A 
ATOM     33  C   UNL d   1      30.478 -18.543  -4.911  0.00  0.00     0.007 A 
ATOM     34  C   UNL d   1      30.405 -19.755  -5.597  0.00  0.00     0.001 A 
ATOM     35  C   UNL d   1      30.659 -19.798  -6.968  0.00  0.00     0.000 A 
ATOM     36  C   UNL d   1      31.012 -18.634  -7.647  0.00  0.00     0.001 A 
ATOM     37  C   UNL d   1      31.141 -17.433  -6.951  0.00  0.00     0.007 A 
ENDBRANCH  31  32
ENDBRANCH  30  31
ENDBRANCH  29  30
ENDBRANCH  28  29
ENDBRANCH  26  28
ENDBRANCH  25  26
ENDBRANCH  24  25
ENDBRANCH  23  24
ENDBRANCH   2  23
TORSDOF 14
ENDMDL
MODEL 3
REMARK VINA RESULT:    -6.970      2.434      4.854
REMARK INTER + INTRA:         -16.027
REMARK INTER:                 -11.146
REMARK INTRA:                  -4.881
REMARK CONF_INDEPENDENT:        4.176
REMARK UNBOUND:                -4.881
REMARK  14 active torsions:
REMARK  status: ('A' for Active; 'I' for Inactive)
REMARK    1  A    between atoms: C_2  and  C_3 
REMARK       I    between atoms: C_2  and  N_18 
REMARK    2  A    between atoms: C_3  and  C_4 
REMARK    3  A    between atoms: C_4  and  C_5 
REMARK    4  A    between atoms: C_5  and  C_6 
REMARK    5  A    between atoms: C_6  and  O_8 
REMARK    6  A    between atoms: O_8  and  C_9 
REMARK    7  A    between atoms: C_9  and  C_10 
REMARK    8  A    between atoms: C_10  and  C_11 
REMARK    9  A    between atoms: C_11  and  C_12 
REMARK   10  A    between atoms: N_18  and  N_19 
REMARK       I    between atoms: N_19  and  C_20 
REMARK   11  A    between atoms: C_20  and  C_22 
REMARK   12  A    between atoms: C_22  and  O_23 
REMARK   13  A    between atoms: O_23  and  C_24 
REMARK   14  A    between atoms: C_29  and  C_30 
ROOT
ATOM      1  O   UNL d   1      25.550  -9.683  -3.007  0.00  0.00    -0.272 OA
ATOM      2  C   UNL d   1      26.219 -10.711  -3.107  0.00  0.00     0.236 C 
ATOM      3  N   UNL d   1      25.650 -11.838  -3.653  0.00  0.00    -0.267 N 
ATOM      4  H   UNL d   1      24.684 -11.765  -3.979  0.00  0.00     0.190 HD
ENDROOT
BRANCH   3   5
ATOM      5  N   UNL d   1      26.299 -13.056  -3.914  0.00  0.00    -0.266 N 
ATOM      6  C   UNL d   1      25.504 -14.155  -4.258  0.00  0.00     0.260 C 
ATOM      7  O   UNL d   1      24.278 -14.080  -4.312  0.00  0.00    -0.269 OA
ATOM      8  H   UNL d   1      27.296 -13.136  -3.750  0.00  0.00     0.190 HD
BRANCH   6   9
ATOM      9  C   UNL d   1      26.302 -15.445  -4.517  0.00  0.00     0.280 C 
BRANCH   9  10
ATOM     10  O   UNL d   1      26.988 -15.424  -5.770  0.00  0.00    -0.341 OA
BRANCH  10  11
ATOM     11  C   UNL d   1      28.077 -14.601  -5.944  0.00  0.00     0.080 A 
ATOM     12  C   UNL d   1      27.781 -13.331  -6.465  0.00  0.00     0.037 A 
ATOM     13  C   UNL d   1      28.798 -12.436  -6.828  0.00  0.00     0.003 A 
ATOM     14  C   UNL d   1      30.130 -12.774  -6.628  0.00  0.00     0.001 A 
ATOM     15  C   UNL d   1      30.439 -14.028  -6.116  0.00  0.00     0.015 A 
ATOM     16  C   UNL d   1      29.428 -14.961  -5.786  0.00  0.00     0.007 A 
BRANCH  16  17
ATOM     17  C   UNL d   1      29.862 -16.282  -5.353  0.00  0.00    -0.023 A 
ATOM     18  C   UNL d   1      30.407 -17.182  -6.282  0.00  0.00     0.012 A 
ATOM     19  C   UNL d   1      30.839 -18.435  -5.865  0.00  0.00     0.001 A 
ATOM     20  C   UNL d   1      30.833 -18.755  -4.506  0.00  0.00     0.000 A 
ATOM     21  C   UNL d   1      30.340 -17.849  -3.567  0.00  0.00     0.001 A 
ATOM     22  C   UNL d   1      29.814 -16.636  -3.993  0.00  0.00     0.012 A 
ENDBRANCH  16  17
ENDBRANCH  10  11
ENDBRANCH   9  10
ENDBRANCH   6   9
ENDBRANCH   3   5
BRANCH   2  23
ATOM     23  C   UNL d   1      27.666 -10.790  -2.631  0.00  0.00     0.105 C 
BRANCH  23  24
ATOM     24  C   UNL d   1      27.840 -11.802  -1.488  0.00  0.00     0.019 C 
BRANCH  24  25
ATOM     25  C   UNL d   1      29.185 -12.543  -1.516  0.00  0.00     0.111 C 
BRANCH  25  26
ATOM     26  C   UNL d   1      28.987 -14.006  -1.876  0.00  0.00     0.258 C 
ATOM     27  O   UNL d   1      28.059 -14.434  -2.561  0.00  0.00    -0.265 OA
BRANCH  26  28
ATOM     28  O   UNL d   1      29.969 -14.793  -1.347  0.00  0.00    -0.321 OA
BRANCH  28  29
ATOM     29  C   UNL d   1      29.707 -15.203   0.009  0.00  0.00     0.179 C 
BRANCH  29  30
ATOM     30  C   UNL d   1      28.208 -15.410   0.210  0.00  0.00     0.031 C 
BRANCH  30  31
ATOM     31  C   UNL d   1      27.815 -16.858  -0.074  0.00  0.00     0.041 C 
BRANCH  31  32
ATOM     32  C   UNL d   1      26.345 -17.039  -0.350  0.00  0.00    -0.058 A 
ATOM     33  C   UNL d   1      25.649 -18.118   0.209  0.00  0.00     0.007 A 
ATOM     34  C   UNL d   1      24.354 -18.413  -0.212  0.00  0.00     0.001 A 
ATOM     35  C   UNL d   1      23.706 -17.576  -1.120  0.00  0.00     0.000 A 
ATOM     36  C   UNL d   1      24.364 -16.458  -1.627  0.00  0.00     0.001 A 
ATOM     37  C   UNL d   1      25.680 -16.194  -1.251  0.00  0.00     0.007 A 
ENDBRANCH  31  32
ENDBRANCH  30  31
ENDBRANCH  29  30
ENDBRANCH  28  29
ENDBRANCH  26  28
ENDBRANCH  25  26
ENDBRANCH  24  25
ENDBRANCH  23  24
ENDBRANCH   2  23
TORSDOF 14
ENDMDL
MODEL 4
REMARK VINA RESULT:    -6.944      2.055      4.030
REMARK INTER + INTRA:         -15.867
REMARK INTER:                 -11.120
REMARK INTRA:                  -4.747
REMARK CONF_INDEPENDENT:        4.176
REMARK UNBOUND:                -4.747
REMARK  14 active torsions:
REMARK  status: ('A' for Active; 'I' for Inactive)
REMARK    1  A    between atoms: C_2  and  C_3 
REMARK       I    between atoms: C_2  and  N_18 
REMARK    2  A    between atoms: C_3  and  C_4 
REMARK    3  A    between atoms: C_4  and  C_5 
REMARK    4  A    between atoms: C_5  and  C_6 
REMARK    5  A    between atoms: C_6  and  O_8 
REMARK    6  A    between atoms: O_8  and  C_9 
REMARK    7  A    between atoms: C_9  and  C_10 
REMARK    8  A    between atoms: C_10  and  C_11 
REMARK    9  A    between atoms: C_11  and  C_12 
REMARK   10  A    between atoms: N_18  and  N_19 
REMARK       I    between atoms: N_19  and  C_20 
REMARK   11  A    between atoms: C_20  and  C_22 
REMARK   12  A    between atoms: C_22  and  O_23 
REMARK   13  A    between atoms: O_23  and  C_24 
REMARK   14  A    between atoms: C_29  and  C_30 
ROOT
ATOM      1  O   UNL d   1      30.469 -17.415  -4.471  0.00  0.00    -0.272 OA
ATOM      2  C   UNL d   1      29.699 -16.678  -3.857  0.00  0.00     0.236 C 
ATOM      3  N   UNL d   1      28.592 -16.171  -4.496  0.00  0.00    -0.267 N 
ATOM      4  H   UNL d   1      28.443 -16.451  -5.468  0.00  0.00     0.190 HD
ENDROOT
BRANCH   3   5
ATOM      5  N   UNL d   1      27.578 -15.392  -3.915  0.00  0.00    -0.266 N 
ATOM      6  C   UNL d   1      26.413 -15.183  -4.660  0.00  0.00     0.260 C 
ATOM      7  O   UNL d   1      26.273 -15.640  -5.793  0.00  0.00    -0.269 OA
ATOM      8  H   UNL d   1      27.751 -14.923  -3.034  0.00  0.00     0.190 HD
BRANCH   6   9
ATOM      9  C   UNL d   1      25.363 -14.312  -3.947  0.00  0.00     0.280 C 
BRANCH   9  10
ATOM     10  O   UNL d   1      25.817 -13.836  -2.678  0.00  0.00    -0.341 OA
BRANCH  10  11
ATOM     11  C   UNL d   1      26.350 -12.571  -2.568  0.00  0.00     0.080 A 
ATOM     12  C   UNL d   1      26.097 -11.727  -3.661  0.00  0.00     0.037 A 
ATOM     13  C   UNL d   1      26.692 -10.460  -3.757  0.00  0.00     0.003 A 
ATOM     14  C   UNL d   1      27.509  -9.993  -2.736  0.00  0.00     0.001 A 
ATOM     15  C   UNL d   1      27.770 -10.819  -1.650  0.00  0.00     0.015 A 
ATOM     16  C   UNL d   1      27.215 -12.116  -1.557  0.00  0.00     0.007 A 
BRANCH  16  17
ATOM     17  C   UNL d   1      27.633 -12.936  -0.428  0.00  0.00    -0.023 A 
ATOM     18  C   UNL d   1      28.954 -12.867   0.040  0.00  0.00     0.012 A 
ATOM     19  C   UNL d   1      29.348 -13.635   1.129  0.00  0.00     0.001 A 
ATOM     20  C   UNL d   1      28.401 -14.390   1.824  0.00  0.00     0.000 A 
ATOM     21  C   UNL d   1      27.074 -14.427   1.399  0.00  0.00     0.001 A 
ATOM     22  C   UNL d   1      26.700 -13.740   0.250  0.00  0.00     0.012 A 
ENDBRANCH  16  17
ENDBRANCH  10  11
ENDBRANCH   9  10
ENDBRANCH   6   9
ENDBRANCH   3   5
BRANCH   2  23
ATOM     23  C   UNL d   1      29.933 -16.290  -2.400  0.00  0.00     0.105 C 
BRANCH  23  24
ATOM     24  C   UNL d   1      29.624 -17.449  -1.440  0.00  0.00     0.019 C 
BRANCH  24  25
ATOM     25  C   UNL d   1      28.633 -17.082  -0.325  0.00  0.00     0.111 C 
BRANCH  25  26
ATOM     26  C   UNL d   1      27.213 -17.026  -0.862  0.00  0.00     0.258 C 
ATOM     27  O   UNL d   1      26.761 -16.100  -1.535  0.00  0.00    -0.265 OA
BRANCH  26  28
ATOM     28  O   UNL d   1      26.495 -18.132  -0.510  0.00  0.00    -0.321 OA
BRANCH  28  29
ATOM     29  C   UNL d   1      25.296 -17.826   0.228  0.00  0.00     0.179 C 
BRANCH  29  30
ATOM     30  C   UNL d   1      24.069 -18.260  -0.570  0.00  0.00     0.031 C 
BRANCH  30  31
ATOM     31  C   UNL d   1      22.794 -17.667   0.026  0.00  0.00     0.041 C 
BRANCH  31  32
ATOM     32  C   UNL d   1      21.617 -18.608  -0.016  0.00  0.00    -0.058 A 
ATOM     33  C   UNL d   1      21.036 -18.955  -1.242  0.00  0.00     0.007 A 
ATOM     34  C   UNL d   1      19.824 -19.644  -1.275  0.00  0.00     0.001 A 
ATOM     35  C   UNL d   1      19.235 -20.077  -0.088  0.00  0.00     0.000 A 
ATOM     36  C   UNL d   1      19.843 -19.799   1.134  0.00  0.00     0.001 A 
ATOM     37  C   UNL d   1      21.025 -19.061   1.171  0.00  0.00     0.007 A 
ENDBRANCH  31  32
ENDBRANCH  30  31
ENDBRANCH  29  30
ENDBRANCH  28  29
ENDBRANCH  26  28
ENDBRANCH  25  26
ENDBRANCH  24  25
ENDBRANCH  23  24
ENDBRANCH   2  23
TORSDOF 14
ENDMDL
MODEL 5
REMARK VINA RESULT:    -6.717      2.087      4.392
REMARK INTER + INTRA:         -16.313
REMARK INTER:                 -10.893
REMARK INTRA:                  -5.420
REMARK CONF_INDEPENDENT:        4.176
REMARK UNBOUND:                -5.420
REMARK  14 active torsions:
REMARK  status: ('A' for Active; 'I' for Inactive)
REMARK    1  A    between atoms: C_2  and  C_3 
REMARK       I    between atoms: C_2  and  N_18 
REMARK    2  A    between atoms: C_3  and  C_4 
REMARK    3  A    between atoms: C_4  and  C_5 
REMARK    4  A    between atoms: C_5  and  C_6 
REMARK    5  A    between atoms: C_6  and  O_8 
REMARK    6  A    between atoms: O_8  and  C_9 
REMARK    7  A    between atoms: C_9  and  C_10 
REMARK    8  A    between atoms: C_10  and  C_11 
REMARK    9  A    between atoms: C_11  and  C_12 
REMARK   10  A    between atoms: N_18  and  N_19 
REMARK       I    between atoms: N_19  and  C_20 
REMARK   11  A    between atoms: C_20  and  C_22 
REMARK   12  A    between atoms: C_22  and  O_23 
REMARK   13  A    between atoms: O_23  and  C_24 
REMARK   14  A    between atoms: C_29  and  C_30 
ROOT
ATOM      1  O   UNL d   1      27.024 -11.430  -0.845  0.00  0.00    -0.272 OA
ATOM      2  C   UNL d   1      27.431 -12.322  -1.589  0.00  0.00     0.236 C 
ATOM      3  N   UNL d   1      26.537 -13.002  -2.382  0.00  0.00    -0.267 N 
ATOM      4  H   UNL d   1      25.556 -12.718  -2.333  0.00  0.00     0.190 HD
ENDROOT
BRANCH   3   5
ATOM      5  N   UNL d   1      26.850 -13.979  -3.341  0.00  0.00    -0.266 N 
ATOM      6  C   UNL d   1      25.808 -14.462  -4.140  0.00  0.00     0.260 C 
ATOM      7  O   UNL d   1      24.650 -14.071  -4.006  0.00  0.00    -0.269 OA
ATOM      8  H   UNL d   1      27.780 -14.379  -3.361  0.00  0.00     0.190 HD
BRANCH   6   9
ATOM      9  C   UNL d   1      26.244 -15.535  -5.154  0.00  0.00     0.280 C 
BRANCH   9  10
ATOM     10  O   UNL d   1      27.631 -15.858  -5.048  0.00  0.00    -0.341 OA
BRANCH  10  11
ATOM     11  C   UNL d   1      28.563 -15.139  -5.762  0.00  0.00     0.080 A 
ATOM     12  C   UNL d   1      28.146 -13.855  -6.150  0.00  0.00     0.037 A 
ATOM     13  C   UNL d   1      28.929 -13.060  -7.000  0.00  0.00     0.003 A 
ATOM     14  C   UNL d   1      30.167 -13.513  -7.436  0.00  0.00     0.001 A 
ATOM     15  C   UNL d   1      30.591 -14.782  -7.062  0.00  0.00     0.015 A 
ATOM     16  C   UNL d   1      29.796 -15.616  -6.242  0.00  0.00     0.007 A 
BRANCH  16  17
ATOM     17  C   UNL d   1      30.288 -16.965  -5.993  0.00  0.00    -0.023 A 
ATOM     18  C   UNL d   1      30.339 -17.462  -4.682  0.00  0.00     0.012 A 
ATOM     19  C   UNL d   1      30.791 -18.755  -4.447  0.00  0.00     0.001 A 
ATOM     20  C   UNL d   1      31.086 -19.594  -5.523  0.00  0.00     0.000 A 
ATOM     21  C   UNL d   1      30.990 -19.127  -6.833  0.00  0.00     0.001 A 
ATOM     22  C   UNL d   1      30.636 -17.803  -7.066  0.00  0.00     0.012 A 
ENDBRANCH  16  17
ENDBRANCH  10  11
ENDBRANCH   9  10
ENDBRANCH   6   9
ENDBRANCH   3   5
BRANCH   2  23
ATOM     23  C   UNL d   1      28.903 -12.715  -1.657  0.00  0.00     0.105 C 
BRANCH  23  24
ATOM     24  C   UNL d   1      29.305 -13.640  -0.498  0.00  0.00     0.019 C 
BRANCH  24  25
ATOM     25  C   UNL d   1      29.857 -14.999  -0.952  0.00  0.00     0.111 C 
BRANCH  25  26
ATOM     26  C   UNL d   1      29.521 -15.257  -2.411  0.00  0.00     0.258 C 
ATOM     27  O   UNL d   1      29.944 -14.585  -3.351  0.00  0.00    -0.265 OA
BRANCH  26  28
ATOM     28  O   UNL d   1      28.692 -16.332  -2.556  0.00  0.00    -0.321 OA
BRANCH  28  29
ATOM     29  C   UNL d   1      27.496 -16.246  -1.757  0.00  0.00     0.179 C 
BRANCH  29  30
ATOM     30  C   UNL d   1      27.407 -17.449  -0.822  0.00  0.00     0.031 C 
BRANCH  30  31
ATOM     31  C   UNL d   1      26.355 -17.220   0.261  0.00  0.00     0.041 C 
BRANCH  31  32
ATOM     32  C   UNL d   1      24.942 -17.420  -0.222  0.00  0.00    -0.058 A 
ATOM     33  C   UNL d   1      24.183 -16.325  -0.656  0.00  0.00     0.007 A 
ATOM     34  C   UNL d   1      22.818 -16.467  -0.897  0.00  0.00     0.001 A 
ATOM     35  C   UNL d   1      22.218 -17.723  -0.801  0.00  0.00     0.000 A 
ATOM     36  C   UNL d   1      22.980 -18.832  -0.440  0.00  0.00     0.001 A 
ATOM     37  C   UNL d   1      24.334 -18.681  -0.144  0.00  0.00     0.007 A 
ENDBRANCH  31  32
ENDBRANCH  30  31
ENDBRANCH  29  30
ENDBRANCH  28  29
ENDBRANCH  26  28
ENDBRANCH  25  26
ENDBRANCH  24  25
ENDBRANCH  23  24
ENDBRANCH   2  23
TORSDOF 14
ENDMDL
MODEL 6
REMARK VINA RESULT:    -6.428      2.688      7.282
REMARK INTER + INTRA:         -16.026
REMARK INTER:                 -10.604
REMARK INTRA:                  -5.422
REMARK CONF_INDEPENDENT:        4.176
REMARK UNBOUND:                -5.422
REMARK  14 active torsions:
REMARK  status: ('A' for Active; 'I' for Inactive)
REMARK    1  A    between atoms: C_2  and  C_3 
REMARK       I    between atoms: C_2  and  N_18 
REMARK    2  A    between atoms: C_3  and  C_4 
REMARK    3  A    between atoms: C_4  and  C_5 
REMARK    4  A    between atoms: C_5  and  C_6 
REMARK    5  A    between atoms: C_6  and  O_8 
REMARK    6  A    between atoms: O_8  and  C_9 
REMARK    7  A    between atoms: C_9  and  C_10 
REMARK    8  A    between atoms: C_10  and  C_11 
REMARK    9  A    between atoms: C_11  and  C_12 
REMARK   10  A    between atoms: N_18  and  N_19 
REMARK       I    between atoms: N_19  and  C_20 
REMARK   11  A    between atoms: C_20  and  C_22 
REMARK   12  A    between atoms: C_22  and  O_23 
REMARK   13  A    between atoms: O_23  and  C_24 
REMARK   14  A    between atoms: C_29  and  C_30 
ROOT
ATOM      1  O   UNL d   1      30.776 -12.906  -4.795  0.00  0.00    -0.272 OA
ATOM      2  C   UNL d   1      29.887 -13.282  -4.033  0.00  0.00     0.236 C 
ATOM      3  N   UNL d   1      28.658 -13.626  -4.545  0.00  0.00    -0.267 N 
ATOM      4  H   UNL d   1      28.541 -13.573  -5.560  0.00  0.00     0.190 HD
ENDROOT
BRANCH   3   5
ATOM      5  N   UNL d   1      27.573 -14.154  -3.826  0.00  0.00    -0.266 N 
ATOM      6  C   UNL d   1      26.737 -15.062  -4.484  0.00  0.00     0.260 C 
ATOM      7  O   UNL d   1      26.919 -15.382  -5.658  0.00  0.00    -0.269 OA
ATOM      8  H   UNL d   1      27.364 -13.794  -2.902  0.00  0.00     0.190 HD
BRANCH   6   9
ATOM      9  C   UNL d   1      25.573 -15.579  -3.620  0.00  0.00     0.280 C 
BRANCH   9  10
ATOM     10  O   UNL d   1      25.669 -15.155  -2.260  0.00  0.00    -0.341 OA
BRANCH  10  11
ATOM     11  C   UNL d   1      26.393 -15.900  -1.356  0.00  0.00     0.080 A 
ATOM     12  C   UNL d   1      27.777 -15.663  -1.370  0.00  0.00     0.037 A 
ATOM     13  C   UNL d   1      28.659 -16.445  -0.608  0.00  0.00     0.003 A 
ATOM     14  C   UNL d   1      28.167 -17.443   0.222  0.00  0.00     0.001 A 
ATOM     15  C   UNL d   1      26.800 -17.691   0.244  0.00  0.00     0.015 A 
ATOM     16  C   UNL d   1      25.900 -16.943  -0.551  0.00  0.00     0.007 A 
BRANCH  16  17
ATOM     17  C   UNL d   1      24.502 -17.350  -0.529  0.00  0.00    -0.023 A 
ATOM     18  C   UNL d   1      23.488 -16.384  -0.614  0.00  0.00     0.012 A 
ATOM     19  C   UNL d   1      22.154 -16.774  -0.613  0.00  0.00     0.001 A 
ATOM     20  C   UNL d   1      21.828 -18.131  -0.641  0.00  0.00     0.000 A 
ATOM     21  C   UNL d   1      22.829 -19.101  -0.608  0.00  0.00     0.001 A 
ATOM     22  C   UNL d   1      24.159 -18.713  -0.506  0.00  0.00     0.012 A 
ENDBRANCH  16  17
ENDBRANCH  10  11
ENDBRANCH   9  10
ENDBRANCH   6   9
ENDBRANCH   3   5
BRANCH   2  23
ATOM     23  C   UNL d   1      30.092 -13.372  -2.524  0.00  0.00     0.105 C 
BRANCH  23  24
ATOM     24  C   UNL d   1      30.013 -11.993  -1.851  0.00  0.00     0.019 C 
BRANCH  24  25
ATOM     25  C   UNL d   1      28.784 -11.171  -2.266  0.00  0.00     0.111 C 
BRANCH  25  26
ATOM     26  C   UNL d   1      27.504 -11.948  -2.009  0.00  0.00     0.258 C 
ATOM     27  O   UNL d   1      26.467 -11.814  -2.660  0.00  0.00    -0.265 OA
BRANCH  26  28
ATOM     28  O   UNL d   1      27.641 -12.819  -0.967  0.00  0.00    -0.321 OA
BRANCH  28  29
ATOM     29  C   UNL d   1      27.218 -12.271   0.297  0.00  0.00     0.179 C 
BRANCH  29  30
ATOM     30  C   UNL d   1      26.546 -13.355   1.135  0.00  0.00     0.031 C 
BRANCH  30  31
ATOM     31  C   UNL d   1      27.587 -14.261   1.790  0.00  0.00     0.041 C 
BRANCH  31  32
ATOM     32  C   UNL d   1      27.936 -13.855   3.199  0.00  0.00    -0.058 A 
ATOM     33  C   UNL d   1      28.050 -14.824   4.204  0.00  0.00     0.007 A 
ATOM     34  C   UNL d   1      28.156 -14.441   5.540  0.00  0.00     0.001 A 
ATOM     35  C   UNL d   1      28.248 -13.091   5.875  0.00  0.00     0.000 A 
ATOM     36  C   UNL d   1      28.208 -12.121   4.875  0.00  0.00     0.001 A 
ATOM     37  C   UNL d   1      28.044 -12.500   3.544  0.00  0.00     0.007 A 
ENDBRANCH  31  32
ENDBRANCH  30  31
ENDBRANCH  29  30
ENDBRANCH  28  29
ENDBRANCH  26  28
ENDBRANCH  25  26
ENDBRANCH  24  25
ENDBRANCH  23  24
ENDBRANCH   2  23
TORSDOF 14
ENDMDL
MODEL 7
REMARK VINA RESULT:    -6.395      2.400      7.363
REMARK INTER + INTRA:         -16.755
REMARK INTER:                 -10.571
REMARK INTRA:                  -6.184
REMARK CONF_INDEPENDENT:        4.176
REMARK UNBOUND:                -6.184
REMARK  14 active torsions:
REMARK  status: ('A' for Active; 'I' for Inactive)
REMARK    1  A    between atoms: C_2  and  C_3 
REMARK       I    between atoms: C_2  and  N_18 
REMARK    2  A    between atoms: C_3  and  C_4 
REMARK    3  A    between atoms: C_4  and  C_5 
REMARK    4  A    between atoms: C_5  and  C_6 
REMARK    5  A    between atoms: C_6  and  O_8 
REMARK    6  A    between atoms: O_8  and  C_9 
REMARK    7  A    between atoms: C_9  and  C_10 
REMARK    8  A    between atoms: C_10  and  C_11 
REMARK    9  A    between atoms: C_11  and  C_12 
REMARK   10  A    between atoms: N_18  and  N_19 
REMARK       I    between atoms: N_19  and  C_20 
REMARK   11  A    between atoms: C_20  and  C_22 
REMARK   12  A    between atoms: C_22  and  O_23 
REMARK   13  A    between atoms: O_23  and  C_24 
REMARK   14  A    between atoms: C_29  and  C_30 
ROOT
ATOM      1  O   UNL d   1      26.067 -10.027  -6.090  0.00  0.00    -0.272 OA
ATOM      2  C   UNL d   1      26.551 -11.103  -5.738  0.00  0.00     0.236 C 
ATOM      3  N   UNL d   1      25.763 -12.016  -5.077  0.00  0.00    -0.267 N 
ATOM      4  H   UNL d   1      24.784 -11.764  -4.922  0.00  0.00     0.190 HD
ENDROOT
BRANCH   3   5
ATOM      5  N   UNL d   1      26.136 -13.313  -4.689  0.00  0.00    -0.266 N 
ATOM      6  C   UNL d   1      25.120 -14.192  -4.300  0.00  0.00     0.260 C 
ATOM      7  O   UNL d   1      23.939 -13.851  -4.274  0.00  0.00    -0.269 OA
ATOM      8  H   UNL d   1      27.118 -13.544  -4.601  0.00  0.00     0.190 HD
BRANCH   6   9
ATOM      9  C   UNL d   1      25.625 -15.585  -3.884  0.00  0.00     0.280 C 
BRANCH   9  10
ATOM     10  O   UNL d   1      26.859 -15.530  -3.166  0.00  0.00    -0.341 OA
BRANCH  10  11
ATOM     11  C   UNL d   1      26.934 -14.834  -1.981  0.00  0.00     0.080 A 
ATOM     12  C   UNL d   1      27.835 -13.756  -1.985  0.00  0.00     0.037 A 
ATOM     13  C   UNL d   1      28.124 -13.043  -0.812  0.00  0.00     0.003 A 
ATOM     14  C   UNL d   1      27.479 -13.360   0.375  0.00  0.00     0.001 A 
ATOM     15  C   UNL d   1      26.587 -14.425   0.395  0.00  0.00     0.015 A 
ATOM     16  C   UNL d   1      26.315 -15.185  -0.767  0.00  0.00     0.007 A 
BRANCH  16  17
ATOM     17  C   UNL d   1      25.443 -16.341  -0.614  0.00  0.00    -0.023 A 
ATOM     18  C   UNL d   1      25.901 -17.480   0.065  0.00  0.00     0.012 A 
ATOM     19  C   UNL d   1      25.062 -18.576   0.226  0.00  0.00     0.001 A 
ATOM     20  C   UNL d   1      23.731 -18.499  -0.188  0.00  0.00     0.000 A 
ATOM     21  C   UNL d   1      23.251 -17.352  -0.819  0.00  0.00     0.001 A 
ATOM     22  C   UNL d   1      24.115 -16.294  -1.073  0.00  0.00     0.012 A 
ENDBRANCH  16  17
ENDBRANCH  10  11
ENDBRANCH   9  10
ENDBRANCH   6   9
ENDBRANCH   3   5
BRANCH   2  23
ATOM     23  C   UNL d   1      28.010 -11.463  -5.998  0.00  0.00     0.105 C 
BRANCH  23  24
ATOM     24  C   UNL d   1      28.171 -12.338  -7.251  0.00  0.00     0.019 C 
BRANCH  24  25
ATOM     25  C   UNL d   1      29.021 -13.597  -7.022  0.00  0.00     0.111 C 
BRANCH  25  26
ATOM     26  C   UNL d   1      28.397 -14.483  -5.957  0.00  0.00     0.258 C 
ATOM     27  O   UNL d   1      27.413 -15.200  -6.139  0.00  0.00    -0.265 OA
BRANCH  26  28
ATOM     28  O   UNL d   1      29.063 -14.390  -4.769  0.00  0.00    -0.321 OA
BRANCH  28  29
ATOM     29  C   UNL d   1      30.492 -14.514  -4.901  0.00  0.00     0.179 C 
BRANCH  29  30
ATOM     30  C   UNL d   1      30.894 -15.985  -4.843  0.00  0.00     0.031 C 
BRANCH  30  31
ATOM     31  C   UNL d   1      29.902 -16.788  -4.005  0.00  0.00     0.041 C 
BRANCH  31  32
ATOM     32  C   UNL d   1      30.045 -16.560  -2.522  0.00  0.00    -0.058 A 
ATOM     33  C   UNL d   1      29.202 -17.224  -1.622  0.00  0.00     0.007 A 
ATOM     34  C   UNL d   1      29.182 -16.858  -0.277  0.00  0.00     0.001 A 
ATOM     35  C   UNL d   1      30.073 -15.896   0.199  0.00  0.00     0.000 A 
ATOM     36  C   UNL d   1      30.966 -15.281  -0.676  0.00  0.00     0.001 A 
ATOM     37  C   UNL d   1      30.947 -15.605  -2.032  0.00  0.00     0.007 A 
ENDBRANCH  31  32
ENDBRANCH  30  31
ENDBRANCH  29  30
ENDBRANCH  28  29
ENDBRANCH  26  28
ENDBRANCH  25  26
ENDBRANCH  24  25
ENDBRANCH  23  24
ENDBRANCH   2  23
TORSDOF 14
ENDMDL
MODEL 8
REMARK VINA RESULT:    -5.792      3.280      7.095
REMARK INTER + INTRA:         -16.110
REMARK INTER:                  -9.969
REMARK INTRA:                  -6.142
REMARK CONF_INDEPENDENT:        4.176
REMARK UNBOUND:                -6.142
REMARK  14 active torsions:
REMARK  status: ('A' for Active; 'I' for Inactive)
REMARK    1  A    between atoms: C_2  and  C_3 
REMARK       I    between atoms: C_2  and  N_18 
REMARK    2  A    between atoms: C_3  and  C_4 
REMARK    3  A    between atoms: C_4  and  C_5 
REMARK    4  A    between atoms: C_5  and  C_6 
REMARK    5  A    between atoms: C_6  and  O_8 
REMARK    6  A    between atoms: O_8  and  C_9 
REMARK    7  A    between atoms: C_9  and  C_10 
REMARK    8  A    between atoms: C_10  and  C_11 
REMARK    9  A    between atoms: C_11  and  C_12 
REMARK   10  A    between atoms: N_18  and  N_19 
REMARK       I    between atoms: N_19  and  C_20 
REMARK   11  A    between atoms: C_20  and  C_22 
REMARK   12  A    between atoms: C_22  and  O_23 
REMARK   13  A    between atoms: O_23  and  C_24 
REMARK   14  A    between atoms: C_29  and  C_30 
ROOT
ATOM      1  O   UNL d   1      25.582  -9.588  -3.332  0.00  0.00    -0.272 OA
ATOM      2  C   UNL d   1      26.136 -10.674  -3.166  0.00  0.00     0.236 C 
ATOM      3  N   UNL d   1      25.428 -11.834  -3.376  0.00  0.00    -0.267 N 
ATOM      4  H   UNL d   1      24.458 -11.742  -3.687  0.00  0.00     0.190 HD
ENDROOT
BRANCH   3   5
ATOM      5  N   UNL d   1      25.935 -13.142  -3.314  0.00  0.00    -0.266 N 
ATOM      6  C   UNL d   1      25.139 -14.172  -3.828  0.00  0.00     0.260 C 
ATOM      7  O   UNL d   1      24.024 -13.959  -4.302  0.00  0.00    -0.269 OA
ATOM      8  H   UNL d   1      26.798 -13.320  -2.816  0.00  0.00     0.190 HD
BRANCH   6   9
ATOM      9  C   UNL d   1      25.773 -15.570  -3.709  0.00  0.00     0.280 C 
BRANCH   9  10
ATOM     10  O   UNL d   1      26.715 -15.655  -2.639  0.00  0.00    -0.341 OA
BRANCH  10  11
ATOM     11  C   UNL d   1      26.496 -16.527  -1.596  0.00  0.00     0.080 A 
ATOM     12  C   UNL d   1      25.152 -16.883  -1.398  0.00  0.00     0.037 A 
ATOM     13  C   UNL d   1      24.756 -17.649  -0.291  0.00  0.00     0.003 A 
ATOM     14  C   UNL d   1      25.704 -18.118   0.609  0.00  0.00     0.001 A 
ATOM     15  C   UNL d   1      27.037 -17.771   0.427  0.00  0.00     0.015 A 
ATOM     16  C   UNL d   1      27.450 -16.963  -0.658  0.00  0.00     0.007 A 
BRANCH  16  17
ATOM     17  C   UNL d   1      28.853 -16.575  -0.700  0.00  0.00    -0.023 A 
ATOM     18  C   UNL d   1      29.443 -15.951   0.409  0.00  0.00     0.012 A 
ATOM     19  C   UNL d   1      30.786 -15.598   0.376  0.00  0.00     0.001 A 
ATOM     20  C   UNL d   1      31.574 -15.967  -0.717  0.00  0.00     0.000 A 
ATOM     21  C   UNL d   1      31.010 -16.632  -1.804  0.00  0.00     0.001 A 
ATOM     22  C   UNL d   1      29.645 -16.895  -1.816  0.00  0.00     0.012 A 
ENDBRANCH  16  17
ENDBRANCH  10  11
ENDBRANCH   9  10
ENDBRANCH   6   9
ENDBRANCH   3   5
BRANCH   2  23
ATOM     23  C   UNL d   1      27.590 -10.786  -2.719  0.00  0.00     0.105 C 
BRANCH  23  24
ATOM     24  C   UNL d   1      27.767 -10.407  -1.241  0.00  0.00     0.019 C 
BRANCH  24  25
ATOM     25  C   UNL d   1      28.223 -11.575  -0.353  0.00  0.00     0.111 C 
BRANCH  25  26
ATOM     26  C   UNL d   1      28.014 -12.903  -1.059  0.00  0.00     0.258 C 
ATOM     27  O   UNL d   1      28.772 -13.363  -1.914  0.00  0.00    -0.265 OA
BRANCH  26  28
ATOM     28  O   UNL d   1      26.881 -13.532  -0.629  0.00  0.00    -0.321 OA
BRANCH  28  29
ATOM     29  C   UNL d   1      26.965 -13.998   0.731  0.00  0.00     0.179 C 
BRANCH  29  30
ATOM     30  C   UNL d   1      26.174 -13.070   1.649  0.00  0.00     0.031 C 
BRANCH  30  31
ATOM     31  C   UNL d   1      27.090 -12.413   2.679  0.00  0.00     0.041 C 
BRANCH  31  32
ATOM     32  C   UNL d   1      27.924 -13.397   3.458  0.00  0.00    -0.058 A 
ATOM     33  C   UNL d   1      27.408 -14.000   4.612  0.00  0.00     0.007 A 
ATOM     34  C   UNL d   1      28.241 -14.738   5.452  0.00  0.00     0.001 A 
ATOM     35  C   UNL d   1      29.570 -14.963   5.095  0.00  0.00     0.000 A 
ATOM     36  C   UNL d   1      30.073 -14.428   3.912  0.00  0.00     0.001 A 
ATOM     37  C   UNL d   1      29.257 -13.642   3.100  0.00  0.00     0.007 A 
ENDBRANCH  31  32
ENDBRANCH  30  31
ENDBRANCH  29  30
ENDBRANCH  28  29
ENDBRANCH  26  28
ENDBRANCH  25  26
ENDBRANCH  24  25
ENDBRANCH  23  24
ENDBRANCH   2  23
TORSDOF 14
ENDMDL
MODEL 9
REMARK VINA RESULT:    -5.687      2.945      7.360
REMARK INTER + INTRA:         -15.849
REMARK INTER:                  -9.864
REMARK INTRA:                  -5.985
REMARK CONF_INDEPENDENT:        4.176
REMARK UNBOUND:                -5.985
REMARK  14 active torsions:
REMARK  status: ('A' for Active; 'I' for Inactive)
REMARK    1  A    between atoms: C_2  and  C_3 
REMARK       I    between atoms: C_2  and  N_18 
REMARK    2  A    between atoms: C_3  and  C_4 
REMARK    3  A    between atoms: C_4  and  C_5 
REMARK    4  A    between atoms: C_5  and  C_6 
REMARK    5  A    between atoms: C_6  and  O_8 
REMARK    6  A    between atoms: O_8  and  C_9 
REMARK    7  A    between atoms: C_9  and  C_10 
REMARK    8  A    between atoms: C_10  and  C_11 
REMARK    9  A    between atoms: C_11  and  C_12 
REMARK   10  A    between atoms: N_18  and  N_19 
REMARK       I    between atoms: N_19  and  C_20 
REMARK   11  A    between atoms: C_20  and  C_22 
REMARK   12  A    between atoms: C_22  and  O_23 
REMARK   13  A    between atoms: O_23  and  C_24 
REMARK   14  A    between atoms: C_29  and  C_30 
ROOT
ATOM      1  O   UNL d   1      31.200 -13.277  -4.311  0.00  0.00    -0.272 OA
ATOM      2  C   UNL d   1      30.128 -13.374  -3.715  0.00  0.00     0.236 C 
ATOM      3  N   UNL d   1      29.093 -14.071  -4.293  0.00  0.00    -0.267 N 
ATOM      4  H   UNL d   1      29.270 -14.505  -5.202  0.00  0.00     0.190 HD
ENDROOT
BRANCH   3   5
ATOM      5  N   UNL d   1      27.845 -14.346  -3.711  0.00  0.00    -0.266 N 
ATOM      6  C   UNL d   1      26.868 -14.940  -4.517  0.00  0.00     0.260 C 
ATOM      7  O   UNL d   1      27.072 -15.200  -5.702  0.00  0.00    -0.269 OA
ATOM      8  H   UNL d   1      27.650 -14.020  -2.772  0.00  0.00     0.190 HD
BRANCH   6   9
ATOM      9  C   UNL d   1      25.533 -15.195  -3.795  0.00  0.00     0.280 C 
BRANCH   9  10
ATOM     10  O   UNL d   1      25.646 -15.081  -2.376  0.00  0.00    -0.341 OA
BRANCH  10  11
ATOM     11  C   UNL d   1      25.381 -16.169  -1.575  0.00  0.00     0.080 A 
ATOM     12  C   UNL d   1      24.017 -16.439  -1.378  0.00  0.00     0.037 A 
ATOM     13  C   UNL d   1      23.592 -17.426  -0.477  0.00  0.00     0.003 A 
ATOM     14  C   UNL d   1      24.523 -18.197   0.206  0.00  0.00     0.001 A 
ATOM     15  C   UNL d   1      25.876 -17.939   0.024  0.00  0.00     0.015 A 
ATOM     16  C   UNL d   1      26.324 -16.919  -0.847  0.00  0.00     0.007 A 
BRANCH  16  17
ATOM     17  C   UNL d   1      27.757 -16.665  -0.889  0.00  0.00    -0.023 A 
ATOM     18  C   UNL d   1      28.441 -16.697  -2.114  0.00  0.00     0.012 A 
ATOM     19  C   UNL d   1      29.805 -16.436  -2.155  0.00  0.00     0.001 A 
ATOM     20  C   UNL d   1      30.471 -16.032  -0.996  0.00  0.00     0.000 A 
ATOM     21  C   UNL d   1      29.791 -15.948   0.218  0.00  0.00     0.001 A 
ATOM     22  C   UNL d   1      28.449 -16.307   0.281  0.00  0.00     0.012 A 
ENDBRANCH  16  17
ENDBRANCH  10  11
ENDBRANCH   9  10
ENDBRANCH   6   9
ENDBRANCH   3   5
BRANCH   2  23
ATOM     23  C   UNL d   1      29.895 -12.734  -2.351  0.00  0.00     0.105 C 
BRANCH  23  24
ATOM     24  C   UNL d   1      29.364 -11.297  -2.474  0.00  0.00     0.019 C 
BRANCH  24  25
ATOM     25  C   UNL d   1      28.091 -11.034  -1.654  0.00  0.00     0.111 C 
BRANCH  25  26
ATOM     26  C   UNL d   1      27.167 -12.239  -1.692  0.00  0.00     0.258 C 
ATOM     27  O   UNL d   1      26.236 -12.377  -2.485  0.00  0.00    -0.265 OA
BRANCH  26  28
ATOM     28  O   UNL d   1      27.496 -13.158  -0.737  0.00  0.00    -0.321 OA
BRANCH  28  29
ATOM     29  C   UNL d   1      26.798 -12.965   0.509  0.00  0.00     0.179 C 
BRANCH  29  30
ATOM     30  C   UNL d   1      27.557 -13.650   1.642  0.00  0.00     0.031 C 
BRANCH  30  31
ATOM     31  C   UNL d   1      27.031 -13.195   3.002  0.00  0.00     0.041 C 
BRANCH  31  32
ATOM     32  C   UNL d   1      27.969 -13.500   4.141  0.00  0.00    -0.058 A 
ATOM     33  C   UNL d   1      28.989 -14.446   3.981  0.00  0.00     0.007 A 
ATOM     34  C   UNL d   1      29.716 -14.889   5.085  0.00  0.00     0.001 A 
ATOM     35  C   UNL d   1      29.500 -14.319   6.339  0.00  0.00     0.000 A 
ATOM     36  C   UNL d   1      28.537 -13.324   6.495  0.00  0.00     0.001 A 
ATOM     37  C   UNL d   1      27.769 -12.922   5.403  0.00  0.00     0.007 A 
ENDBRANCH  31  32
ENDBRANCH  30  31
ENDBRANCH  29  30
ENDBRANCH  28  29
ENDBRANCH  26  28
ENDBRANCH  25  26
ENDBRANCH  24  25
ENDBRANCH  23  24
ENDBRANCH   2  23
TORSDOF 14
ENDMDL
