MODEL 1
REMARK VINA RESULT:    -9.928      0.000      0.000
REMARK INTER + INTRA:         -12.441
REMARK INTER:                 -11.718
REMARK INTRA:                  -0.723
REMARK CONF_INDEPENDENT:        1.790
REMARK UNBOUND:                -0.723
REMARK  6 active torsions:
REMARK  status: ('A' for Active; 'I' for Inactive)
REMARK    1  A    between atoms: C_6  and  N_7 
REMARK    2  A    between atoms: C_14  and  C_15 
REMARK    3  A    between atoms: C_15  and  C_16 
REMARK    4  A    between atoms: C_16  and  N_17 
REMARK    5  A    between atoms: N_20  and  C_21 
REMARK    6  A    between atoms: C_24  and  N_25 
ROOT
ATOM      1  C   UNL d   1      29.389 -16.087   0.190  0.00  0.00     0.238 C 
ENDROOT
BRANCH   1   2
ATOM      2  C   UNL d   1      28.412 -15.502  -0.847  0.00  0.00     0.070 C 
BRANCH   2   3
ATOM      3  C   UNL d   1      26.947 -15.601  -0.406  0.00  0.00     0.222 C 
ATOM      4  O   UNL d   1      26.654 -16.986  -0.301  0.00  0.00    -0.334 OA
ATOM      5  C   UNL d   1      25.331 -17.285  -0.453  0.00  0.00     0.096 A 
ATOM      6  C   UNL d   1      24.931 -18.542  -0.002  0.00  0.00     0.041 A 
ATOM      7  C   UNL d   1      24.420 -16.434  -1.089  0.00  0.00     0.070 A 
ATOM      8  C   UNL d   1      23.611 -18.953  -0.178  0.00  0.00     0.039 A 
ATOM      9  C   UNL d   1      22.698 -18.094  -0.810  0.00  0.00     0.105 A 
ATOM     10  C   UNL d   1      23.098 -16.831  -1.273  0.00  0.00     0.068 A 
ATOM     11  N   UNL d   1      24.841 -15.195  -1.576  0.00  0.00    -0.322 N 
ATOM     12  C   UNL d   1      26.099 -14.723  -1.334  0.00  0.00     0.251 C 
ATOM     13  H   UNL d   1      24.229 -14.613  -2.139  0.00  0.00     0.169 HD
ATOM     14  O   UNL d   1      26.513 -13.679  -1.819  0.00  0.00    -0.270 OA
BRANCH   9  15
ATOM     15  N   UNL d   1      21.309 -18.527  -1.001  0.00  0.00    -0.116 N 
ATOM     16  O   UNL d   1      20.470 -17.661  -1.269  0.00  0.00    -0.532 OA
ATOM     17  O   UNL d   1      21.068 -19.737  -0.870  0.00  0.00    -0.532 OA
ENDBRANCH   9  15
ENDBRANCH   2   3
ENDBRANCH   1   2
BRANCH   1  18
ATOM     18  N   UNL d   1      29.496 -15.184   1.428  0.00  0.00    -0.068 N 
ATOM     19  C   UNL d   1      30.195 -13.844   1.132  0.00  0.00     0.254 C 
ATOM     20  C   UNL d   1      30.240 -12.918   2.357  0.00  0.00     0.150 C 
ATOM     21  N   UNL d   1      28.910 -12.716   2.925  0.00  0.00    -0.378 N 
ATOM     22  C   UNL d   1      28.232 -13.962   3.318  0.00  0.00     0.150 C 
ATOM     23  C   UNL d   1      28.116 -14.939   2.109  0.00  0.00     0.254 C 
ATOM     24  H   UNL d   1      30.075 -15.697   2.109  0.00  0.00     0.280 HD
BRANCH  21  25
ATOM     25  C   UNL d   1      28.188 -11.549   2.731  0.00  0.00     0.030 A 
ATOM     26  C   UNL d   1      27.620 -10.890   3.836  0.00  0.00     0.032 A 
ATOM     27  C   UNL d   1      26.850  -9.720   3.701  0.00  0.00     0.038 A 
ATOM     28  C   UNL d   1      26.685  -9.143   2.440  0.00  0.00     0.103 A 
ATOM     29  C   UNL d   1      27.241  -9.769   1.320  0.00  0.00     0.038 A 
ATOM     30  C   UNL d   1      27.991 -10.954   1.474  0.00  0.00     0.032 A 
BRANCH  28  31
ATOM     31  N   UNL d   1      25.987  -7.854   2.302  0.00  0.00    -0.116 N 
ATOM     32  O   UNL d   1      26.285  -6.949   3.093  0.00  0.00    -0.532 OA
ATOM     33  O   UNL d   1      25.154  -7.748   1.389  0.00  0.00    -0.532 OA
ENDBRANCH  28  31
ENDBRANCH  21  25
ENDBRANCH   1  18
TORSDOF 6
ENDMDL
MODEL 2
REMARK VINA RESULT:    -9.033      1.633      8.716
REMARK INTER + INTRA:         -12.579
REMARK INTER:                 -10.823
REMARK INTRA:                  -1.756
REMARK CONF_INDEPENDENT:        1.790
REMARK UNBOUND:                -1.756
REMARK  6 active torsions:
REMARK  status: ('A' for Active; 'I' for Inactive)
REMARK    1  A    between atoms: C_6  and  N_7 
REMARK    2  A    between atoms: C_14  and  C_15 
REMARK    3  A    between atoms: C_15  and  C_16 
REMARK    4  A    between atoms: C_16  and  N_17 
REMARK    5  A    between atoms: N_20  and  C_21 
REMARK    6  A    between atoms: C_24  and  N_25 
ROOT
ATOM      1  C   UNL d   1      28.056 -14.855   2.344  0.00  0.00     0.238 C 
ENDROOT
BRANCH   1   2
ATOM      2  C   UNL d   1      29.447 -14.193   2.333  0.00  0.00     0.070 C 
BRANCH   2   3
ATOM      3  C   UNL d   1      29.382 -12.678   2.103  0.00  0.00     0.222 C 
ATOM      4  O   UNL d   1      28.656 -12.139   3.197  0.00  0.00    -0.334 OA
ATOM      5  C   UNL d   1      28.041 -10.952   2.922  0.00  0.00     0.096 A 
ATOM      6  C   UNL d   1      27.636 -10.201   4.024  0.00  0.00     0.041 A 
ATOM      7  C   UNL d   1      27.751 -10.521   1.621  0.00  0.00     0.070 A 
ATOM      8  C   UNL d   1      26.943  -9.007   3.831  0.00  0.00     0.039 A 
ATOM      9  C   UNL d   1      26.660  -8.575   2.527  0.00  0.00     0.105 A 
ATOM     10  C   UNL d   1      27.059  -9.331   1.414  0.00  0.00     0.068 A 
ATOM     11  N   UNL d   1      28.124 -11.302   0.525  0.00  0.00    -0.322 N 
ATOM     12  C   UNL d   1      28.887 -12.424   0.674  0.00  0.00     0.251 C 
ATOM     13  H   UNL d   1      27.825 -11.067  -0.415  0.00  0.00     0.169 HD
ATOM     14  O   UNL d   1      29.156 -13.165  -0.261  0.00  0.00    -0.270 OA
BRANCH   9  15
ATOM     15  N   UNL d   1      25.926  -7.321   2.323  0.00  0.00    -0.116 N 
ATOM     16  O   UNL d   1      25.157  -7.256   1.358  0.00  0.00    -0.532 OA
ATOM     17  O   UNL d   1      26.133  -6.403   3.131  0.00  0.00    -0.532 OA
ENDBRANCH   9  15
ENDBRANCH   2   3
ENDBRANCH   1   2
BRANCH   1  18
ATOM     18  N   UNL d   1      27.666 -15.359   0.947  0.00  0.00    -0.068 N 
ATOM     19  C   UNL d   1      27.436 -16.881   0.902  0.00  0.00     0.254 C 
ATOM     20  C   UNL d   1      26.981 -17.370  -0.481  0.00  0.00     0.150 C 
ATOM     21  N   UNL d   1      25.809 -16.636  -0.951  0.00  0.00    -0.378 N 
ATOM     22  C   UNL d   1      26.005 -15.178  -1.021  0.00  0.00     0.150 C 
ATOM     23  C   UNL d   1      26.433 -14.605   0.364  0.00  0.00     0.254 C 
ATOM     24  H   UNL d   1      28.463 -15.144   0.330  0.00  0.00     0.280 HD
BRANCH  21  25
ATOM     25  C   UNL d   1      24.533 -17.176  -0.925  0.00  0.00     0.030 A 
ATOM     26  C   UNL d   1      23.415 -16.324  -0.948  0.00  0.00     0.032 A 
ATOM     27  C   UNL d   1      22.096 -16.809  -0.893  0.00  0.00     0.038 A 
ATOM     28  C   UNL d   1      21.867 -18.187  -0.878  0.00  0.00     0.103 A 
ATOM     29  C   UNL d   1      22.956 -19.064  -0.861  0.00  0.00     0.038 A 
ATOM     30  C   UNL d   1      24.272 -18.556  -0.894  0.00  0.00     0.032 A 
BRANCH  28  31
ATOM     31  N   UNL d   1      20.492 -18.709  -0.945  0.00  0.00    -0.116 N 
ATOM     32  O   UNL d   1      20.345 -19.936  -1.031  0.00  0.00    -0.532 OA
ATOM     33  O   UNL d   1      19.564 -17.888  -0.894  0.00  0.00    -0.532 OA
ENDBRANCH  28  31
ENDBRANCH  21  25
ENDBRANCH   1  18
TORSDOF 6
ENDMDL
MODEL 3
REMARK VINA RESULT:    -8.728      3.730      9.456
REMARK INTER + INTRA:         -11.287
REMARK INTER:                 -10.518
REMARK INTRA:                  -0.769
REMARK CONF_INDEPENDENT:        1.790
REMARK UNBOUND:                -0.769
REMARK  6 active torsions:
REMARK  status: ('A' for Active; 'I' for Inactive)
REMARK    1  A    between atoms: C_6  and  N_7 
REMARK    2  A    between atoms: C_14  and  C_15 
REMARK    3  A    between atoms: C_15  and  C_16 
REMARK    4  A    between atoms: C_16  and  N_17 
REMARK    5  A    between atoms: N_20  and  C_21 
REMARK    6  A    between atoms: C_24  and  N_25 
ROOT
ATOM      1  C   UNL d   1      27.961 -14.546   2.368  0.00  0.00     0.238 C 
ENDROOT
BRANCH   1   2
ATOM      2  C   UNL d   1      28.312 -13.048   2.286  0.00  0.00     0.070 C 
BRANCH   2   3
ATOM      3  C   UNL d   1      28.794 -12.477   3.625  0.00  0.00     0.222 C 
ATOM      4  O   UNL d   1      29.059 -13.591   4.463  0.00  0.00    -0.334 OA
ATOM      5  C   UNL d   1      28.971 -13.314   5.796  0.00  0.00     0.096 A 
ATOM      6  C   UNL d   1      29.567 -14.235   6.655  0.00  0.00     0.041 A 
ATOM      7  C   UNL d   1      28.264 -12.218   6.307  0.00  0.00     0.070 A 
ATOM      8  C   UNL d   1      29.467 -14.062   8.034  0.00  0.00     0.039 A 
ATOM      9  C   UNL d   1      28.764 -12.960   8.543  0.00  0.00     0.105 A 
ATOM     10  C   UNL d   1      28.155 -12.033   7.683  0.00  0.00     0.068 A 
ATOM     11  N   UNL d   1      27.633 -11.325   5.439  0.00  0.00    -0.322 N 
ATOM     12  C   UNL d   1      27.793 -11.410   4.086  0.00  0.00     0.251 C 
ATOM     13  H   UNL d   1      27.023 -10.593   5.788  0.00  0.00     0.169 HD
ATOM     14  O   UNL d   1      27.187 -10.689   3.306  0.00  0.00    -0.270 OA
BRANCH   9  15
ATOM     15  N   UNL d   1      28.653 -12.779   9.995  0.00  0.00    -0.116 N 
ATOM     16  O   UNL d   1      29.674 -12.453  10.612  0.00  0.00    -0.532 OA
ATOM     17  O   UNL d   1      27.542 -12.975  10.510  0.00  0.00    -0.532 OA
ENDBRANCH   9  15
ENDBRANCH   2   3
ENDBRANCH   1   2
BRANCH   1  18
ATOM     18  N   UNL d   1      27.584 -15.107   0.989  0.00  0.00    -0.068 N 
ATOM     19  C   UNL d   1      27.468 -16.643   0.979  0.00  0.00     0.254 C 
ATOM     20  C   UNL d   1      27.027 -17.194  -0.384  0.00  0.00     0.150 C 
ATOM     21  N   UNL d   1      25.794 -16.560  -0.846  0.00  0.00    -0.378 N 
ATOM     22  C   UNL d   1      25.879 -15.093  -0.950  0.00  0.00     0.150 C 
ATOM     23  C   UNL d   1      26.288 -14.460   0.415  0.00  0.00     0.254 C 
ATOM     24  H   UNL d   1      28.351 -14.846   0.353  0.00  0.00     0.280 HD
BRANCH  21  25
ATOM     25  C   UNL d   1      24.564 -17.193  -0.784  0.00  0.00     0.030 A 
ATOM     26  C   UNL d   1      24.504 -18.573  -0.519  0.00  0.00     0.032 A 
ATOM     27  C   UNL d   1      23.288 -19.280  -0.475  0.00  0.00     0.038 A 
ATOM     28  C   UNL d   1      22.084 -18.592  -0.635  0.00  0.00     0.103 A 
ATOM     29  C   UNL d   1      22.105 -17.218  -0.895  0.00  0.00     0.038 A 
ATOM     30  C   UNL d   1      23.337 -16.533  -0.958  0.00  0.00     0.032 A 
BRANCH  28  31
ATOM     31  N   UNL d   1      20.801 -19.297  -0.468  0.00  0.00    -0.116 N 
ATOM     32  O   UNL d   1      20.232 -19.707  -1.489  0.00  0.00    -0.532 OA
ATOM     33  O   UNL d   1      20.378 -19.453   0.687  0.00  0.00    -0.532 OA
ENDBRANCH  28  31
ENDBRANCH  21  25
ENDBRANCH   1  18
TORSDOF 6
ENDMDL
MODEL 4
REMARK VINA RESULT:    -8.667      4.817      7.873
REMARK INTER + INTRA:         -11.395
REMARK INTER:                 -10.457
REMARK INTRA:                  -0.938
REMARK CONF_INDEPENDENT:        1.790
REMARK UNBOUND:                -0.938
REMARK  6 active torsions:
REMARK  status: ('A' for Active; 'I' for Inactive)
REMARK    1  A    between atoms: C_6  and  N_7 
REMARK    2  A    between atoms: C_14  and  C_15 
REMARK    3  A    between atoms: C_15  and  C_16 
REMARK    4  A    between atoms: C_16  and  N_17 
REMARK    5  A    between atoms: N_20  and  C_21 
REMARK    6  A    between atoms: C_24  and  N_25 
ROOT
ATOM      1  C   UNL d   1      30.065 -17.876  -1.548  0.00  0.00     0.238 C 
ENDROOT
BRANCH   1   2
ATOM      2  C   UNL d   1      29.823 -16.618  -0.691  0.00  0.00     0.070 C 
BRANCH   2   3
ATOM      3  C   UNL d   1      28.337 -16.266  -0.560  0.00  0.00     0.222 C 
ATOM      4  O   UNL d   1      27.703 -17.406  -0.001  0.00  0.00    -0.334 OA
ATOM      5  C   UNL d   1      26.374 -17.503  -0.300  0.00  0.00     0.096 A 
ATOM      6  C   UNL d   1      25.628 -18.366   0.500  0.00  0.00     0.041 A 
ATOM      7  C   UNL d   1      25.782 -16.846  -1.386  0.00  0.00     0.070 A 
ATOM      8  C   UNL d   1      24.278 -18.573   0.222  0.00  0.00     0.039 A 
ATOM      9  C   UNL d   1      23.685 -17.908  -0.862  0.00  0.00     0.105 A 
ATOM     10  C   UNL d   1      24.435 -17.044  -1.675  0.00  0.00     0.068 A 
ATOM     11  N   UNL d   1      26.549 -16.017  -2.206  0.00  0.00    -0.322 N 
ATOM     12  C   UNL d   1      27.847 -15.717  -1.906  0.00  0.00     0.251 C 
ATOM     13  H   UNL d   1      26.169 -15.624  -3.061  0.00  0.00     0.169 HD
ATOM     14  O   UNL d   1      28.559 -15.060  -2.652  0.00  0.00    -0.270 OA
BRANCH   9  15
ATOM     15  N   UNL d   1      22.265 -18.129  -1.158  0.00  0.00    -0.116 N 
ATOM     16  O   UNL d   1      21.474 -17.220  -0.884  0.00  0.00    -0.532 OA
ATOM     17  O   UNL d   1      21.951 -19.220  -1.657  0.00  0.00    -0.532 OA
ENDBRANCH   9  15
ENDBRANCH   2   3
ENDBRANCH   1   2
BRANCH   1  18
ATOM     18  N   UNL d   1      31.228 -18.713  -0.996  0.00  0.00    -0.068 N 
ATOM     19  C   UNL d   1      31.988 -18.006   0.141  0.00  0.00     0.254 C 
ATOM     20  C   UNL d   1      33.107 -18.874   0.734  0.00  0.00     0.150 C 
ATOM     21  N   UNL d   1      32.607 -20.180   1.154  0.00  0.00    -0.378 N 
ATOM     22  C   UNL d   1      31.954 -20.945   0.078  0.00  0.00     0.150 C 
ATOM     23  C   UNL d   1      30.778 -20.136  -0.548  0.00  0.00     0.254 C 
ATOM     24  H   UNL d   1      31.885 -18.844  -1.779  0.00  0.00     0.280 HD
BRANCH  21  25
ATOM     25  C   UNL d   1      32.379 -20.497   2.484  0.00  0.00     0.030 A 
ATOM     26  C   UNL d   1      31.215 -21.200   2.843  0.00  0.00     0.032 A 
ATOM     27  C   UNL d   1      30.912 -21.524   4.178  0.00  0.00     0.038 A 
ATOM     28  C   UNL d   1      31.818 -21.200   5.190  0.00  0.00     0.103 A 
ATOM     29  C   UNL d   1      32.989 -20.506   4.868  0.00  0.00     0.038 A 
ATOM     30  C   UNL d   1      33.263 -20.170   3.526  0.00  0.00     0.032 A 
BRANCH  28  31
ATOM     31  N   UNL d   1      31.571 -21.642   6.573  0.00  0.00    -0.116 N 
ATOM     32  O   UNL d   1      32.539 -22.053   7.227  0.00  0.00    -0.532 OA
ATOM     33  O   UNL d   1      30.412 -21.559   7.003  0.00  0.00    -0.532 OA
ENDBRANCH  28  31
ENDBRANCH  21  25
ENDBRANCH   1  18
TORSDOF 6
ENDMDL
MODEL 5
REMARK VINA RESULT:    -8.655      1.487      2.433
REMARK INTER + INTRA:         -11.300
REMARK INTER:                 -10.445
REMARK INTRA:                  -0.855
REMARK CONF_INDEPENDENT:        1.790
REMARK UNBOUND:                -0.855
REMARK  6 active torsions:
REMARK  status: ('A' for Active; 'I' for Inactive)
REMARK    1  A    between atoms: C_6  and  N_7 
REMARK    2  A    between atoms: C_14  and  C_15 
REMARK    3  A    between atoms: C_15  and  C_16 
REMARK    4  A    between atoms: C_16  and  N_17 
REMARK    5  A    between atoms: N_20  and  C_21 
REMARK    6  A    between atoms: C_24  and  N_25 
ROOT
ATOM      1  C   UNL d   1      30.753 -15.348   0.936  0.00  0.00     0.238 C 
ENDROOT
BRANCH   1   2
ATOM      2  C   UNL d   1      30.147 -14.798  -0.369  0.00  0.00     0.070 C 
BRANCH   2   3
ATOM      3  C   UNL d   1      29.103 -15.740  -0.982  0.00  0.00     0.222 C 
ATOM      4  O   UNL d   1      27.838 -15.140  -0.749  0.00  0.00    -0.334 OA
ATOM      5  C   UNL d   1      26.802 -16.028  -0.723  0.00  0.00     0.096 A 
ATOM      6  C   UNL d   1      25.526 -15.486  -0.869  0.00  0.00     0.041 A 
ATOM      7  C   UNL d   1      26.971 -17.399  -0.488  0.00  0.00     0.070 A 
ATOM      8  C   UNL d   1      24.408 -16.315  -0.789  0.00  0.00     0.039 A 
ATOM      9  C   UNL d   1      24.581 -17.688  -0.560  0.00  0.00     0.105 A 
ATOM     10  C   UNL d   1      25.863 -18.238  -0.406  0.00  0.00     0.068 A 
ATOM     11  N   UNL d   1      28.250 -17.925  -0.301  0.00  0.00    -0.322 N 
ATOM     12  C   UNL d   1      29.369 -17.160  -0.469  0.00  0.00     0.251 C 
ATOM     13  H   UNL d   1      28.387 -18.889  -0.018  0.00  0.00     0.169 HD
ATOM     14  O   UNL d   1      30.493 -17.579  -0.231  0.00  0.00    -0.270 OA
BRANCH   9  15
ATOM     15  N   UNL d   1      23.405 -18.561  -0.471  0.00  0.00    -0.116 N 
ATOM     16  O   UNL d   1      22.781 -18.575   0.595  0.00  0.00    -0.532 OA
ATOM     17  O   UNL d   1      23.120 -19.235  -1.472  0.00  0.00    -0.532 OA
ENDBRANCH   9  15
ENDBRANCH   2   3
ENDBRANCH   1   2
BRANCH   1  18
ATOM     18  N   UNL d   1      29.998 -14.825   2.167  0.00  0.00    -0.068 N 
ATOM     19  C   UNL d   1      30.596 -13.521   2.726  0.00  0.00     0.254 C 
ATOM     20  C   UNL d   1      29.797 -12.966   3.915  0.00  0.00     0.150 C 
ATOM     21  N   UNL d   1      28.383 -12.810   3.585  0.00  0.00    -0.378 N 
ATOM     22  C   UNL d   1      27.733 -14.053   3.136  0.00  0.00     0.150 C 
ATOM     23  C   UNL d   1      28.472 -14.655   1.902  0.00  0.00     0.254 C 
ATOM     24  H   UNL d   1      30.093 -15.550   2.892  0.00  0.00     0.280 HD
BRANCH  21  25
ATOM     25  C   UNL d   1      27.815 -11.577   3.309  0.00  0.00     0.030 A 
ATOM     26  C   UNL d   1      27.607 -11.189   1.974  0.00  0.00     0.032 A 
ATOM     27  C   UNL d   1      27.064  -9.938   1.628  0.00  0.00     0.038 A 
ATOM     28  C   UNL d   1      26.653  -9.062   2.634  0.00  0.00     0.103 A 
ATOM     29  C   UNL d   1      26.840  -9.417   3.973  0.00  0.00     0.038 A 
ATOM     30  C   UNL d   1      27.407 -10.667   4.299  0.00  0.00     0.032 A 
BRANCH  28  31
ATOM     31  N   UNL d   1      25.971  -7.804   2.286  0.00  0.00    -0.116 N 
ATOM     32  O   UNL d   1      26.266  -6.791   2.934  0.00  0.00    -0.532 OA
ATOM     33  O   UNL d   1      25.154  -7.833   1.353  0.00  0.00    -0.532 OA
ENDBRANCH  28  31
ENDBRANCH  21  25
ENDBRANCH   1  18
TORSDOF 6
ENDMDL
MODEL 6
REMARK VINA RESULT:    -8.577      3.011      3.641
REMARK INTER + INTRA:         -11.300
REMARK INTER:                 -10.367
REMARK INTRA:                  -0.932
REMARK CONF_INDEPENDENT:        1.790
REMARK UNBOUND:                -0.932
REMARK  6 active torsions:
REMARK  status: ('A' for Active; 'I' for Inactive)
REMARK    1  A    between atoms: C_6  and  N_7 
REMARK    2  A    between atoms: C_14  and  C_15 
REMARK    3  A    between atoms: C_15  and  C_16 
REMARK    4  A    between atoms: C_16  and  N_17 
REMARK    5  A    between atoms: N_20  and  C_21 
REMARK    6  A    between atoms: C_24  and  N_25 
ROOT
ATOM      1  C   UNL d   1      29.594 -14.373   1.231  0.00  0.00     0.238 C 
ENDROOT
BRANCH   1   2
ATOM      2  C   UNL d   1      28.928 -15.316   0.212  0.00  0.00     0.070 C 
BRANCH   2   3
ATOM      3  C   UNL d   1      27.401 -15.348   0.341  0.00  0.00     0.222 C 
ATOM      4  O   UNL d   1      27.043 -16.710   0.521  0.00  0.00    -0.334 OA
ATOM      5  C   UNL d   1      25.770 -17.004   0.123  0.00  0.00     0.096 A 
ATOM      6  C   UNL d   1      25.240 -18.200   0.603  0.00  0.00     0.041 A 
ATOM      7  C   UNL d   1      25.044 -16.212  -0.774  0.00  0.00     0.070 A 
ATOM      8  C   UNL d   1      23.971 -18.608   0.193  0.00  0.00     0.039 A 
ATOM      9  C   UNL d   1      23.243 -17.808  -0.700  0.00  0.00     0.105 A 
ATOM     10  C   UNL d   1      23.776 -16.607  -1.192  0.00  0.00     0.068 A 
ATOM     11  N   UNL d   1      25.602 -15.037  -1.283  0.00  0.00    -0.322 N 
ATOM     12  C   UNL d   1      26.798 -14.560  -0.829  0.00  0.00     0.251 C 
ATOM     13  H   UNL d   1      25.142 -14.510  -2.017  0.00  0.00     0.169 HD
ATOM     14  O   UNL d   1      27.342 -13.579  -1.317  0.00  0.00    -0.270 OA
BRANCH   9  15
ATOM     15  N   UNL d   1      21.910 -18.240  -1.136  0.00  0.00    -0.116 N 
ATOM     16  O   UNL d   1      21.820 -19.325  -1.720  0.00  0.00    -0.532 OA
ATOM     17  O   UNL d   1      20.959 -17.480  -0.895  0.00  0.00    -0.532 OA
ENDBRANCH   9  15
ENDBRANCH   2   3
ENDBRANCH   1   2
BRANCH   1  18
ATOM     18  N   UNL d   1      29.074 -14.630   2.653  0.00  0.00    -0.068 N 
ATOM     19  C   UNL d   1      30.191 -14.613   3.712  0.00  0.00     0.254 C 
ATOM     20  C   UNL d   1      29.657 -14.804   5.139  0.00  0.00     0.150 C 
ATOM     21  N   UNL d   1      28.607 -13.838   5.452  0.00  0.00    -0.378 N 
ATOM     22  C   UNL d   1      27.464 -13.877   4.526  0.00  0.00     0.150 C 
ATOM     23  C   UNL d   1      27.929 -13.652   3.055  0.00  0.00     0.254 C 
ATOM     24  H   UNL d   1      28.664 -15.575   2.643  0.00  0.00     0.280 HD
BRANCH  21  25
ATOM     25  C   UNL d   1      28.832 -12.729   6.252  0.00  0.00     0.030 A 
ATOM     26  C   UNL d   1      29.234 -12.904   7.588  0.00  0.00     0.032 A 
ATOM     27  C   UNL d   1      29.448 -11.819   8.458  0.00  0.00     0.038 A 
ATOM     28  C   UNL d   1      29.321 -10.514   7.979  0.00  0.00     0.103 A 
ATOM     29  C   UNL d   1      28.928 -10.303   6.654  0.00  0.00     0.038 A 
ATOM     30  C   UNL d   1      28.697 -11.405   5.804  0.00  0.00     0.032 A 
BRANCH  28  31
ATOM     31  N   UNL d   1      29.661  -9.372   8.845  0.00  0.00    -0.116 N 
ATOM     32  O   UNL d   1      30.325  -9.600   9.865  0.00  0.00    -0.532 OA
ATOM     33  O   UNL d   1      29.277  -8.248   8.489  0.00  0.00    -0.532 OA
ENDBRANCH  28  31
ENDBRANCH  21  25
ENDBRANCH   1  18
TORSDOF 6
ENDMDL
MODEL 7
REMARK VINA RESULT:    -8.572      3.501      8.277
REMARK INTER + INTRA:         -11.588
REMARK INTER:                 -10.361
REMARK INTRA:                  -1.227
REMARK CONF_INDEPENDENT:        1.790
REMARK UNBOUND:                -1.227
REMARK  6 active torsions:
REMARK  status: ('A' for Active; 'I' for Inactive)
REMARK    1  A    between atoms: C_6  and  N_7 
REMARK    2  A    between atoms: C_14  and  C_15 
REMARK    3  A    between atoms: C_15  and  C_16 
REMARK    4  A    between atoms: C_16  and  N_17 
REMARK    5  A    between atoms: N_20  and  C_21 
REMARK    6  A    between atoms: C_24  and  N_25 
ROOT
ATOM      1  C   UNL d   1      28.786 -15.297  -2.887  0.00  0.00     0.238 C 
ENDROOT
BRANCH   1   2
ATOM      2  C   UNL d   1      27.794 -15.245  -4.064  0.00  0.00     0.070 C 
BRANCH   2   3
ATOM      3  C   UNL d   1      27.345 -13.817  -4.400  0.00  0.00     0.222 C 
ATOM      4  O   UNL d   1      28.087 -12.955  -3.550  0.00  0.00    -0.334 OA
ATOM      5  C   UNL d   1      27.477 -11.758  -3.310  0.00  0.00     0.096 A 
ATOM      6  C   UNL d   1      28.291 -10.745  -2.806  0.00  0.00     0.041 A 
ATOM      7  C   UNL d   1      26.102 -11.549  -3.476  0.00  0.00     0.070 A 
ATOM      8  C   UNL d   1      27.736  -9.512  -2.471  0.00  0.00     0.039 A 
ATOM      9  C   UNL d   1      26.359  -9.304  -2.646  0.00  0.00     0.105 A 
ATOM     10  C   UNL d   1      25.533 -10.322  -3.146  0.00  0.00     0.068 A 
ATOM     11  N   UNL d   1      25.288 -12.584  -3.941  0.00  0.00    -0.322 N 
ATOM     12  C   UNL d   1      25.813 -13.769  -4.369  0.00  0.00     0.251 C 
ATOM     13  H   UNL d   1      24.278 -12.491  -3.961  0.00  0.00     0.169 HD
ATOM     14  O   UNL d   1      25.113 -14.715  -4.703  0.00  0.00    -0.270 OA
BRANCH   9  15
ATOM     15  N   UNL d   1      25.772  -8.007  -2.289  0.00  0.00    -0.116 N 
ATOM     16  O   UNL d   1      25.158  -7.929  -1.219  0.00  0.00    -0.532 OA
ATOM     17  O   UNL d   1      25.924  -7.074  -3.092  0.00  0.00    -0.532 OA
ENDBRANCH   9  15
ENDBRANCH   2   3
ENDBRANCH   1   2
BRANCH   1  18
ATOM     18  N   UNL d   1      28.068 -15.601  -1.564  0.00  0.00    -0.068 N 
ATOM     19  C   UNL d   1      26.763 -14.802  -1.393  0.00  0.00     0.254 C 
ATOM     20  C   UNL d   1      26.016 -15.159  -0.100  0.00  0.00     0.150 C 
ATOM     21  N   UNL d   1      25.782 -16.597   0.005  0.00  0.00    -0.378 N 
ATOM     22  C   UNL d   1      27.009 -17.409  -0.054  0.00  0.00     0.150 C 
ATOM     23  C   UNL d   1      27.804 -17.124  -1.365  0.00  0.00     0.254 C 
ATOM     24  H   UNL d   1      28.713 -15.314  -0.814  0.00  0.00     0.280 HD
BRANCH  21  25
ATOM     25  C   UNL d   1      24.545 -17.169  -0.243  0.00  0.00     0.030 A 
ATOM     26  C   UNL d   1      23.473 -16.358  -0.657  0.00  0.00     0.032 A 
ATOM     27  C   UNL d   1      22.186 -16.874  -0.894  0.00  0.00     0.038 A 
ATOM     28  C   UNL d   1      21.960 -18.247  -0.780  0.00  0.00     0.103 A 
ATOM     29  C   UNL d   1      23.004 -19.084  -0.375  0.00  0.00     0.038 A 
ATOM     30  C   UNL d   1      24.282 -18.544  -0.121  0.00  0.00     0.032 A 
BRANCH  28  31
ATOM     31  N   UNL d   1      20.650 -18.814  -1.144  0.00  0.00    -0.116 N 
ATOM     32  O   UNL d   1      19.648 -18.361  -0.576  0.00  0.00    -0.532 OA
ATOM     33  O   UNL d   1      20.631 -19.700  -2.012  0.00  0.00    -0.532 OA
ENDBRANCH  28  31
ENDBRANCH  21  25
ENDBRANCH   1  18
TORSDOF 6
ENDMDL
MODEL 8
REMARK VINA RESULT:    -8.493      1.828      8.819
REMARK INTER + INTRA:         -11.325
REMARK INTER:                 -10.282
REMARK INTRA:                  -1.043
REMARK CONF_INDEPENDENT:        1.790
REMARK UNBOUND:                -1.043
REMARK  6 active torsions:
REMARK  status: ('A' for Active; 'I' for Inactive)
REMARK    1  A    between atoms: C_6  and  N_7 
REMARK    2  A    between atoms: C_14  and  C_15 
REMARK    3  A    between atoms: C_15  and  C_16 
REMARK    4  A    between atoms: C_16  and  N_17 
REMARK    5  A    between atoms: N_20  and  C_21 
REMARK    6  A    between atoms: C_24  and  N_25 
ROOT
ATOM      1  C   UNL d   1      28.827 -14.462   1.657  0.00  0.00     0.238 C 
ENDROOT
BRANCH   1   2
ATOM      2  C   UNL d   1      27.917 -14.745   2.867  0.00  0.00     0.070 C 
BRANCH   2   3
ATOM      3  C   UNL d   1      27.195 -13.490   3.373  0.00  0.00     0.222 C 
ATOM      4  O   UNL d   1      27.030 -12.643   2.247  0.00  0.00    -0.334 OA
ATOM      5  C   UNL d   1      26.916 -11.319   2.563  0.00  0.00     0.096 A 
ATOM      6  C   UNL d   1      26.392 -10.495   1.570  0.00  0.00     0.041 A 
ATOM      7  C   UNL d   1      27.363 -10.778   3.775  0.00  0.00     0.070 A 
ATOM      8  C   UNL d   1      26.302  -9.121   1.786  0.00  0.00     0.039 A 
ATOM      9  C   UNL d   1      26.744  -8.583   3.004  0.00  0.00     0.105 A 
ATOM     10  C   UNL d   1      27.280  -9.408   4.005  0.00  0.00     0.068 A 
ATOM     11  N   UNL d   1      27.927 -11.607   4.747  0.00  0.00    -0.322 N 
ATOM     12  C   UNL d   1      27.939 -12.965   4.607  0.00  0.00     0.251 C 
ATOM     13  H   UNL d   1      28.359 -11.224   5.581  0.00  0.00     0.169 HD
ATOM     14  O   UNL d   1      28.499 -13.703   5.406  0.00  0.00    -0.270 OA
BRANCH   9  15
ATOM     15  N   UNL d   1      26.655  -7.136   3.231  0.00  0.00    -0.116 N 
ATOM     16  O   UNL d   1      26.198  -6.439   2.318  0.00  0.00    -0.532 OA
ATOM     17  O   UNL d   1      27.054  -6.706   4.323  0.00  0.00    -0.532 OA
ENDBRANCH   9  15
ENDBRANCH   2   3
ENDBRANCH   1   2
BRANCH   1  18
ATOM     18  N   UNL d   1      28.306 -15.157   0.391  0.00  0.00    -0.068 N 
ATOM     19  C   UNL d   1      28.053 -16.662   0.595  0.00  0.00     0.254 C 
ATOM     20  C   UNL d   1      27.468 -17.338  -0.654  0.00  0.00     0.150 C 
ATOM     21  N   UNL d   1      26.268 -16.651  -1.123  0.00  0.00    -0.378 N 
ATOM     22  C   UNL d   1      26.475 -15.226  -1.428  0.00  0.00     0.150 C 
ATOM     23  C   UNL d   1      27.035 -14.465  -0.188  0.00  0.00     0.254 C 
ATOM     24  H   UNL d   1      29.046 -15.056  -0.318  0.00  0.00     0.280 HD
BRANCH  21  25
ATOM     25  C   UNL d   1      24.993 -17.149  -0.906  0.00  0.00     0.030 A 
ATOM     26  C   UNL d   1      23.878 -16.313  -1.091  0.00  0.00     0.032 A 
ATOM     27  C   UNL d   1      22.561 -16.749  -0.856  0.00  0.00     0.038 A 
ATOM     28  C   UNL d   1      22.329 -18.075  -0.486  0.00  0.00     0.103 A 
ATOM     29  C   UNL d   1      23.415 -18.936  -0.298  0.00  0.00     0.038 A 
ATOM     30  C   UNL d   1      24.729 -18.472  -0.517  0.00  0.00     0.032 A 
BRANCH  28  31
ATOM     31  N   UNL d   1      20.951 -18.577  -0.357  0.00  0.00    -0.116 N 
ATOM     32  O   UNL d   1      20.774 -19.615   0.294  0.00  0.00    -0.532 OA
ATOM     33  O   UNL d   1      20.048 -17.918  -0.895  0.00  0.00    -0.532 OA
ENDBRANCH  28  31
ENDBRANCH  21  25
ENDBRANCH   1  18
TORSDOF 6
ENDMDL
MODEL 9
REMARK VINA RESULT:    -7.919      2.135      8.200
REMARK INTER + INTRA:         -11.631
REMARK INTER:                  -9.709
REMARK INTRA:                  -1.922
REMARK CONF_INDEPENDENT:        1.790
REMARK UNBOUND:                -1.922
REMARK  6 active torsions:
REMARK  status: ('A' for Active; 'I' for Inactive)
REMARK    1  A    between atoms: C_6  and  N_7 
REMARK    2  A    between atoms: C_14  and  C_15 
REMARK    3  A    between atoms: C_15  and  C_16 
REMARK    4  A    between atoms: C_16  and  N_17 
REMARK    5  A    between atoms: N_20  and  C_21 
REMARK    6  A    between atoms: C_24  and  N_25 
ROOT
ATOM      1  C   UNL d   1      28.309 -14.344  -2.914  0.00  0.00     0.238 C 
ENDROOT
BRANCH   1   2
ATOM      2  C   UNL d   1      29.662 -13.647  -2.678  0.00  0.00     0.070 C 
BRANCH   2   3
ATOM      3  C   UNL d   1      29.553 -12.440  -1.740  0.00  0.00     0.222 C 
ATOM      4  O   UNL d   1      28.878 -12.896  -0.578  0.00  0.00    -0.334 OA
ATOM      5  C   UNL d   1      28.225 -11.911   0.105  0.00  0.00     0.096 A 
ATOM      6  C   UNL d   1      27.866 -12.210   1.418  0.00  0.00     0.041 A 
ATOM      7  C   UNL d   1      27.855 -10.691  -0.474  0.00  0.00     0.070 A 
ATOM      8  C   UNL d   1      27.139 -11.284   2.165  0.00  0.00     0.039 A 
ATOM      9  C   UNL d   1      26.775 -10.060   1.583  0.00  0.00     0.105 A 
ATOM     10  C   UNL d   1      27.128  -9.757   0.260  0.00  0.00     0.068 A 
ATOM     11  N   UNL d   1      28.182 -10.419  -1.804  0.00  0.00    -0.322 N 
ATOM     12  C   UNL d   1      28.975 -11.260  -2.531  0.00  0.00     0.251 C 
ATOM     13  H   UNL d   1      27.827  -9.594  -2.276  0.00  0.00     0.169 HD
ATOM     14  O   UNL d   1      29.207 -11.081  -3.718  0.00  0.00    -0.270 OA
BRANCH   9  15
ATOM     15  N   UNL d   1      26.006  -9.087   2.367  0.00  0.00    -0.116 N 
ATOM     16  O   UNL d   1      26.626  -8.160   2.899  0.00  0.00    -0.532 OA
ATOM     17  O   UNL d   1      24.781  -9.266   2.452  0.00  0.00    -0.532 OA
ENDBRANCH   9  15
ENDBRANCH   2   3
ENDBRANCH   1   2
BRANCH   1  18
ATOM     18  N   UNL d   1      27.781 -14.989  -1.624  0.00  0.00    -0.068 N 
ATOM     19  C   UNL d   1      26.459 -14.364  -1.140  0.00  0.00     0.254 C 
ATOM     20  C   UNL d   1      25.902 -15.058   0.112  0.00  0.00     0.150 C 
ATOM     21  N   UNL d   1      25.773 -16.499  -0.085  0.00  0.00    -0.378 N 
ATOM     22  C   UNL d   1      27.032 -17.167  -0.456  0.00  0.00     0.150 C 
ATOM     23  C   UNL d   1      27.638 -16.536  -1.746  0.00  0.00     0.254 C 
ATOM     24  H   UNL d   1      28.494 -14.815  -0.902  0.00  0.00     0.280 HD
BRANCH  21  25
ATOM     25  C   UNL d   1      24.553 -17.111  -0.321  0.00  0.00     0.030 A 
ATOM     26  C   UNL d   1      23.435 -16.328  -0.661  0.00  0.00     0.032 A 
ATOM     27  C   UNL d   1      22.163 -16.886  -0.882  0.00  0.00     0.038 A 
ATOM     28  C   UNL d   1      21.998 -18.271  -0.829  0.00  0.00     0.103 A 
ATOM     29  C   UNL d   1      23.089 -19.081  -0.500  0.00  0.00     0.038 A 
ATOM     30  C   UNL d   1      24.352 -18.500  -0.259  0.00  0.00     0.032 A 
BRANCH  28  31
ATOM     31  N   UNL d   1      20.701 -18.876  -1.179  0.00  0.00    -0.116 N 
ATOM     32  O   UNL d   1      20.681 -19.700  -2.103  0.00  0.00    -0.532 OA
ATOM     33  O   UNL d   1      19.712 -18.536  -0.515  0.00  0.00    -0.532 OA
ENDBRANCH  28  31
ENDBRANCH  21  25
ENDBRANCH   1  18
TORSDOF 6
ENDMDL
