MODEL 1
REMARK VINA RESULT:   -19.907      0.000      0.000
REMARK INTER + INTRA:         -23.727
REMARK INTER:                 -22.592
REMARK INTRA:                  -1.135
REMARK CONF_INDEPENDENT:        2.685
REMARK UNBOUND:                -1.135
REMARK  9 active torsions:
REMARK  status: ('A' for Active; 'I' for Inactive)
REMARK    1  A    between atoms: O_2  and  C_3 
REMARK    2  A    between atoms: C_3  and  C_5 
REMARK    3  A    between atoms: C_8  and  O_9 
REMARK    4  A    between atoms: O_9  and  C_10 
REMARK    5  A    between atoms: C_10  and  C_11 
REMARK    6  A    between atoms: C_14  and  C_15 
REMARK       I    between atoms: C_15  and  N_17 
REMARK    7  A    between atoms: N_17  and  C_18 
REMARK    8  A    between atoms: C_18  and  C_19 
REMARK    9  A    between atoms: C_19  and  C_20 
ROOT
ATOM      1  C   UNL d   1      19.930 -19.326   0.410  0.00  0.00     0.345 C 
ATOM      2  N   UNL d   1      19.755 -19.322  -1.042  0.00  0.00    -0.168 NA
ATOM      3  O   UNL d   1      20.884 -18.542  -1.570  0.00  0.00    -0.258 OA
ATOM      4  C   UNL d   1      21.756 -18.299  -0.479  0.00  0.00     0.471 C 
ATOM      5  N   UNL d   1      21.383 -19.232   0.596  0.00  0.00     0.145 N 
ATOM      6  H   UNL d   1      18.946 -18.737  -1.268  0.00  0.00     0.156 HD
ATOM      7  H   UNL d   1      21.587 -18.797   1.492  0.00  0.00     0.322 HD
ENDROOT
BRANCH   4   8
ATOM      8  C   UNL d   1      23.271 -18.381  -0.842  0.00  0.00     0.279 C 
ATOM      9  O   UNL d   1      23.653 -18.590  -1.996  0.00  0.00    -0.268 OA
ATOM     10  N   UNL d   1      24.194 -18.216   0.173  0.00  0.00    -0.357 N 
ATOM     11  H   UNL d   1      23.836 -18.036   1.109  0.00  0.00     0.162 HD
BRANCH  10  12
ATOM     12  C   UNL d   1      25.613 -18.295  -0.126  0.00  0.00     0.127 C 
BRANCH  12  13
ATOM     13  C   UNL d   1      26.239 -16.928  -0.288  0.00  0.00     0.056 C 
BRANCH  13  14
ATOM     14  C   UNL d   1      25.973 -16.198  -1.568  0.00  0.00    -0.048 A 
ATOM     15  C   UNL d   1      26.965 -15.999  -2.436  0.00  0.00    -0.003 A 
ATOM     16  C   UNL d   1      28.334 -16.367  -2.375  0.00  0.00     0.056 A 
ATOM     17  C   UNL d   1      26.403 -15.215  -3.540  0.00  0.00     0.039 A 
ATOM     18  C   UNL d   1      29.149 -15.880  -3.311  0.00  0.00     0.117 A 
ATOM     19  F   UNL d   1      30.475 -16.073  -3.195  0.00  0.00    -0.206 F 
ATOM     20  C   UNL d   1      28.647 -15.121  -4.442  0.00  0.00     0.044 A 
ATOM     21  C   UNL d   1      27.347 -14.784  -4.599  0.00  0.00     0.033 A 
ATOM     22  N   UNL d   1      25.148 -15.020  -3.386  0.00  0.00    -0.385 N 
ATOM     23  C   UNL d   1      24.695 -15.585  -2.072  0.00  0.00     0.155 A 
ATOM     24  H   UNL d   1      24.574 -14.546  -4.083  0.00  0.00     0.160 HD
ENDBRANCH  13  14
ENDBRANCH  12  13
ENDBRANCH  10  12
ENDBRANCH   4   8
BRANCH   1  25
ATOM     25  C   UNL d   1      19.310 -20.599   1.052  0.00  0.00     0.229 C 
BRANCH  25  26
ATOM     26  O   UNL d   1      19.746 -20.797   2.412  0.00  0.00    -0.348 OA
BRANCH  26  27
ATOM     27  C   UNL d   1      18.852 -20.457   3.403  0.00  0.00     0.069 A 
ATOM     28  C   UNL d   1      19.283 -20.648   4.721  0.00  0.00     0.038 A 
ATOM     29  C   UNL d   1      18.416 -20.420   5.806  0.00  0.00     0.020 A 
ATOM     30  C   UNL d   1      17.123 -19.926   5.589  0.00  0.00     0.039 A 
ATOM     31  C   UNL d   1      16.701 -19.700   4.276  0.00  0.00     0.020 A 
ATOM     32  C   UNL d   1      17.561 -19.962   3.195  0.00  0.00     0.038 A 
BRANCH  30  33
ATOM     33  C   UNL d   1      16.293 -19.504   6.755  0.00  0.00     0.292 C 
ATOM     34  O   UNL d   1      15.186 -19.956   6.965  0.00  0.00    -0.259 OA
BRANCH  33  35
ATOM     35  O   UNL d   1      16.939 -18.582   7.521  0.00  0.00    -0.323 OA
ATOM     36  C   UNL d   1      16.097 -17.947   8.499  0.00  0.00     0.213 C 
ENDBRANCH  33  35
ENDBRANCH  30  33
ENDBRANCH  26  27
ENDBRANCH  25  26
ENDBRANCH   1  25
TORSDOF 9
ENDMDL
MODEL 2
REMARK VINA RESULT:   -19.900      1.443      2.031
REMARK INTER + INTRA:         -23.731
REMARK INTER:                 -22.585
REMARK INTRA:                  -1.146
REMARK CONF_INDEPENDENT:        2.685
REMARK UNBOUND:                -1.146
REMARK  9 active torsions:
REMARK  status: ('A' for Active; 'I' for Inactive)
REMARK    1  A    between atoms: O_2  and  C_3 
REMARK    2  A    between atoms: C_3  and  C_5 
REMARK    3  A    between atoms: C_8  and  O_9 
REMARK    4  A    between atoms: O_9  and  C_10 
REMARK    5  A    between atoms: C_10  and  C_11 
REMARK    6  A    between atoms: C_14  and  C_15 
REMARK       I    between atoms: C_15  and  N_17 
REMARK    7  A    between atoms: N_17  and  C_18 
REMARK    8  A    between atoms: C_18  and  C_19 
REMARK    9  A    between atoms: C_19  and  C_20 
ROOT
ATOM      1  C   UNL d   1      19.767 -19.080   0.268  0.00  0.00     0.345 C 
ATOM      2  N   UNL d   1      19.715 -19.135  -1.192  0.00  0.00    -0.168 NA
ATOM      3  O   UNL d   1      20.893 -18.385  -1.653  0.00  0.00    -0.258 OA
ATOM      4  C   UNL d   1      21.672 -18.103  -0.503  0.00  0.00     0.471 C 
ATOM      5  N   UNL d   1      21.200 -18.988   0.574  0.00  0.00     0.145 N 
ATOM      6  H   UNL d   1      18.934 -18.554  -1.510  0.00  0.00     0.156 HD
ATOM      7  H   UNL d   1      21.332 -18.518   1.466  0.00  0.00     0.322 HD
ENDROOT
BRANCH   4   8
ATOM      8  C   UNL d   1      23.212 -18.211  -0.731  0.00  0.00     0.279 C 
ATOM      9  O   UNL d   1      23.689 -18.434  -1.847  0.00  0.00    -0.268 OA
ATOM     10  N   UNL d   1      24.045 -18.052   0.359  0.00  0.00    -0.357 N 
ATOM     11  H   UNL d   1      23.610 -17.859   1.259  0.00  0.00     0.162 HD
BRANCH  10  12
ATOM     12  C   UNL d   1      25.483 -18.154   0.186  0.00  0.00     0.127 C 
BRANCH  12  13
ATOM     13  C   UNL d   1      26.136 -16.800   0.022  0.00  0.00     0.056 C 
BRANCH  13  14
ATOM     14  C   UNL d   1      27.270 -16.697  -0.951  0.00  0.00    -0.048 A 
ATOM     15  C   UNL d   1      27.109 -16.020  -2.087  0.00  0.00    -0.003 A 
ATOM     16  C   UNL d   1      25.979 -15.330  -2.600  0.00  0.00     0.056 A 
ATOM     17  C   UNL d   1      28.362 -16.155  -2.837  0.00  0.00     0.039 A 
ATOM     18  C   UNL d   1      26.041 -14.887  -3.855  0.00  0.00     0.117 A 
ATOM     19  F   UNL d   1      24.936 -14.373  -4.427  0.00  0.00    -0.206 F 
ATOM     20  C   UNL d   1      27.262 -14.968  -4.636  0.00  0.00     0.044 A 
ATOM     21  C   UNL d   1      28.395 -15.557  -4.192  0.00  0.00     0.033 A 
ATOM     22  N   UNL d   1      29.240 -16.803  -2.168  0.00  0.00    -0.385 N 
ATOM     23  C   UNL d   1      28.652 -17.286  -0.875  0.00  0.00     0.155 A 
ATOM     24  H   UNL d   1      30.193 -16.944  -2.503  0.00  0.00     0.160 HD
ENDBRANCH  13  14
ENDBRANCH  12  13
ENDBRANCH  10  12
ENDBRANCH   4   8
BRANCH   1  25
ATOM     25  C   UNL d   1      19.081 -20.321   0.906  0.00  0.00     0.229 C 
BRANCH  25  26
ATOM     26  O   UNL d   1      19.694 -20.707   2.153  0.00  0.00    -0.348 OA
BRANCH  26  27
ATOM     27  C   UNL d   1      18.949 -20.509   3.295  0.00  0.00     0.069 A 
ATOM     28  C   UNL d   1      17.649 -20.023   3.112  0.00  0.00     0.038 A 
ATOM     29  C   UNL d   1      16.836 -19.700   4.215  0.00  0.00     0.020 A 
ATOM     30  C   UNL d   1      17.288 -19.930   5.521  0.00  0.00     0.039 A 
ATOM     31  C   UNL d   1      18.572 -20.449   5.707  0.00  0.00     0.020 A 
ATOM     32  C   UNL d   1      19.392 -20.737   4.601  0.00  0.00     0.038 A 
BRANCH  30  33
ATOM     33  C   UNL d   1      16.342 -19.769   6.663  0.00  0.00     0.292 C 
ATOM     34  O   UNL d   1      15.808 -20.714   7.206  0.00  0.00    -0.259 OA
BRANCH  33  35
ATOM     35  O   UNL d   1      16.180 -18.459   6.998  0.00  0.00    -0.323 OA
ATOM     36  C   UNL d   1      15.986 -18.238   8.405  0.00  0.00     0.213 C 
ENDBRANCH  33  35
ENDBRANCH  30  33
ENDBRANCH  26  27
ENDBRANCH  25  26
ENDBRANCH   1  25
TORSDOF 9
ENDMDL
MODEL 3
REMARK VINA RESULT:   -19.739      2.490      3.176
REMARK INTER + INTRA:         -23.598
REMARK INTER:                 -22.424
REMARK INTRA:                  -1.174
REMARK CONF_INDEPENDENT:        2.685
REMARK UNBOUND:                -1.174
REMARK  9 active torsions:
REMARK  status: ('A' for Active; 'I' for Inactive)
REMARK    1  A    between atoms: O_2  and  C_3 
REMARK    2  A    between atoms: C_3  and  C_5 
REMARK    3  A    between atoms: C_8  and  O_9 
REMARK    4  A    between atoms: O_9  and  C_10 
REMARK    5  A    between atoms: C_10  and  C_11 
REMARK    6  A    between atoms: C_14  and  C_15 
REMARK       I    between atoms: C_15  and  N_17 
REMARK    7  A    between atoms: N_17  and  C_18 
REMARK    8  A    between atoms: C_18  and  C_19 
REMARK    9  A    between atoms: C_19  and  C_20 
ROOT
ATOM      1  C   UNL d   1      19.799 -19.181   0.327  0.00  0.00     0.345 C 
ATOM      2  N   UNL d   1      19.773 -19.321  -1.128  0.00  0.00    -0.168 NA
ATOM      3  O   UNL d   1      20.892 -18.504  -1.619  0.00  0.00    -0.258 OA
ATOM      4  C   UNL d   1      21.629 -18.095  -0.479  0.00  0.00     0.471 C 
ATOM      5  N   UNL d   1      21.215 -18.955   0.641  0.00  0.00     0.145 N 
ATOM      6  H   UNL d   1      18.952 -18.825  -1.486  0.00  0.00     0.156 HD
ATOM      7  H   UNL d   1      21.295 -18.427   1.507  0.00  0.00     0.322 HD
ENDROOT
BRANCH   4   8
ATOM      8  C   UNL d   1      23.175 -18.089  -0.686  0.00  0.00     0.279 C 
ATOM      9  O   UNL d   1      23.905 -18.933  -0.159  0.00  0.00    -0.268 OA
ATOM     10  N   UNL d   1      23.722 -17.103  -1.483  0.00  0.00    -0.357 N 
ATOM     11  H   UNL d   1      23.083 -16.433  -1.907  0.00  0.00     0.162 HD
BRANCH  10  12
ATOM     12  C   UNL d   1      25.158 -17.060  -1.692  0.00  0.00     0.127 C 
BRANCH  12  13
ATOM     13  C   UNL d   1      25.768 -15.765  -1.208  0.00  0.00     0.056 C 
BRANCH  13  14
ATOM     14  C   UNL d   1      27.037 -15.855  -0.419  0.00  0.00    -0.048 A 
ATOM     15  C   UNL d   1      27.418 -14.831   0.344  0.00  0.00    -0.003 A 
ATOM     16  C   UNL d   1      26.810 -13.567   0.565  0.00  0.00     0.056 A 
ATOM     17  C   UNL d   1      28.710 -15.201   0.930  0.00  0.00     0.039 A 
ATOM     18  C   UNL d   1      27.505 -12.655   1.245  0.00  0.00     0.117 A 
ATOM     19  F   UNL d   1      27.032 -11.399   1.335  0.00  0.00    -0.206 F 
ATOM     20  C   UNL d   1      28.776 -12.972   1.870  0.00  0.00     0.044 A 
ATOM     21  C   UNL d   1      29.388 -14.173   1.754  0.00  0.00     0.033 A 
ATOM     22  N   UNL d   1      29.048 -16.392   0.603  0.00  0.00    -0.385 N 
ATOM     23  C   UNL d   1      28.043 -16.971  -0.348  0.00  0.00     0.155 A 
ATOM     24  H   UNL d   1      29.887 -16.845   0.965  0.00  0.00     0.160 HD
ENDBRANCH  13  14
ENDBRANCH  12  13
ENDBRANCH  10  12
ENDBRANCH   4   8
BRANCH   1  25
ATOM     25  C   UNL d   1      19.207 -20.437   1.028  0.00  0.00     0.229 C 
BRANCH  25  26
ATOM     26  O   UNL d   1      19.809 -20.683   2.315  0.00  0.00    -0.348 OA
BRANCH  26  27
ATOM     27  C   UNL d   1      19.011 -20.481   3.419  0.00  0.00     0.069 A 
ATOM     28  C   UNL d   1      17.712 -20.024   3.172  0.00  0.00     0.038 A 
ATOM     29  C   UNL d   1      16.845 -19.700   4.232  0.00  0.00     0.020 A 
ATOM     30  C   UNL d   1      17.244 -19.899   5.561  0.00  0.00     0.039 A 
ATOM     31  C   UNL d   1      18.528 -20.388   5.811  0.00  0.00     0.020 A 
ATOM     32  C   UNL d   1      19.401 -20.679   4.748  0.00  0.00     0.038 A 
BRANCH  30  33
ATOM     33  C   UNL d   1      16.246 -19.738   6.658  0.00  0.00     0.292 C 
ATOM     34  O   UNL d   1      15.689 -20.684   7.177  0.00  0.00    -0.259 OA
BRANCH  33  35
ATOM     35  O   UNL d   1      16.066 -18.427   6.982  0.00  0.00    -0.323 OA
ATOM     36  C   UNL d   1      15.579 -18.221   8.320  0.00  0.00     0.213 C 
ENDBRANCH  33  35
ENDBRANCH  30  33
ENDBRANCH  26  27
ENDBRANCH  25  26
ENDBRANCH   1  25
TORSDOF 9
ENDMDL
