MODEL 1
REMARK VINA RESULT:    -8.844      0.000      0.000
REMARK INTER + INTRA:         -11.862
REMARK INTER:                 -10.932
REMARK INTRA:                  -0.930
REMARK CONF_INDEPENDENT:        2.088
REMARK UNBOUND:                -0.930
REMARK  7 active torsions:
REMARK  status: ('A' for Active; 'I' for Inactive)
REMARK    1  A    between atoms: C_5  and  N_6 
REMARK       I    between atoms: N_6  and  C_7 
REMARK    2  A    between atoms: C_7  and  C_9 
REMARK    3  A    between atoms: C_9  and  S_10 
REMARK    4  A    between atoms: S_10  and  C_11 
REMARK    5  A    between atoms: C_13  and  N_14 
REMARK    6  A    between atoms: C_15  and  N_16 
REMARK       I    between atoms: N_16  and  C_17 
REMARK    7  A    between atoms: C_17  and  C_19 
ROOT
ATOM      1  C   UNL d   1      25.449 -15.843  -1.619  0.00  0.00     0.171 A 
ATOM      2  N   UNL d   1      25.852 -16.924  -1.069  0.00  0.00    -0.205 NA
ATOM      3  C   UNL d   1      24.965 -17.792  -0.514  0.00  0.00     0.156 A 
ATOM      4  C   UNL d   1      23.631 -17.543  -0.409  0.00  0.00     0.149 A 
ATOM      5  C   UNL d   1      23.187 -16.260  -1.095  0.00  0.00     0.278 A 
ATOM      6  O   UNL d   1      22.000 -15.944  -1.171  0.00  0.00    -0.265 OA
ATOM      7  N   UNL d   1      24.157 -15.468  -1.657  0.00  0.00    -0.300 N 
ATOM      8  H   UNL d   1      23.875 -14.620  -2.118  0.00  0.00     0.171 HD
ENDROOT
BRANCH   1   9
ATOM      9  S   UNL d   1      26.686 -14.893  -2.325  0.00  0.00    -0.083 SA
BRANCH   9  10
ATOM     10  C   UNL d   1      26.232 -14.365  -3.990  0.00  0.00     0.185 C 
BRANCH  10  11
ATOM     11  C   UNL d   1      27.194 -15.065  -4.962  0.00  0.00     0.231 C 
ATOM     12  N   UNL d   1      28.400 -15.508  -4.423  0.00  0.00    -0.326 N 
ATOM     13  H   UNL d   1      28.571 -15.341  -3.443  0.00  0.00     0.169 HD
ATOM     14  O   UNL d   1      26.878 -15.205  -6.142  0.00  0.00    -0.272 OA
BRANCH  12  15
ATOM     15  C   UNL d   1      29.425 -16.178  -5.169  0.00  0.00     0.040 A 
ATOM     16  C   UNL d   1      29.913 -17.424  -4.748  0.00  0.00     0.030 A 
ATOM     17  C   UNL d   1      30.900 -18.125  -5.429  0.00  0.00     0.009 A 
ATOM     18  C   UNL d   1      31.451 -17.603  -6.584  0.00  0.00    -0.061 A 
ATOM     19  C   UNL d   1      32.516 -18.388  -7.289  0.00  0.00     0.048 C 
ATOM     20  C   UNL d   1      30.990 -16.359  -7.039  0.00  0.00     0.015 A 
ATOM     21  C   UNL d   1      29.981 -15.629  -6.343  0.00  0.00    -0.035 A 
ATOM     22  C   UNL d   1      29.572 -14.301  -6.926  0.00  0.00     0.050 C 
ENDBRANCH  12  15
ENDBRANCH  10  11
ENDBRANCH   9  10
ENDBRANCH   1   9
BRANCH   3  23
ATOM     23  N   UNL d   1      25.569 -18.952  -0.145  0.00  0.00    -0.382 N 
ATOM     24  H   UNL d   1      24.993 -19.779  -0.114  0.00  0.00     0.157 HD
ATOM     25  H   UNL d   1      26.544 -19.090  -0.390  0.00  0.00     0.157 HD
ENDBRANCH   3  23
BRANCH   4  26
ATOM     26  N   UNL d   1      22.644 -18.355   0.204  0.00  0.00    -0.315 N 
ATOM     27  C   UNL d   1      21.341 -18.600  -0.242  0.00  0.00     0.263 C 
ATOM     28  O   UNL d   1      20.858 -18.109  -1.271  0.00  0.00    -0.267 OA
ATOM     29  H   UNL d   1      22.968 -18.879   1.015  0.00  0.00     0.169 HD
BRANCH  27  30
ATOM     30  C   UNL d   1      20.464 -19.460   0.513  0.00  0.00     0.072 A 
ATOM     31  C   UNL d   1      20.284 -19.593   1.871  0.00  0.00     0.025 A 
ATOM     32  C   UNL d   1      19.144 -20.401   2.177  0.00  0.00     0.009 A 
ATOM     33  C   UNL d   1      18.486 -20.843   1.051  0.00  0.00     0.050 A 
ATOM     34  S   UNL d   1      19.232 -20.289  -0.373  0.00  0.00    -0.097 SA
ENDBRANCH  27  30
ENDBRANCH   4  26
TORSDOF 7
ENDMDL
MODEL 2
REMARK VINA RESULT:    -8.530      3.037      5.290
REMARK INTER + INTRA:         -12.627
REMARK INTER:                 -10.618
REMARK INTRA:                  -2.009
REMARK CONF_INDEPENDENT:        2.088
REMARK UNBOUND:                -2.009
REMARK  7 active torsions:
REMARK  status: ('A' for Active; 'I' for Inactive)
REMARK    1  A    between atoms: C_5  and  N_6 
REMARK       I    between atoms: N_6  and  C_7 
REMARK    2  A    between atoms: C_7  and  C_9 
REMARK    3  A    between atoms: C_9  and  S_10 
REMARK    4  A    between atoms: S_10  and  C_11 
REMARK    5  A    between atoms: C_13  and  N_14 
REMARK    6  A    between atoms: C_15  and  N_16 
REMARK       I    between atoms: N_16  and  C_17 
REMARK    7  A    between atoms: C_17  and  C_19 
ROOT
ATOM      1  C   UNL d   1      25.650 -16.119  -1.629  0.00  0.00     0.171 A 
ATOM      2  N   UNL d   1      24.429 -15.759  -1.737  0.00  0.00    -0.205 NA
ATOM      3  C   UNL d   1      23.443 -16.450  -1.105  0.00  0.00     0.156 A 
ATOM      4  C   UNL d   1      23.654 -17.603  -0.413  0.00  0.00     0.149 A 
ATOM      5  C   UNL d   1      25.122 -17.986  -0.286  0.00  0.00     0.278 A 
ATOM      6  O   UNL d   1      25.483 -18.950   0.389  0.00  0.00    -0.265 OA
ATOM      7  N   UNL d   1      26.044 -17.203  -0.934  0.00  0.00    -0.300 N 
ATOM      8  H   UNL d   1      27.017 -17.443  -0.854  0.00  0.00     0.171 HD
ENDROOT
BRANCH   1   9
ATOM      9  S   UNL d   1      26.771 -15.107  -2.435  0.00  0.00    -0.083 SA
BRANCH   9  10
ATOM     10  C   UNL d   1      26.411 -15.016  -4.201  0.00  0.00     0.185 C 
BRANCH  10  11
ATOM     11  C   UNL d   1      25.712 -13.671  -4.450  0.00  0.00     0.231 C 
ATOM     12  N   UNL d   1      26.527 -12.541  -4.436  0.00  0.00    -0.326 N 
ATOM     13  H   UNL d   1      27.512 -12.669  -4.261  0.00  0.00     0.169 HD
ATOM     14  O   UNL d   1      24.498 -13.638  -4.645  0.00  0.00    -0.272 OA
BRANCH  12  15
ATOM     15  C   UNL d   1      26.062 -11.201  -4.644  0.00  0.00     0.040 A 
ATOM     16  C   UNL d   1      25.531 -10.815  -5.883  0.00  0.00     0.030 A 
ATOM     17  C   UNL d   1      25.060  -9.536  -6.145  0.00  0.00     0.009 A 
ATOM     18  C   UNL d   1      25.095  -8.567  -5.161  0.00  0.00    -0.061 A 
ATOM     19  C   UNL d   1      24.581  -7.197  -5.482  0.00  0.00     0.048 C 
ATOM     20  C   UNL d   1      25.619  -8.912  -3.906  0.00  0.00     0.015 A 
ATOM     21  C   UNL d   1      26.111 -10.222  -3.629  0.00  0.00    -0.035 A 
ATOM     22  C   UNL d   1      26.655 -10.472  -2.246  0.00  0.00     0.050 C 
ENDBRANCH  12  15
ENDBRANCH  10  11
ENDBRANCH   9  10
ENDBRANCH   1   9
BRANCH   3  23
ATOM     23  N   UNL d   1      22.249 -15.809  -1.197  0.00  0.00    -0.382 N 
ATOM     24  H   UNL d   1      22.148 -15.131  -1.937  0.00  0.00     0.157 HD
ATOM     25  H   UNL d   1      21.408 -16.308  -0.925  0.00  0.00     0.157 HD
ENDBRANCH   3  23
BRANCH   4  26
ATOM     26  N   UNL d   1      22.688 -18.420   0.225  0.00  0.00    -0.315 N 
ATOM     27  C   UNL d   1      21.345 -18.588  -0.126  0.00  0.00     0.263 C 
ATOM     28  O   UNL d   1      20.800 -18.010  -1.078  0.00  0.00    -0.267 OA
ATOM     29  H   UNL d   1      23.055 -19.010   0.970  0.00  0.00     0.169 HD
BRANCH  27  30
ATOM     30  C   UNL d   1      20.497 -19.467   0.640  0.00  0.00     0.072 A 
ATOM     31  C   UNL d   1      20.282 -19.553   1.997  0.00  0.00     0.025 A 
ATOM     32  C   UNL d   1      19.183 -20.415   2.305  0.00  0.00     0.009 A 
ATOM     33  C   UNL d   1      18.590 -20.945   1.182  0.00  0.00     0.050 A 
ATOM     34  S   UNL d   1      19.346 -20.408  -0.243  0.00  0.00    -0.097 SA
ENDBRANCH  27  30
ENDBRANCH   4  26
TORSDOF 7
ENDMDL
MODEL 3
REMARK VINA RESULT:    -8.516      2.963      5.006
REMARK INTER + INTRA:         -12.593
REMARK INTER:                 -10.604
REMARK INTRA:                  -1.989
REMARK CONF_INDEPENDENT:        2.088
REMARK UNBOUND:                -1.989
REMARK  7 active torsions:
REMARK  status: ('A' for Active; 'I' for Inactive)
REMARK    1  A    between atoms: C_5  and  N_6 
REMARK       I    between atoms: N_6  and  C_7 
REMARK    2  A    between atoms: C_7  and  C_9 
REMARK    3  A    between atoms: C_9  and  S_10 
REMARK    4  A    between atoms: S_10  and  C_11 
REMARK    5  A    between atoms: C_13  and  N_14 
REMARK    6  A    between atoms: C_15  and  N_16 
REMARK       I    between atoms: N_16  and  C_17 
REMARK    7  A    between atoms: C_17  and  C_19 
ROOT
ATOM      1  C   UNL d   1      25.278 -16.202  -1.602  0.00  0.00     0.171 A 
ATOM      2  N   UNL d   1      25.440 -17.341  -1.046  0.00  0.00    -0.205 NA
ATOM      3  C   UNL d   1      24.381 -18.016  -0.527  0.00  0.00     0.156 A 
ATOM      4  C   UNL d   1      23.119 -17.508  -0.464  0.00  0.00     0.149 A 
ATOM      5  C   UNL d   1      22.961 -16.163  -1.157  0.00  0.00     0.278 A 
ATOM      6  O   UNL d   1      21.863 -15.618  -1.270  0.00  0.00    -0.265 OA
ATOM      7  N   UNL d   1      24.087 -15.579  -1.681  0.00  0.00    -0.300 N 
ATOM      8  H   UNL d   1      23.995 -14.692  -2.145  0.00  0.00     0.171 HD
ENDROOT
BRANCH   1   9
ATOM      9  S   UNL d   1      26.702 -15.515  -2.259  0.00  0.00    -0.083 SA
BRANCH   9  10
ATOM     10  C   UNL d   1      26.532 -15.242  -4.035  0.00  0.00     0.185 C 
BRANCH  10  11
ATOM     11  C   UNL d   1      25.816 -13.895  -4.217  0.00  0.00     0.231 C 
ATOM     12  N   UNL d   1      26.622 -12.809  -4.552  0.00  0.00    -0.326 N 
ATOM     13  H   UNL d   1      27.613 -12.967  -4.649  0.00  0.00     0.169 HD
ATOM     14  O   UNL d   1      24.598 -13.823  -4.064  0.00  0.00    -0.272 OA
BRANCH  12  15
ATOM     15  C   UNL d   1      26.141 -11.474  -4.760  0.00  0.00     0.040 A 
ATOM     16  C   UNL d   1      25.640 -11.084  -6.010  0.00  0.00     0.030 A 
ATOM     17  C   UNL d   1      25.156  -9.810  -6.273  0.00  0.00     0.009 A 
ATOM     18  C   UNL d   1      25.148  -8.850  -5.278  0.00  0.00    -0.061 A 
ATOM     19  C   UNL d   1      24.621  -7.485  -5.601  0.00  0.00     0.048 C 
ATOM     20  C   UNL d   1      25.641  -9.200  -4.012  0.00  0.00     0.015 A 
ATOM     21  C   UNL d   1      26.146 -10.505  -3.734  0.00  0.00    -0.035 A 
ATOM     22  C   UNL d   1      26.654 -10.761  -2.339  0.00  0.00     0.050 C 
ENDBRANCH  12  15
ENDBRANCH  10  11
ENDBRANCH   9  10
ENDBRANCH   1   9
BRANCH   3  23
ATOM     23  N   UNL d   1      24.730 -19.273  -0.145  0.00  0.00    -0.382 N 
ATOM     24  H   UNL d   1      25.661 -19.398   0.222  0.00  0.00     0.157 HD
ATOM     25  H   UNL d   1      24.011 -19.884   0.229  0.00  0.00     0.157 HD
ENDBRANCH   3  23
BRANCH   4  26
ATOM     26  N   UNL d   1      21.971 -18.109   0.110  0.00  0.00    -0.315 N 
ATOM     27  C   UNL d   1      21.093 -19.019  -0.488  0.00  0.00     0.263 C 
ATOM     28  O   UNL d   1      21.208 -19.430  -1.651  0.00  0.00    -0.267 OA
ATOM     29  H   UNL d   1      21.834 -17.907   1.099  0.00  0.00     0.169 HD
BRANCH  27  30
ATOM     30  C   UNL d   1      19.965 -19.533   0.249  0.00  0.00     0.072 A 
ATOM     31  C   UNL d   1      18.910 -20.319  -0.153  0.00  0.00     0.025 A 
ATOM     32  C   UNL d   1      18.142 -20.785   0.959  0.00  0.00     0.009 A 
ATOM     33  C   UNL d   1      18.640 -20.355   2.168  0.00  0.00     0.050 A 
ATOM     34  S   UNL d   1      20.030 -19.396   1.972  0.00  0.00    -0.097 SA
ENDBRANCH  27  30
ENDBRANCH   4  26
TORSDOF 7
ENDMDL
MODEL 4
REMARK VINA RESULT:    -8.484      7.812      9.957
REMARK INTER + INTRA:         -13.265
REMARK INTER:                 -10.572
REMARK INTRA:                  -2.693
REMARK CONF_INDEPENDENT:        2.088
REMARK UNBOUND:                -2.693
REMARK  7 active torsions:
REMARK  status: ('A' for Active; 'I' for Inactive)
REMARK    1  A    between atoms: C_5  and  N_6 
REMARK       I    between atoms: N_6  and  C_7 
REMARK    2  A    between atoms: C_7  and  C_9 
REMARK    3  A    between atoms: C_9  and  S_10 
REMARK    4  A    between atoms: S_10  and  C_11 
REMARK    5  A    between atoms: C_13  and  N_14 
REMARK    6  A    between atoms: C_15  and  N_16 
REMARK       I    between atoms: N_16  and  C_17 
REMARK    7  A    between atoms: C_17  and  C_19 
ROOT
ATOM      1  C   UNL d   1      29.443 -13.897   3.097  0.00  0.00     0.171 A 
ATOM      2  N   UNL d   1      30.123 -13.074   3.800  0.00  0.00    -0.205 NA
ATOM      3  C   UNL d   1      30.083 -13.124   5.158  0.00  0.00     0.156 A 
ATOM      4  C   UNL d   1      29.265 -13.955   5.859  0.00  0.00     0.149 A 
ATOM      5  C   UNL d   1      28.489 -14.935   4.990  0.00  0.00     0.278 A 
ATOM      6  O   UNL d   1      27.780 -15.813   5.480  0.00  0.00    -0.265 OA
ATOM      7  N   UNL d   1      28.625 -14.825   3.629  0.00  0.00    -0.300 N 
ATOM      8  H   UNL d   1      28.121 -15.469   3.044  0.00  0.00     0.171 HD
ENDROOT
BRANCH   1   9
ATOM      9  S   UNL d   1      29.653 -13.741   1.406  0.00  0.00    -0.083 SA
BRANCH   9  10
ATOM     10  C   UNL d   1      29.389 -15.318   0.569  0.00  0.00     0.185 C 
BRANCH  10  11
ATOM     11  C   UNL d   1      27.875 -15.575   0.560  0.00  0.00     0.231 C 
ATOM     12  N   UNL d   1      27.434 -16.636  -0.228  0.00  0.00    -0.326 N 
ATOM     13  H   UNL d   1      28.124 -17.163  -0.742  0.00  0.00     0.169 HD
ATOM     14  O   UNL d   1      27.128 -14.859   1.224  0.00  0.00    -0.272 OA
BRANCH  12  15
ATOM     15  C   UNL d   1      26.063 -17.029  -0.368  0.00  0.00     0.040 A 
ATOM     16  C   UNL d   1      25.568 -18.147   0.320  0.00  0.00     0.030 A 
ATOM     17  C   UNL d   1      24.250 -18.575   0.230  0.00  0.00     0.009 A 
ATOM     18  C   UNL d   1      23.350 -17.890  -0.565  0.00  0.00    -0.061 A 
ATOM     19  C   UNL d   1      21.937 -18.385  -0.639  0.00  0.00     0.048 C 
ATOM     20  C   UNL d   1      23.805 -16.766  -1.270  0.00  0.00     0.015 A 
ATOM     21  C   UNL d   1      25.159 -16.323  -1.188  0.00  0.00    -0.035 A 
ATOM     22  C   UNL d   1      25.531 -15.106  -1.996  0.00  0.00     0.050 C 
ENDBRANCH  12  15
ENDBRANCH  10  11
ENDBRANCH   9  10
ENDBRANCH   1   9
BRANCH   3  23
ATOM     23  N   UNL d   1      31.004 -12.293   5.713  0.00  0.00    -0.382 N 
ATOM     24  H   UNL d   1      30.705 -11.736   6.498  0.00  0.00     0.157 HD
ATOM     25  H   UNL d   1      31.979 -12.575   5.705  0.00  0.00     0.157 HD
ENDBRANCH   3  23
BRANCH   4  26
ATOM     26  N   UNL d   1      29.111 -14.036   7.266  0.00  0.00    -0.315 N 
ATOM     27  C   UNL d   1      28.991 -12.980   8.174  0.00  0.00     0.263 C 
ATOM     28  O   UNL d   1      29.014 -11.784   7.853  0.00  0.00    -0.267 OA
ATOM     29  H   UNL d   1      28.991 -14.981   7.627  0.00  0.00     0.169 HD
BRANCH  27  30
ATOM     30  C   UNL d   1      28.840 -13.246   9.584  0.00  0.00     0.072 A 
ATOM     31  C   UNL d   1      28.324 -12.470  10.596  0.00  0.00     0.025 A 
ATOM     32  C   UNL d   1      28.155 -13.218  11.803  0.00  0.00     0.009 A 
ATOM     33  C   UNL d   1      28.531 -14.535  11.671  0.00  0.00     0.050 A 
ATOM     34  S   UNL d   1      29.083 -14.879  10.100  0.00  0.00    -0.097 SA
ENDBRANCH  27  30
ENDBRANCH   4  26
TORSDOF 7
ENDMDL
MODEL 5
REMARK VINA RESULT:    -8.081      7.710     10.002
REMARK INTER + INTRA:         -12.926
REMARK INTER:                 -10.169
REMARK INTRA:                  -2.757
REMARK CONF_INDEPENDENT:        2.088
REMARK UNBOUND:                -2.757
REMARK  7 active torsions:
REMARK  status: ('A' for Active; 'I' for Inactive)
REMARK    1  A    between atoms: C_5  and  N_6 
REMARK       I    between atoms: N_6  and  C_7 
REMARK    2  A    between atoms: C_7  and  C_9 
REMARK    3  A    between atoms: C_9  and  S_10 
REMARK    4  A    between atoms: S_10  and  C_11 
REMARK    5  A    between atoms: C_13  and  N_14 
REMARK    6  A    between atoms: C_15  and  N_16 
REMARK       I    between atoms: N_16  and  C_17 
REMARK    7  A    between atoms: C_17  and  C_19 
ROOT
ATOM      1  C   UNL d   1      28.355 -13.109   2.939  0.00  0.00     0.171 A 
ATOM      2  N   UNL d   1      28.002 -12.143   3.697  0.00  0.00    -0.205 NA
ATOM      3  C   UNL d   1      28.098 -12.252   5.049  0.00  0.00     0.156 A 
ATOM      4  C   UNL d   1      28.466 -13.394   5.690  0.00  0.00     0.149 A 
ATOM      5  C   UNL d   1      28.902 -14.513   4.755  0.00  0.00     0.278 A 
ATOM      6  O   UNL d   1      29.353 -15.575   5.183  0.00  0.00    -0.265 OA
ATOM      7  N   UNL d   1      28.800 -14.292   3.405  0.00  0.00    -0.300 N 
ATOM      8  H   UNL d   1      29.088 -15.022   2.777  0.00  0.00     0.171 HD
ENDROOT
BRANCH   1   9
ATOM      9  S   UNL d   1      28.231 -12.788   1.262  0.00  0.00    -0.083 SA
BRANCH   9  10
ATOM     10  C   UNL d   1      28.631 -14.254   0.288  0.00  0.00     0.185 C 
BRANCH  10  11
ATOM     11  C   UNL d   1      27.505 -15.272   0.523  0.00  0.00     0.231 C 
ATOM     12  N   UNL d   1      26.642 -15.496  -0.548  0.00  0.00    -0.326 N 
ATOM     13  H   UNL d   1      26.802 -14.980  -1.401  0.00  0.00     0.169 HD
ATOM     14  O   UNL d   1      27.405 -15.835   1.612  0.00  0.00    -0.272 OA
BRANCH  12  15
ATOM     15  C   UNL d   1      25.533 -16.403  -0.522  0.00  0.00     0.040 A 
ATOM     16  C   UNL d   1      24.250 -15.971  -0.887  0.00  0.00     0.030 A 
ATOM     17  C   UNL d   1      23.138 -16.802  -0.887  0.00  0.00     0.009 A 
ATOM     18  C   UNL d   1      23.260 -18.128  -0.518  0.00  0.00    -0.061 A 
ATOM     19  C   UNL d   1      22.036 -18.992  -0.527  0.00  0.00     0.048 C 
ATOM     20  C   UNL d   1      24.528 -18.600  -0.145  0.00  0.00     0.015 A 
ATOM     21  C   UNL d   1      25.675 -17.753  -0.136  0.00  0.00    -0.035 A 
ATOM     22  C   UNL d   1      26.981 -18.372   0.288  0.00  0.00     0.050 C 
ENDBRANCH  12  15
ENDBRANCH  10  11
ENDBRANCH   9  10
ENDBRANCH   1   9
BRANCH   3  23
ATOM     23  N   UNL d   1      27.845 -11.065   5.662  0.00  0.00    -0.382 N 
ATOM     24  H   UNL d   1      27.030 -11.019   6.253  0.00  0.00     0.157 HD
ATOM     25  H   UNL d   1      28.631 -10.480   5.929  0.00  0.00     0.157 HD
ENDBRANCH   3  23
BRANCH   4  26
ATOM     26  N   UNL d   1      28.536 -13.619   7.088  0.00  0.00    -0.315 N 
ATOM     27  C   UNL d   1      28.517 -12.665   8.109  0.00  0.00     0.263 C 
ATOM     28  O   UNL d   1      28.440 -11.444   7.915  0.00  0.00    -0.267 OA
ATOM     29  H   UNL d   1      28.512 -14.600   7.362  0.00  0.00     0.169 HD
BRANCH  27  30
ATOM     30  C   UNL d   1      28.598 -13.075   9.489  0.00  0.00     0.072 A 
ATOM     31  C   UNL d   1      27.902 -12.648  10.597  0.00  0.00     0.025 A 
ATOM     32  C   UNL d   1      28.139 -13.490  11.729  0.00  0.00     0.009 A 
ATOM     33  C   UNL d   1      28.990 -14.535  11.446  0.00  0.00     0.050 A 
ATOM     34  S   UNL d   1      29.504 -14.509   9.826  0.00  0.00    -0.097 SA
ENDBRANCH  27  30
ENDBRANCH   4  26
TORSDOF 7
ENDMDL
MODEL 6
REMARK VINA RESULT:    -7.983      4.103      6.441
REMARK INTER + INTRA:         -12.630
REMARK INTER:                 -10.071
REMARK INTRA:                  -2.559
REMARK CONF_INDEPENDENT:        2.088
REMARK UNBOUND:                -2.559
REMARK  7 active torsions:
REMARK  status: ('A' for Active; 'I' for Inactive)
REMARK    1  A    between atoms: C_5  and  N_6 
REMARK       I    between atoms: N_6  and  C_7 
REMARK    2  A    between atoms: C_7  and  C_9 
REMARK    3  A    between atoms: C_9  and  S_10 
REMARK    4  A    between atoms: S_10  and  C_11 
REMARK    5  A    between atoms: C_13  and  N_14 
REMARK    6  A    between atoms: C_15  and  N_16 
REMARK       I    between atoms: N_16  and  C_17 
REMARK    7  A    between atoms: C_17  and  C_19 
ROOT
ATOM      1  C   UNL d   1      25.563 -15.928  -1.409  0.00  0.00     0.171 A 
ATOM      2  N   UNL d   1      24.343 -15.574  -1.547  0.00  0.00    -0.205 NA
ATOM      3  C   UNL d   1      23.338 -16.338  -1.042  0.00  0.00     0.156 A 
ATOM      4  C   UNL d   1      23.533 -17.552  -0.459  0.00  0.00     0.149 A 
ATOM      5  C   UNL d   1      24.998 -17.928  -0.292  0.00  0.00     0.278 A 
ATOM      6  O   UNL d   1      25.340 -18.950   0.302  0.00  0.00    -0.265 OA
ATOM      7  N   UNL d   1      25.939 -17.072  -0.806  0.00  0.00    -0.300 N 
ATOM      8  H   UNL d   1      26.910 -17.307  -0.698  0.00  0.00     0.171 HD
ENDROOT
BRANCH   1   9
ATOM      9  S   UNL d   1      26.707 -14.825  -2.047  0.00  0.00    -0.083 SA
BRANCH   9  10
ATOM     10  C   UNL d   1      28.321 -15.040  -1.269  0.00  0.00     0.185 C 
BRANCH  10  11
ATOM     11  C   UNL d   1      28.097 -14.993   0.251  0.00  0.00     0.231 C 
ATOM     12  N   UNL d   1      28.505 -13.829   0.898  0.00  0.00    -0.326 N 
ATOM     13  H   UNL d   1      28.922 -13.098   0.341  0.00  0.00     0.169 HD
ATOM     14  O   UNL d   1      27.585 -15.953   0.824  0.00  0.00    -0.272 OA
BRANCH  12  15
ATOM     15  C   UNL d   1      28.383 -13.598   2.308  0.00  0.00     0.040 A 
ATOM     16  C   UNL d   1      29.018 -14.448   3.226  0.00  0.00     0.030 A 
ATOM     17  C   UNL d   1      28.942 -14.275   4.602  0.00  0.00     0.009 A 
ATOM     18  C   UNL d   1      28.217 -13.224   5.131  0.00  0.00    -0.061 A 
ATOM     19  C   UNL d   1      28.156 -13.072   6.621  0.00  0.00     0.048 C 
ATOM     20  C   UNL d   1      27.567 -12.351   4.246  0.00  0.00     0.015 A 
ATOM     21  C   UNL d   1      27.634 -12.524   2.832  0.00  0.00    -0.035 A 
ATOM     22  C   UNL d   1      26.890 -11.526   1.983  0.00  0.00     0.050 C 
ENDBRANCH  12  15
ENDBRANCH  10  11
ENDBRANCH   9  10
ENDBRANCH   1   9
BRANCH   3  23
ATOM     23  N   UNL d   1      22.139 -15.706  -1.135  0.00  0.00    -0.382 N 
ATOM     24  H   UNL d   1      22.070 -14.947  -1.796  0.00  0.00     0.157 HD
ATOM     25  H   UNL d   1      21.293 -16.244  -0.978  0.00  0.00     0.157 HD
ENDBRANCH   3  23
BRANCH   4  26
ATOM     26  N   UNL d   1      22.548 -18.442   0.039  0.00  0.00    -0.315 N 
ATOM     27  C   UNL d   1      21.219 -18.566  -0.377  0.00  0.00     0.263 C 
ATOM     28  O   UNL d   1      20.706 -17.877  -1.270  0.00  0.00    -0.267 OA
ATOM     29  H   UNL d   1      22.892 -19.119   0.719  0.00  0.00     0.169 HD
BRANCH  27  30
ATOM     30  C   UNL d   1      20.350 -19.534   0.245  0.00  0.00     0.072 A 
ATOM     31  C   UNL d   1      20.273 -19.966   1.550  0.00  0.00     0.025 A 
ATOM     32  C   UNL d   1      19.109 -20.766   1.775  0.00  0.00     0.009 A 
ATOM     33  C   UNL d   1      18.332 -20.906   0.646  0.00  0.00     0.050 A 
ATOM     34  S   UNL d   1      18.994 -20.076  -0.682  0.00  0.00    -0.097 SA
ENDBRANCH  27  30
ENDBRANCH   4  26
TORSDOF 7
ENDMDL
MODEL 7
REMARK VINA RESULT:    -7.860      5.663      8.780
REMARK INTER + INTRA:         -12.789
REMARK INTER:                  -9.948
REMARK INTRA:                  -2.840
REMARK CONF_INDEPENDENT:        2.088
REMARK UNBOUND:                -2.840
REMARK  7 active torsions:
REMARK  status: ('A' for Active; 'I' for Inactive)
REMARK    1  A    between atoms: C_5  and  N_6 
REMARK       I    between atoms: N_6  and  C_7 
REMARK    2  A    between atoms: C_7  and  C_9 
REMARK    3  A    between atoms: C_9  and  S_10 
REMARK    4  A    between atoms: S_10  and  C_11 
REMARK    5  A    between atoms: C_13  and  N_14 
REMARK    6  A    between atoms: C_15  and  N_16 
REMARK       I    between atoms: N_16  and  C_17 
REMARK    7  A    between atoms: C_17  and  C_19 
ROOT
ATOM      1  C   UNL d   1      27.135 -12.688  -0.144  0.00  0.00     0.171 A 
ATOM      2  N   UNL d   1      27.531 -13.792   0.364  0.00  0.00    -0.205 NA
ATOM      3  C   UNL d   1      27.866 -13.869   1.680  0.00  0.00     0.156 A 
ATOM      4  C   UNL d   1      27.905 -12.794   2.513  0.00  0.00     0.149 A 
ATOM      5  C   UNL d   1      27.405 -11.504   1.879  0.00  0.00     0.278 A 
ATOM      6  O   UNL d   1      27.290 -10.466   2.530  0.00  0.00    -0.265 OA
ATOM      7  N   UNL d   1      27.058 -11.538   0.552  0.00  0.00    -0.300 N 
ATOM      8  H   UNL d   1      26.722 -10.693   0.123  0.00  0.00     0.171 HD
ENDROOT
BRANCH   1   9
ATOM      9  S   UNL d   1      26.694 -12.776  -1.795  0.00  0.00    -0.083 SA
BRANCH   9  10
ATOM     10  C   UNL d   1      27.249 -14.326  -2.535  0.00  0.00     0.185 C 
BRANCH  10  11
ATOM     11  C   UNL d   1      26.082 -15.319  -2.426  0.00  0.00     0.231 C 
ATOM     12  N   UNL d   1      25.730 -15.719  -1.139  0.00  0.00    -0.326 N 
ATOM     13  H   UNL d   1      26.256 -15.342  -0.366  0.00  0.00     0.169 HD
ATOM     14  O   UNL d   1      25.518 -15.716  -3.445  0.00  0.00    -0.272 OA
BRANCH  12  15
ATOM     15  C   UNL d   1      24.673 -16.638  -0.835  0.00  0.00     0.040 A 
ATOM     16  C   UNL d   1      23.343 -16.328  -1.157  0.00  0.00     0.030 A 
ATOM     17  C   UNL d   1      22.278 -17.178  -0.893  0.00  0.00     0.009 A 
ATOM     18  C   UNL d   1      22.497 -18.400  -0.286  0.00  0.00    -0.061 A 
ATOM     19  C   UNL d   1      21.321 -19.288  -0.014  0.00  0.00     0.048 C 
ATOM     20  C   UNL d   1      23.813 -18.748   0.053  0.00  0.00     0.015 A 
ATOM     21  C   UNL d   1      24.914 -17.879  -0.209  0.00  0.00    -0.035 A 
ATOM     22  C   UNL d   1      26.280 -18.360   0.205  0.00  0.00     0.050 C 
ENDBRANCH  12  15
ENDBRANCH  10  11
ENDBRANCH   9  10
ENDBRANCH   1   9
BRANCH   3  23
ATOM     23  N   UNL d   1      28.086 -15.155   2.062  0.00  0.00    -0.382 N 
ATOM     24  H   UNL d   1      28.863 -15.633   1.633  0.00  0.00     0.157 HD
ATOM     25  H   UNL d   1      27.860 -15.424   3.014  0.00  0.00     0.157 HD
ENDBRANCH   3  23
BRANCH   4  26
ATOM     26  N   UNL d   1      28.298 -12.767   3.875  0.00  0.00    -0.315 N 
ATOM     27  C   UNL d   1      27.889 -13.626   4.899  0.00  0.00     0.263 C 
ATOM     28  O   UNL d   1      27.089 -14.559   4.743  0.00  0.00    -0.267 OA
ATOM     29  H   UNL d   1      29.026 -12.089   4.094  0.00  0.00     0.169 HD
BRANCH  27  30
ATOM     30  C   UNL d   1      28.393 -13.452   6.239  0.00  0.00     0.072 A 
ATOM     31  C   UNL d   1      29.231 -14.239   6.995  0.00  0.00     0.025 A 
ATOM     32  C   UNL d   1      29.655 -13.570   8.186  0.00  0.00     0.009 A 
ATOM     33  C   UNL d   1      29.142 -12.298   8.293  0.00  0.00     0.050 A 
ATOM     34  S   UNL d   1      28.155 -11.901   6.967  0.00  0.00    -0.097 SA
ENDBRANCH  27  30
ENDBRANCH   4  26
TORSDOF 7
ENDMDL
MODEL 8
REMARK VINA RESULT:    -7.534      5.259      8.568
REMARK INTER + INTRA:         -12.439
REMARK INTER:                  -9.622
REMARK INTRA:                  -2.817
REMARK CONF_INDEPENDENT:        2.088
REMARK UNBOUND:                -2.817
REMARK  7 active torsions:
REMARK  status: ('A' for Active; 'I' for Inactive)
REMARK    1  A    between atoms: C_5  and  N_6 
REMARK       I    between atoms: N_6  and  C_7 
REMARK    2  A    between atoms: C_7  and  C_9 
REMARK    3  A    between atoms: C_9  and  S_10 
REMARK    4  A    between atoms: S_10  and  C_11 
REMARK    5  A    between atoms: C_13  and  N_14 
REMARK    6  A    between atoms: C_15  and  N_16 
REMARK       I    between atoms: N_16  and  C_17 
REMARK    7  A    between atoms: C_17  and  C_19 
ROOT
ATOM      1  C   UNL d   1      28.728 -14.893  -0.945  0.00  0.00     0.171 A 
ATOM      2  N   UNL d   1      27.696 -14.463  -0.325  0.00  0.00    -0.205 NA
ATOM      3  C   UNL d   1      27.728 -14.263   1.019  0.00  0.00     0.156 A 
ATOM      4  C   UNL d   1      28.789 -14.589   1.806  0.00  0.00     0.149 A 
ATOM      5  C   UNL d   1      30.006 -15.075   1.031  0.00  0.00     0.278 A 
ATOM      6  O   UNL d   1      31.074 -15.318   1.591  0.00  0.00    -0.265 OA
ATOM      7  N   UNL d   1      29.883 -15.210  -0.329  0.00  0.00    -0.300 N 
ATOM      8  H   UNL d   1      30.681 -15.526  -0.852  0.00  0.00     0.171 HD
ENDROOT
BRANCH   1   9
ATOM      9  S   UNL d   1      28.542 -15.031  -2.641  0.00  0.00    -0.083 SA
BRANCH   9  10
ATOM     10  C   UNL d   1      27.019 -14.236  -3.194  0.00  0.00     0.185 C 
BRANCH  10  11
ATOM     11  C   UNL d   1      25.870 -15.213  -2.901  0.00  0.00     0.231 C 
ATOM     12  N   UNL d   1      25.710 -15.596  -1.572  0.00  0.00    -0.326 N 
ATOM     13  H   UNL d   1      26.351 -15.220  -0.890  0.00  0.00     0.169 HD
ATOM     14  O   UNL d   1      25.155 -15.611  -3.820  0.00  0.00    -0.272 OA
BRANCH  12  15
ATOM     15  C   UNL d   1      24.699 -16.499  -1.102  0.00  0.00     0.040 A 
ATOM     16  C   UNL d   1      23.340 -16.196  -1.268  0.00  0.00     0.030 A 
ATOM     17  C   UNL d   1      22.316 -17.030  -0.840  0.00  0.00     0.009 A 
ATOM     18  C   UNL d   1      22.610 -18.229  -0.219  0.00  0.00    -0.061 A 
ATOM     19  C   UNL d   1      21.478 -19.101   0.232  0.00  0.00     0.048 C 
ATOM     20  C   UNL d   1      23.958 -18.570  -0.034  0.00  0.00     0.015 A 
ATOM     21  C   UNL d   1      25.017 -17.716  -0.465  0.00  0.00    -0.035 A 
ATOM     22  C   UNL d   1      26.425 -18.187  -0.206  0.00  0.00     0.050 C 
ENDBRANCH  12  15
ENDBRANCH  10  11
ENDBRANCH   9  10
ENDBRANCH   1   9
BRANCH   3  23
ATOM     23  N   UNL d   1      26.602 -13.640   1.455  0.00  0.00    -0.382 N 
ATOM     24  H   UNL d   1      26.455 -13.604   2.452  0.00  0.00     0.157 HD
ATOM     25  H   UNL d   1      26.239 -12.860   0.917  0.00  0.00     0.157 HD
ENDBRANCH   3  23
BRANCH   4  26
ATOM     26  N   UNL d   1      28.891 -14.474   3.215  0.00  0.00    -0.315 N 
ATOM     27  C   UNL d   1      28.217 -13.578   4.050  0.00  0.00     0.263 C 
ATOM     28  O   UNL d   1      27.414 -12.725   3.647  0.00  0.00    -0.267 OA
ATOM     29  H   UNL d   1      29.461 -15.192   3.661  0.00  0.00     0.169 HD
BRANCH  27  30
ATOM     30  C   UNL d   1      28.443 -13.601   5.474  0.00  0.00     0.072 A 
ATOM     31  C   UNL d   1      29.196 -14.449   6.253  0.00  0.00     0.025 A 
ATOM     32  C   UNL d   1      29.325 -13.966   7.592  0.00  0.00     0.009 A 
ATOM     33  C   UNL d   1      28.682 -12.764   7.789  0.00  0.00     0.050 A 
ATOM     34  S   UNL d   1      27.927 -12.213   6.369  0.00  0.00    -0.097 SA
ENDBRANCH  27  30
ENDBRANCH   4  26
TORSDOF 7
ENDMDL
MODEL 9
REMARK VINA RESULT:    -7.193      6.279      9.027
REMARK INTER + INTRA:         -12.211
REMARK INTER:                  -9.281
REMARK INTRA:                  -2.929
REMARK CONF_INDEPENDENT:        2.088
REMARK UNBOUND:                -2.929
REMARK  7 active torsions:
REMARK  status: ('A' for Active; 'I' for Inactive)
REMARK    1  A    between atoms: C_5  and  N_6 
REMARK       I    between atoms: N_6  and  C_7 
REMARK    2  A    between atoms: C_7  and  C_9 
REMARK    3  A    between atoms: C_9  and  S_10 
REMARK    4  A    between atoms: S_10  and  C_11 
REMARK    5  A    between atoms: C_13  and  N_14 
REMARK    6  A    between atoms: C_15  and  N_16 
REMARK       I    between atoms: N_16  and  C_17 
REMARK    7  A    between atoms: C_17  and  C_19 
ROOT
ATOM      1  C   UNL d   1      29.176 -14.467   0.660  0.00  0.00     0.171 A 
ATOM      2  N   UNL d   1      30.138 -14.688   1.472  0.00  0.00    -0.205 NA
ATOM      3  C   UNL d   1      29.996 -14.440   2.801  0.00  0.00     0.156 A 
ATOM      4  C   UNL d   1      28.893 -13.858   3.346  0.00  0.00     0.149 A 
ATOM      5  C   UNL d   1      27.761 -13.631   2.354  0.00  0.00     0.278 A 
ATOM      6  O   UNL d   1      26.665 -13.202   2.711  0.00  0.00    -0.265 OA
ATOM      7  N   UNL d   1      27.993 -13.948   1.039  0.00  0.00    -0.300 N 
ATOM      8  H   UNL d   1      27.252 -13.807   0.375  0.00  0.00     0.171 HD
ENDROOT
BRANCH   1   9
ATOM      9  S   UNL d   1      29.497 -14.892  -0.967  0.00  0.00    -0.083 SA
BRANCH   9  10
ATOM     10  C   UNL d   1      28.252 -14.202  -2.076  0.00  0.00     0.185 C 
BRANCH  10  11
ATOM     11  C   UNL d   1      26.886 -14.713  -1.592  0.00  0.00     0.231 C 
ATOM     12  N   UNL d   1      26.772 -16.089  -1.407  0.00  0.00    -0.326 N 
ATOM     13  H   UNL d   1      27.579 -16.662  -1.603  0.00  0.00     0.169 HD
ATOM     14  O   UNL d   1      25.970 -13.917  -1.392  0.00  0.00    -0.272 OA
BRANCH  12  15
ATOM     15  C   UNL d   1      25.581 -16.753  -0.964  0.00  0.00     0.040 A 
ATOM     16  C   UNL d   1      24.317 -16.255  -1.310  0.00  0.00     0.030 A 
ATOM     17  C   UNL d   1      23.128 -16.855  -0.916  0.00  0.00     0.009 A 
ATOM     18  C   UNL d   1      23.150 -18.003  -0.147  0.00  0.00    -0.061 A 
ATOM     19  C   UNL d   1      21.847 -18.620   0.261  0.00  0.00     0.048 C 
ATOM     20  C   UNL d   1      24.396 -18.534   0.220  0.00  0.00     0.015 A 
ATOM     21  C   UNL d   1      25.622 -17.922  -0.174  0.00  0.00    -0.035 A 
ATOM     22  C   UNL d   1      26.897 -18.581   0.286  0.00  0.00     0.050 C 
ENDBRANCH  12  15
ENDBRANCH  10  11
ENDBRANCH   9  10
ENDBRANCH   1   9
BRANCH   3  23
ATOM     23  N   UNL d   1      31.058 -14.905   3.510  0.00  0.00    -0.382 N 
ATOM     24  H   UNL d   1      31.432 -14.300   4.224  0.00  0.00     0.157 HD
ATOM     25  H   UNL d   1      31.127 -15.903   3.682  0.00  0.00     0.157 HD
ENDBRANCH   3  23
BRANCH   4  26
ATOM     26  N   UNL d   1      28.680 -13.507   4.702  0.00  0.00    -0.315 N 
ATOM     27  C   UNL d   1      29.257 -14.086   5.836  0.00  0.00     0.263 C 
ATOM     28  O   UNL d   1      30.059 -15.030   5.800  0.00  0.00    -0.267 OA
ATOM     29  H   UNL d   1      28.101 -12.679   4.842  0.00  0.00     0.169 HD
BRANCH  27  30
ATOM     30  C   UNL d   1      28.923 -13.599   7.152  0.00  0.00     0.072 A 
ATOM     31  C   UNL d   1      29.246 -14.082   8.399  0.00  0.00     0.025 A 
ATOM     32  C   UNL d   1      28.900 -13.156   9.432  0.00  0.00     0.009 A 
ATOM     33  C   UNL d   1      28.341 -11.997   8.943  0.00  0.00     0.050 A 
ATOM     34  S   UNL d   1      28.233 -12.016   7.247  0.00  0.00    -0.097 SA
ENDBRANCH  27  30
ENDBRANCH   4  26
TORSDOF 7
ENDMDL
