MODEL 1
REMARK VINA RESULT:    -7.598      0.000      0.000
REMARK INTER + INTRA:         -13.069
REMARK INTER:                 -10.581
REMARK INTRA:                  -2.488
REMARK CONF_INDEPENDENT:        2.983
REMARK UNBOUND:                -2.488
REMARK  10 active torsions:
REMARK  status: ('A' for Active; 'I' for Inactive)
REMARK    1  A    between atoms: C_8  and  O_9 
REMARK    2  A    between atoms: O_9  and  C_10 
REMARK    3  A    between atoms: C_10  and  C_11 
REMARK    4  A    between atoms: C_11  and  O_12 
REMARK    5  A    between atoms: C_11  and  C_13 
REMARK    6  A    between atoms: C_13  and  N_14 
REMARK       I    between atoms: N_14  and  C_15 
REMARK    7  A    between atoms: C_15  and  C_17 
REMARK    8  A    between atoms: C_20  and  N_21 
REMARK    9  A    between atoms: N_21  and  C_22 
REMARK   10  A    between atoms: C_25  and  N_26 
ROOT
ATOM      1  N   UNL d   1      26.246 -12.448  -2.278  0.00  0.00    -0.354 N 
ATOM      2  C   UNL d   1      27.107 -11.508  -1.762  0.00  0.00     0.251 C 
ATOM      3  O   UNL d   1      27.766 -10.718  -2.438  0.00  0.00    -0.268 OA
ATOM      4  H   UNL d   1      25.766 -13.112  -1.678  0.00  0.00     0.162 HD
ENDROOT
BRANCH   1   5
ATOM      5  C   UNL d   1      26.063 -12.615  -3.701  0.00  0.00     0.156 C 
BRANCH   5   6
ATOM      6  C   UNL d   1      25.468 -13.999  -4.031  0.00  0.00     0.160 C 
BRANCH   6   7
ATOM      7  C   UNL d   1      26.104 -15.030  -3.103  0.00  0.00     0.209 C 
BRANCH   7   8
ATOM      8  O   UNL d   1      25.676 -14.956  -1.747  0.00  0.00    -0.347 OA
BRANCH   8   9
ATOM      9  C   UNL d   1      25.762 -16.107  -0.983  0.00  0.00     0.080 A 
ATOM     10  C   UNL d   1      27.088 -16.442  -0.594  0.00  0.00    -0.028 A 
ATOM     11  C   UNL d   1      27.327 -17.579   0.200  0.00  0.00     0.009 A 
ATOM     12  C   UNL d   1      28.283 -15.616  -0.999  0.00  0.00     0.051 C 
ATOM     13  C   UNL d   1      26.280 -18.390   0.609  0.00  0.00     0.001 A 
ATOM     14  C   UNL d   1      24.985 -18.078   0.226  0.00  0.00     0.009 A 
ATOM     15  C   UNL d   1      24.698 -16.948  -0.568  0.00  0.00    -0.028 A 
ATOM     16  C   UNL d   1      23.237 -16.776  -0.894  0.00  0.00     0.051 C 
ENDBRANCH   8   9
ENDBRANCH   7   8
ENDBRANCH   6   7
BRANCH   6  17
ATOM     17  O   UNL d   1      24.047 -13.946  -3.852  0.00  0.00    -0.392 OA
ATOM     18  H   UNL d   1      23.660 -13.546  -4.651  0.00  0.00     0.210 HD
ENDBRANCH   6  17
ENDBRANCH   5   6
ENDBRANCH   1   5
BRANCH   2  19
ATOM     19  C   UNL d   1      27.274 -11.538  -0.299  0.00  0.00     0.034 C 
ATOM     20  C   UNL d   1      27.474 -12.705   0.428  0.00  0.00     0.019 C 
ATOM     21  C   UNL d   1      27.476 -12.658   1.836  0.00  0.00     0.032 C 
ATOM     22  C   UNL d   1      27.265 -11.456   2.567  0.00  0.00     0.061 C 
ATOM     23  C   UNL d   1      26.954 -10.322   1.768  0.00  0.00     0.130 C 
ATOM     24  C   UNL d   1      27.030 -10.357   0.370  0.00  0.00     0.055 C 
BRANCH  22  25
ATOM     25  N   UNL d   1      27.529 -11.563   3.968  0.00  0.00    -0.383 N 
ATOM     26  H   UNL d   1      27.255 -10.746   4.514  0.00  0.00     0.160 HD
BRANCH  25  27
ATOM     27  C   UNL d   1      28.198 -12.651   4.714  0.00  0.00     0.082 A 
ATOM     28  C   UNL d   1      27.780 -12.961   6.116  0.00  0.00     0.027 A 
ATOM     29  C   UNL d   1      27.405 -13.873   4.943  0.00  0.00     0.027 A 
ENDBRANCH  25  27
ENDBRANCH  22  25
BRANCH  23  30
ATOM     30  N   UNL d   1      26.337  -9.056   2.167  0.00  0.00    -0.113 N 
ATOM     31  O   UNL d   1      26.512  -8.657   3.323  0.00  0.00    -0.532 OA
ATOM     32  O   UNL d   1      25.516  -8.561   1.372  0.00  0.00    -0.532 OA
ENDBRANCH  23  30
ENDBRANCH   2  19
TORSDOF 10
ENDMDL
MODEL 2
REMARK VINA RESULT:    -7.394      2.398      3.852
REMARK INTER + INTRA:         -12.329
REMARK INTER:                 -10.377
REMARK INTRA:                  -1.952
REMARK CONF_INDEPENDENT:        2.983
REMARK UNBOUND:                -1.952
REMARK  10 active torsions:
REMARK  status: ('A' for Active; 'I' for Inactive)
REMARK    1  A    between atoms: C_8  and  O_9 
REMARK    2  A    between atoms: O_9  and  C_10 
REMARK    3  A    between atoms: C_10  and  C_11 
REMARK    4  A    between atoms: C_11  and  O_12 
REMARK    5  A    between atoms: C_11  and  C_13 
REMARK    6  A    between atoms: C_13  and  N_14 
REMARK       I    between atoms: N_14  and  C_15 
REMARK    7  A    between atoms: C_15  and  C_17 
REMARK    8  A    between atoms: C_20  and  N_21 
REMARK    9  A    between atoms: N_21  and  C_22 
REMARK   10  A    between atoms: C_25  and  N_26 
ROOT
ATOM      1  N   UNL d   1      27.676 -14.374   2.032  0.00  0.00    -0.354 N 
ATOM      2  C   UNL d   1      26.937 -13.230   2.223  0.00  0.00     0.251 C 
ATOM      3  O   UNL d   1      25.963 -12.905   1.545  0.00  0.00    -0.268 OA
ATOM      4  H   UNL d   1      28.504 -14.569   2.587  0.00  0.00     0.162 HD
ENDROOT
BRANCH   1   5
ATOM      5  C   UNL d   1      27.382 -15.302   0.965  0.00  0.00     0.156 C 
BRANCH   5   6
ATOM      6  C   UNL d   1      28.651 -16.053   0.510  0.00  0.00     0.160 C 
BRANCH   6   7
ATOM      7  C   UNL d   1      28.644 -16.128  -1.013  0.00  0.00     0.209 C 
BRANCH   7   8
ATOM      8  O   UNL d   1      27.812 -17.149  -1.556  0.00  0.00    -0.347 OA
BRANCH   8   9
ATOM      9  C   UNL d   1      26.454 -17.075  -1.296  0.00  0.00     0.080 A 
ATOM     10  C   UNL d   1      26.031 -17.889  -0.210  0.00  0.00    -0.028 A 
ATOM     11  C   UNL d   1      24.679 -17.903   0.180  0.00  0.00     0.009 A 
ATOM     12  C   UNL d   1      26.986 -18.761   0.567  0.00  0.00     0.051 C 
ATOM     13  C   UNL d   1      23.741 -17.131  -0.488  0.00  0.00     0.001 A 
ATOM     14  C   UNL d   1      24.143 -16.343  -1.555  0.00  0.00     0.009 A 
ATOM     15  C   UNL d   1      25.486 -16.295  -1.980  0.00  0.00    -0.028 A 
ATOM     16  C   UNL d   1      25.731 -15.392  -3.161  0.00  0.00     0.051 C 
ENDBRANCH   8   9
ENDBRANCH   7   8
ENDBRANCH   6   7
BRANCH   6  17
ATOM     17  O   UNL d   1      29.802 -15.348   0.991  0.00  0.00    -0.392 OA
ATOM     18  H   UNL d   1      30.291 -15.944   1.586  0.00  0.00     0.210 HD
ENDBRANCH   6  17
ENDBRANCH   5   6
ENDBRANCH   1   5
BRANCH   2  19
ATOM     19  C   UNL d   1      27.431 -12.328   3.277  0.00  0.00     0.034 C 
ATOM     20  C   UNL d   1      27.976 -12.771   4.476  0.00  0.00     0.019 C 
ATOM     21  C   UNL d   1      28.287 -11.841   5.488  0.00  0.00     0.032 C 
ATOM     22  C   UNL d   1      28.054 -10.445   5.348  0.00  0.00     0.061 C 
ATOM     23  C   UNL d   1      27.391 -10.071   4.147  0.00  0.00     0.130 C 
ATOM     24  C   UNL d   1      27.155 -10.987   3.114  0.00  0.00     0.055 C 
BRANCH  22  25
ATOM     25  N   UNL d   1      28.640  -9.642   6.376  0.00  0.00    -0.383 N 
ATOM     26  H   UNL d   1      28.309  -8.678   6.401  0.00  0.00     0.160 HD
BRANCH  25  27
ATOM     27  C   UNL d   1      29.695  -9.994   7.351  0.00  0.00     0.082 A 
ATOM     28  C   UNL d   1      29.674  -9.398   8.722  0.00  0.00     0.027 A 
ATOM     29  C   UNL d   1      29.290 -10.861   8.472  0.00  0.00     0.027 A 
ENDBRANCH  25  27
ENDBRANCH  22  25
BRANCH  23  30
ATOM     30  N   UNL d   1      26.682  -8.828   3.836  0.00  0.00    -0.113 N 
ATOM     31  O   UNL d   1      25.928  -8.813   2.858  0.00  0.00    -0.532 OA
ATOM     32  O   UNL d   1      27.034  -7.813   4.465  0.00  0.00    -0.532 OA
ENDBRANCH  23  30
ENDBRANCH   2  19
TORSDOF 10
ENDMDL
MODEL 3
REMARK VINA RESULT:    -7.307      7.437      9.616
REMARK INTER + INTRA:         -12.648
REMARK INTER:                 -10.290
REMARK INTRA:                  -2.358
REMARK CONF_INDEPENDENT:        2.983
REMARK UNBOUND:                -2.358
REMARK  10 active torsions:
REMARK  status: ('A' for Active; 'I' for Inactive)
REMARK    1  A    between atoms: C_8  and  O_9 
REMARK    2  A    between atoms: O_9  and  C_10 
REMARK    3  A    between atoms: C_10  and  C_11 
REMARK    4  A    between atoms: C_11  and  O_12 
REMARK    5  A    between atoms: C_11  and  C_13 
REMARK    6  A    between atoms: C_13  and  N_14 
REMARK       I    between atoms: N_14  and  C_15 
REMARK    7  A    between atoms: C_15  and  C_17 
REMARK    8  A    between atoms: C_20  and  N_21 
REMARK    9  A    between atoms: N_21  and  C_22 
REMARK   10  A    between atoms: C_25  and  N_26 
ROOT
ATOM      1  N   UNL d   1      31.906 -19.432   0.839  0.00  0.00    -0.354 N 
ATOM      2  C   UNL d   1      32.315 -20.688   1.224  0.00  0.00     0.251 C 
ATOM      3  O   UNL d   1      32.267 -21.688   0.510  0.00  0.00    -0.268 OA
ATOM      4  H   UNL d   1      31.917 -18.650   1.486  0.00  0.00     0.162 HD
ENDROOT
BRANCH   1   5
ATOM      5  C   UNL d   1      31.338 -19.182  -0.465  0.00  0.00     0.156 C 
BRANCH   5   6
ATOM      6  C   UNL d   1      30.783 -17.747  -0.570  0.00  0.00     0.160 C 
BRANCH   6   7
ATOM      7  C   UNL d   1      29.295 -17.829  -0.898  0.00  0.00     0.209 C 
BRANCH   7   8
ATOM      8  O   UNL d   1      28.508 -16.770  -0.363  0.00  0.00    -0.347 OA
BRANCH   8   9
ATOM      9  C   UNL d   1      27.184 -16.690  -0.762  0.00  0.00     0.080 A 
ATOM     10  C   UNL d   1      26.322 -17.588  -0.075  0.00  0.00    -0.028 A 
ATOM     11  C   UNL d   1      24.945 -17.607  -0.364  0.00  0.00     0.009 A 
ATOM     12  C   UNL d   1      26.823 -18.545   0.977  0.00  0.00     0.051 C 
ATOM     13  C   UNL d   1      24.410 -16.759  -1.321  0.00  0.00     0.001 A 
ATOM     14  C   UNL d   1      25.245 -15.888  -2.004  0.00  0.00     0.009 A 
ATOM     15  C   UNL d   1      26.630 -15.832  -1.747  0.00  0.00    -0.028 A 
ATOM     16  C   UNL d   1      27.377 -14.834  -2.592  0.00  0.00     0.051 C 
ENDBRANCH   8   9
ENDBRANCH   7   8
ENDBRANCH   6   7
BRANCH   6  17
ATOM     17  O   UNL d   1      31.004 -17.074   0.677  0.00  0.00    -0.392 OA
ATOM     18  H   UNL d   1      30.135 -16.832   1.044  0.00  0.00     0.210 HD
ENDBRANCH   6  17
ENDBRANCH   5   6
ENDBRANCH   1   5
BRANCH   2  19
ATOM     19  C   UNL d   1      32.763 -20.805   2.622  0.00  0.00     0.034 C 
ATOM     20  C   UNL d   1      34.067 -21.117   2.987  0.00  0.00     0.019 C 
ATOM     21  C   UNL d   1      34.374 -21.353   4.342  0.00  0.00     0.032 C 
ATOM     22  C   UNL d   1      33.396 -21.301   5.374  0.00  0.00     0.061 C 
ATOM     23  C   UNL d   1      32.065 -21.089   4.921  0.00  0.00     0.130 C 
ATOM     24  C   UNL d   1      31.778 -20.779   3.585  0.00  0.00     0.055 C 
BRANCH  22  25
ATOM     25  N   UNL d   1      33.932 -21.340   6.699  0.00  0.00    -0.383 N 
ATOM     26  H   UNL d   1      34.247 -20.438   7.055  0.00  0.00     0.160 HD
BRANCH  25  27
ATOM     27  C   UNL d   1      34.153 -22.503   7.586  0.00  0.00     0.082 A 
ATOM     28  C   UNL d   1      34.666 -23.788   7.019  0.00  0.00     0.027 A 
ATOM     29  C   UNL d   1      35.556 -22.864   7.858  0.00  0.00     0.027 A 
ENDBRANCH  25  27
ENDBRANCH  22  25
BRANCH  23  30
ATOM     30  N   UNL d   1      30.804 -21.336   5.622  0.00  0.00    -0.113 N 
ATOM     31  O   UNL d   1      30.780 -21.205   6.850  0.00  0.00    -0.532 OA
ATOM     32  O   UNL d   1      29.887 -21.850   4.954  0.00  0.00    -0.532 OA
ENDBRANCH  23  30
ENDBRANCH   2  19
TORSDOF 10
ENDMDL
MODEL 4
REMARK VINA RESULT:    -7.230      3.029      4.762
REMARK INTER + INTRA:         -12.072
REMARK INTER:                 -10.213
REMARK INTRA:                  -1.858
REMARK CONF_INDEPENDENT:        2.983
REMARK UNBOUND:                -1.858
REMARK  10 active torsions:
REMARK  status: ('A' for Active; 'I' for Inactive)
REMARK    1  A    between atoms: C_8  and  O_9 
REMARK    2  A    between atoms: O_9  and  C_10 
REMARK    3  A    between atoms: C_10  and  C_11 
REMARK    4  A    between atoms: C_11  and  O_12 
REMARK    5  A    between atoms: C_11  and  C_13 
REMARK    6  A    between atoms: C_13  and  N_14 
REMARK       I    between atoms: N_14  and  C_15 
REMARK    7  A    between atoms: C_15  and  C_17 
REMARK    8  A    between atoms: C_20  and  N_21 
REMARK    9  A    between atoms: N_21  and  C_22 
REMARK   10  A    between atoms: C_25  and  N_26 
ROOT
ATOM      1  N   UNL d   1      28.191 -14.766   2.301  0.00  0.00    -0.354 N 
ATOM      2  C   UNL d   1      27.587 -13.843   3.123  0.00  0.00     0.251 C 
ATOM      3  O   UNL d   1      26.634 -13.136   2.799  0.00  0.00    -0.268 OA
ATOM      4  H   UNL d   1      29.010 -15.286   2.600  0.00  0.00     0.162 HD
ENDROOT
BRANCH   1   5
ATOM      5  C   UNL d   1      27.763 -14.966   0.936  0.00  0.00     0.156 C 
BRANCH   5   6
ATOM      6  C   UNL d   1      28.619 -16.039   0.232  0.00  0.00     0.160 C 
BRANCH   6   7
ATOM      7  C   UNL d   1      28.442 -15.883  -1.275  0.00  0.00     0.209 C 
BRANCH   7   8
ATOM      8  O   UNL d   1      27.567 -16.833  -1.874  0.00  0.00    -0.347 OA
BRANCH   8   9
ATOM      9  C   UNL d   1      26.318 -17.005  -1.302  0.00  0.00     0.080 A 
ATOM     10  C   UNL d   1      25.290 -16.246  -1.925  0.00  0.00    -0.028 A 
ATOM     11  C   UNL d   1      23.964 -16.334  -1.461  0.00  0.00     0.009 A 
ATOM     12  C   UNL d   1      25.556 -15.329  -3.093  0.00  0.00     0.051 C 
ATOM     13  C   UNL d   1      23.642 -17.153  -0.390  0.00  0.00     0.001 A 
ATOM     14  C   UNL d   1      24.640 -17.888   0.231  0.00  0.00     0.009 A 
ATOM     15  C   UNL d   1      25.980 -17.834  -0.201  0.00  0.00    -0.028 A 
ATOM     16  C   UNL d   1      26.925 -18.691   0.601  0.00  0.00     0.051 C 
ENDBRANCH   8   9
ENDBRANCH   7   8
ENDBRANCH   6   7
BRANCH   6  17
ATOM     17  O   UNL d   1      29.988 -15.863   0.616  0.00  0.00    -0.392 OA
ATOM     18  H   UNL d   1      30.058 -16.051   1.569  0.00  0.00     0.210 HD
ENDBRANCH   6  17
ENDBRANCH   5   6
ENDBRANCH   1   5
BRANCH   2  19
ATOM     19  C   UNL d   1      28.210 -13.673   4.447  0.00  0.00     0.034 C 
ATOM     20  C   UNL d   1      28.443 -14.723   5.327  0.00  0.00     0.019 C 
ATOM     21  C   UNL d   1      28.907 -14.452   6.629  0.00  0.00     0.032 C 
ATOM     22  C   UNL d   1      29.141 -13.131   7.104  0.00  0.00     0.061 C 
ATOM     23  C   UNL d   1      28.776 -12.100   6.195  0.00  0.00     0.130 C 
ATOM     24  C   UNL d   1      28.390 -12.376   4.878  0.00  0.00     0.055 C 
BRANCH  22  25
ATOM     25  N   UNL d   1      29.823 -13.066   8.359  0.00  0.00    -0.383 N 
ATOM     26  H   UNL d   1      30.202 -12.148   8.588  0.00  0.00     0.160 HD
BRANCH  25  27
ATOM     27  C   UNL d   1      30.109 -14.148   9.326  0.00  0.00     0.082 A 
ATOM     28  C   UNL d   1      29.725 -13.987  10.762  0.00  0.00     0.027 A 
ATOM     29  C   UNL d   1      28.947 -14.911   9.818  0.00  0.00     0.027 A 
ENDBRANCH  25  27
ENDBRANCH  22  25
BRANCH  23  30
ATOM     30  N   UNL d   1      28.534 -10.681   6.462  0.00  0.00    -0.113 N 
ATOM     31  O   UNL d   1      28.165  -9.963   5.527  0.00  0.00    -0.532 OA
ATOM     32  O   UNL d   1      28.903 -10.252   7.571  0.00  0.00    -0.532 OA
ENDBRANCH  23  30
ENDBRANCH   2  19
TORSDOF 10
ENDMDL
MODEL 5
REMARK VINA RESULT:    -7.155      5.425      8.544
REMARK INTER + INTRA:         -12.348
REMARK INTER:                 -10.138
REMARK INTRA:                  -2.210
REMARK CONF_INDEPENDENT:        2.983
REMARK UNBOUND:                -2.210
REMARK  10 active torsions:
REMARK  status: ('A' for Active; 'I' for Inactive)
REMARK    1  A    between atoms: C_8  and  O_9 
REMARK    2  A    between atoms: O_9  and  C_10 
REMARK    3  A    between atoms: C_10  and  C_11 
REMARK    4  A    between atoms: C_11  and  O_12 
REMARK    5  A    between atoms: C_11  and  C_13 
REMARK    6  A    between atoms: C_13  and  N_14 
REMARK       I    between atoms: N_14  and  C_15 
REMARK    7  A    between atoms: C_15  and  C_17 
REMARK    8  A    between atoms: C_20  and  N_21 
REMARK    9  A    between atoms: N_21  and  C_22 
REMARK   10  A    between atoms: C_25  and  N_26 
ROOT
ATOM      1  N   UNL d   1      29.790 -18.053  -0.538  0.00  0.00    -0.354 N 
ATOM      2  C   UNL d   1      29.148 -17.055  -1.235  0.00  0.00     0.251 C 
ATOM      3  O   UNL d   1      29.713 -16.216  -1.935  0.00  0.00    -0.268 OA
ATOM      4  H   UNL d   1      29.280 -18.687   0.069  0.00  0.00     0.162 HD
ENDROOT
BRANCH   1   5
ATOM      5  C   UNL d   1      31.228 -18.183  -0.545  0.00  0.00     0.156 C 
BRANCH   5   6
ATOM      6  C   UNL d   1      31.664 -19.607  -0.143  0.00  0.00     0.160 C 
BRANCH   6   7
ATOM      7  C   UNL d   1      32.300 -19.543   1.241  0.00  0.00     0.209 C 
BRANCH   7   8
ATOM      8  O   UNL d   1      31.955 -20.619   2.107  0.00  0.00    -0.347 OA
BRANCH   8   9
ATOM      9  C   UNL d   1      32.618 -20.706   3.319  0.00  0.00     0.080 A 
ATOM     10  C   UNL d   1      31.813 -21.199   4.382  0.00  0.00    -0.028 A 
ATOM     11  C   UNL d   1      32.359 -21.357   5.669  0.00  0.00     0.009 A 
ATOM     12  C   UNL d   1      30.365 -21.575   4.192  0.00  0.00     0.051 C 
ATOM     13  C   UNL d   1      33.682 -21.030   5.923  0.00  0.00     0.001 A 
ATOM     14  C   UNL d   1      34.472 -20.537   4.896  0.00  0.00     0.009 A 
ATOM     15  C   UNL d   1      33.969 -20.365   3.590  0.00  0.00    -0.028 A 
ATOM     16  C   UNL d   1      34.969 -19.809   2.609  0.00  0.00     0.051 C 
ENDBRANCH   8   9
ENDBRANCH   7   8
ENDBRANCH   6   7
BRANCH   6  17
ATOM     17  O   UNL d   1      30.512 -20.461  -0.147  0.00  0.00    -0.392 OA
ATOM     18  H   UNL d   1      30.193 -20.536   0.770  0.00  0.00     0.210 HD
ENDBRANCH   6  17
ENDBRANCH   5   6
ENDBRANCH   1   5
BRANCH   2  19
ATOM     19  C   UNL d   1      27.690 -16.982  -1.035  0.00  0.00     0.034 C 
ATOM     20  C   UNL d   1      26.988 -17.824  -0.181  0.00  0.00     0.019 C 
ATOM     21  C   UNL d   1      25.580 -17.783  -0.162  0.00  0.00     0.032 C 
ATOM     22  C   UNL d   1      24.824 -16.916  -0.999  0.00  0.00     0.061 C 
ATOM     23  C   UNL d   1      25.596 -16.164  -1.927  0.00  0.00     0.130 C 
ATOM     24  C   UNL d   1      26.996 -16.152  -1.888  0.00  0.00     0.055 C 
BRANCH  22  25
ATOM     25  N   UNL d   1      23.433 -16.849  -0.678  0.00  0.00    -0.383 N 
ATOM     26  H   UNL d   1      23.006 -15.936  -0.829  0.00  0.00     0.160 HD
BRANCH  25  27
ATOM     27  C   UNL d   1      22.554 -17.891  -0.101  0.00  0.00     0.082 A 
ATOM     28  C   UNL d   1      21.536 -18.568  -0.960  0.00  0.00     0.027 A 
ATOM     29  C   UNL d   1      22.820 -19.279  -0.520  0.00  0.00     0.027 A 
ENDBRANCH  25  27
ENDBRANCH  22  25
BRANCH  23  30
ATOM     30  N   UNL d   1      25.159 -15.478  -3.144  0.00  0.00    -0.113 N 
ATOM     31  O   UNL d   1      25.755 -15.719  -4.199  0.00  0.00    -0.532 OA
ATOM     32  O   UNL d   1      24.341 -14.551  -2.998  0.00  0.00    -0.532 OA
ENDBRANCH  23  30
ENDBRANCH   2  19
TORSDOF 10
ENDMDL
MODEL 6
REMARK VINA RESULT:    -7.012      0.201      1.639
REMARK INTER + INTRA:         -13.180
REMARK INTER:                  -9.995
REMARK INTRA:                  -3.186
REMARK CONF_INDEPENDENT:        2.983
REMARK UNBOUND:                -3.186
REMARK  10 active torsions:
REMARK  status: ('A' for Active; 'I' for Inactive)
REMARK    1  A    between atoms: C_8  and  O_9 
REMARK    2  A    between atoms: O_9  and  C_10 
REMARK    3  A    between atoms: C_10  and  C_11 
REMARK    4  A    between atoms: C_11  and  O_12 
REMARK    5  A    between atoms: C_11  and  C_13 
REMARK    6  A    between atoms: C_13  and  N_14 
REMARK       I    between atoms: N_14  and  C_15 
REMARK    7  A    between atoms: C_15  and  C_17 
REMARK    8  A    between atoms: C_20  and  N_21 
REMARK    9  A    between atoms: N_21  and  C_22 
REMARK   10  A    between atoms: C_25  and  N_26 
ROOT
ATOM      1  N   UNL d   1      26.339 -12.438  -2.225  0.00  0.00    -0.354 N 
ATOM      2  C   UNL d   1      27.236 -11.540  -1.695  0.00  0.00     0.251 C 
ATOM      3  O   UNL d   1      27.968 -10.807  -2.359  0.00  0.00    -0.268 OA
ATOM      4  H   UNL d   1      25.797 -13.058  -1.632  0.00  0.00     0.162 HD
ENDROOT
BRANCH   1   5
ATOM      5  C   UNL d   1      26.201 -12.625  -3.651  0.00  0.00     0.156 C 
BRANCH   5   6
ATOM      6  C   UNL d   1      25.706 -14.047  -3.984  0.00  0.00     0.160 C 
BRANCH   6   7
ATOM      7  C   UNL d   1      26.348 -15.022  -3.003  0.00  0.00     0.209 C 
BRANCH   7   8
ATOM      8  O   UNL d   1      25.649 -15.177  -1.772  0.00  0.00    -0.347 OA
BRANCH   8   9
ATOM      9  C   UNL d   1      25.977 -16.264  -0.980  0.00  0.00     0.080 A 
ATOM     10  C   UNL d   1      24.858 -17.049  -0.588  0.00  0.00    -0.028 A 
ATOM     11  C   UNL d   1      25.042 -18.196   0.206  0.00  0.00     0.009 A 
ATOM     12  C   UNL d   1      23.447 -16.706  -0.995  0.00  0.00     0.051 C 
ATOM     13  C   UNL d   1      26.309 -18.574   0.622  0.00  0.00     0.001 A 
ATOM     14  C   UNL d   1      27.404 -17.808   0.254  0.00  0.00     0.009 A 
ATOM     15  C   UNL d   1      27.269 -16.653  -0.542  0.00  0.00    -0.028 A 
ATOM     16  C   UNL d   1      28.566 -15.944  -0.830  0.00  0.00     0.051 C 
ENDBRANCH   8   9
ENDBRANCH   7   8
ENDBRANCH   6   7
BRANCH   6  17
ATOM     17  O   UNL d   1      24.277 -14.074  -3.885  0.00  0.00    -0.392 OA
ATOM     18  H   UNL d   1      24.046 -14.328  -2.973  0.00  0.00     0.210 HD
ENDBRANCH   6  17
ENDBRANCH   5   6
ENDBRANCH   1   5
BRANCH   2  19
ATOM     19  C   UNL d   1      27.343 -11.548  -0.226  0.00  0.00     0.034 C 
ATOM     20  C   UNL d   1      27.556 -12.698   0.523  0.00  0.00     0.019 C 
ATOM     21  C   UNL d   1      27.499 -12.636   1.930  0.00  0.00     0.032 C 
ATOM     22  C   UNL d   1      27.215 -11.434   2.636  0.00  0.00     0.061 C 
ATOM     23  C   UNL d   1      26.896 -10.322   1.811  0.00  0.00     0.130 C 
ATOM     24  C   UNL d   1      27.030 -10.370   0.418  0.00  0.00     0.055 C 
BRANCH  22  25
ATOM     25  N   UNL d   1      27.425 -11.515   4.048  0.00  0.00    -0.383 N 
ATOM     26  H   UNL d   1      27.039 -10.735   4.579  0.00  0.00     0.160 HD
BRANCH  25  27
ATOM     27  C   UNL d   1      28.174 -12.526   4.827  0.00  0.00     0.082 A 
ATOM     28  C   UNL d   1      27.780 -12.823   6.238  0.00  0.00     0.027 A 
ATOM     29  C   UNL d   1      27.475 -13.797   5.094  0.00  0.00     0.027 A 
ENDBRANCH  25  27
ENDBRANCH  22  25
BRANCH  23  30
ATOM     30  N   UNL d   1      26.217  -9.074   2.169  0.00  0.00    -0.113 N 
ATOM     31  O   UNL d   1      26.366  -8.633   3.313  0.00  0.00    -0.532 OA
ATOM     32  O   UNL d   1      25.379  -8.643   1.355  0.00  0.00    -0.532 OA
ENDBRANCH  23  30
ENDBRANCH   2  19
TORSDOF 10
ENDMDL
MODEL 7
REMARK VINA RESULT:    -6.928      2.228      3.908
REMARK INTER + INTRA:         -12.415
REMARK INTER:                  -9.911
REMARK INTRA:                  -2.504
REMARK CONF_INDEPENDENT:        2.983
REMARK UNBOUND:                -2.504
REMARK  10 active torsions:
REMARK  status: ('A' for Active; 'I' for Inactive)
REMARK    1  A    between atoms: C_8  and  O_9 
REMARK    2  A    between atoms: O_9  and  C_10 
REMARK    3  A    between atoms: C_10  and  C_11 
REMARK    4  A    between atoms: C_11  and  O_12 
REMARK    5  A    between atoms: C_11  and  C_13 
REMARK    6  A    between atoms: C_13  and  N_14 
REMARK       I    between atoms: N_14  and  C_15 
REMARK    7  A    between atoms: C_15  and  C_17 
REMARK    8  A    between atoms: C_20  and  N_21 
REMARK    9  A    between atoms: N_21  and  C_22 
REMARK   10  A    between atoms: C_25  and  N_26 
ROOT
ATOM      1  N   UNL d   1      27.916 -14.314   2.040  0.00  0.00    -0.354 N 
ATOM      2  C   UNL d   1      27.057 -13.314   1.648  0.00  0.00     0.251 C 
ATOM      3  O   UNL d   1      26.279 -13.393   0.698  0.00  0.00    -0.268 OA
ATOM      4  H   UNL d   1      28.576 -14.178   2.799  0.00  0.00     0.162 HD
ENDROOT
BRANCH   1   5
ATOM      5  C   UNL d   1      28.002 -15.567   1.327  0.00  0.00     0.156 C 
BRANCH   5   6
ATOM      6  C   UNL d   1      28.709 -15.392  -0.033  0.00  0.00     0.160 C 
BRANCH   6   7
ATOM      7  C   UNL d   1      28.384 -16.601  -0.903  0.00  0.00     0.209 C 
BRANCH   7   8
ATOM      8  O   UNL d   1      27.232 -16.450  -1.727  0.00  0.00    -0.347 OA
BRANCH   8   9
ATOM      9  C   UNL d   1      26.005 -16.789  -1.183  0.00  0.00     0.080 A 
ATOM     10  C   UNL d   1      24.915 -16.048  -1.715  0.00  0.00    -0.028 A 
ATOM     11  C   UNL d   1      23.604 -16.297  -1.268  0.00  0.00     0.009 A 
ATOM     12  C   UNL d   1      25.098 -14.981  -2.765  0.00  0.00     0.051 C 
ATOM     13  C   UNL d   1      23.356 -17.259  -0.302  0.00  0.00     0.001 A 
ATOM     14  C   UNL d   1      24.414 -17.980   0.231  0.00  0.00     0.009 A 
ATOM     15  C   UNL d   1      25.743 -17.767  -0.188  0.00  0.00    -0.028 A 
ATOM     16  C   UNL d   1      26.759 -18.633   0.509  0.00  0.00     0.051 C 
ENDBRANCH   8   9
ENDBRANCH   7   8
ENDBRANCH   6   7
BRANCH   6  17
ATOM     17  O   UNL d   1      28.250 -14.176  -0.638  0.00  0.00    -0.392 OA
ATOM     18  H   UNL d   1      27.361 -14.340  -1.000  0.00  0.00     0.210 HD
ENDBRANCH   6  17
ENDBRANCH   5   6
ENDBRANCH   1   5
BRANCH   2  19
ATOM     19  C   UNL d   1      27.168 -12.054   2.402  0.00  0.00     0.034 C 
ATOM     20  C   UNL d   1      27.823 -11.944   3.622  0.00  0.00     0.019 C 
ATOM     21  C   UNL d   1      27.755 -10.736   4.345  0.00  0.00     0.032 C 
ATOM     22  C   UNL d   1      27.022  -9.606   3.888  0.00  0.00     0.061 C 
ATOM     23  C   UNL d   1      26.284  -9.821   2.692  0.00  0.00     0.130 C 
ATOM     24  C   UNL d   1      26.417 -10.994   1.939  0.00  0.00     0.055 C 
BRANCH  22  25
ATOM     25  N   UNL d   1      27.257  -8.409   4.633  0.00  0.00    -0.383 N 
ATOM     26  H   UNL d   1      26.805  -8.384   5.547  0.00  0.00     0.160 HD
BRANCH  25  27
ATOM     27  C   UNL d   1      27.998  -7.191   4.241  0.00  0.00     0.082 A 
ATOM     28  C   UNL d   1      27.773  -6.581   2.895  0.00  0.00     0.027 A 
ATOM     29  C   UNL d   1      27.218  -5.942   4.172  0.00  0.00     0.027 A 
ENDBRANCH  25  27
ENDBRANCH  22  25
BRANCH  23  30
ATOM     30  N   UNL d   1      25.169  -9.044   2.147  0.00  0.00    -0.113 N 
ATOM     31  O   UNL d   1      24.052  -9.571   2.105  0.00  0.00    -0.532 OA
ATOM     32  O   UNL d   1      25.460  -7.973   1.583  0.00  0.00    -0.532 OA
ENDBRANCH  23  30
ENDBRANCH   2  19
TORSDOF 10
ENDMDL
MODEL 8
REMARK VINA RESULT:    -6.377      3.395      7.188
REMARK INTER + INTRA:         -12.676
REMARK INTER:                  -9.360
REMARK INTRA:                  -3.315
REMARK CONF_INDEPENDENT:        2.983
REMARK UNBOUND:                -3.315
REMARK  10 active torsions:
REMARK  status: ('A' for Active; 'I' for Inactive)
REMARK    1  A    between atoms: C_8  and  O_9 
REMARK    2  A    between atoms: O_9  and  C_10 
REMARK    3  A    between atoms: C_10  and  C_11 
REMARK    4  A    between atoms: C_11  and  O_12 
REMARK    5  A    between atoms: C_11  and  C_13 
REMARK    6  A    between atoms: C_13  and  N_14 
REMARK       I    between atoms: N_14  and  C_15 
REMARK    7  A    between atoms: C_15  and  C_17 
REMARK    8  A    between atoms: C_20  and  N_21 
REMARK    9  A    between atoms: N_21  and  C_22 
REMARK   10  A    between atoms: C_25  and  N_26 
ROOT
ATOM      1  N   UNL d   1      30.218 -16.634   0.105  0.00  0.00    -0.354 N 
ATOM      2  C   UNL d   1      29.588 -16.726  -1.114  0.00  0.00     0.251 C 
ATOM      3  O   UNL d   1      30.167 -16.775  -2.199  0.00  0.00    -0.268 OA
ATOM      4  H   UNL d   1      29.691 -16.543   0.968  0.00  0.00     0.162 HD
ENDROOT
BRANCH   1   5
ATOM      5  C   UNL d   1      31.655 -16.553   0.216  0.00  0.00     0.156 C 
BRANCH   5   6
ATOM      6  C   UNL d   1      32.076 -15.665   1.405  0.00  0.00     0.160 C 
BRANCH   6   7
ATOM      7  C   UNL d   1      31.096 -14.501   1.507  0.00  0.00     0.209 C 
BRANCH   7   8
ATOM      8  O   UNL d   1      29.846 -14.825   2.107  0.00  0.00    -0.347 OA
BRANCH   8   9
ATOM      9  C   UNL d   1      28.812 -13.915   1.966  0.00  0.00     0.080 A 
ATOM     10  C   UNL d   1      28.098 -13.664   3.169  0.00  0.00    -0.028 A 
ATOM     11  C   UNL d   1      27.030 -12.748   3.181  0.00  0.00     0.009 A 
ATOM     12  C   UNL d   1      28.439 -14.348   4.469  0.00  0.00     0.051 C 
ATOM     13  C   UNL d   1      26.655 -12.083   2.024  0.00  0.00     0.001 A 
ATOM     14  C   UNL d   1      27.338 -12.329   0.844  0.00  0.00     0.009 A 
ATOM     15  C   UNL d   1      28.415 -13.236   0.784  0.00  0.00    -0.028 A 
ATOM     16  C   UNL d   1      29.028 -13.383  -0.584  0.00  0.00     0.051 C 
ENDBRANCH   8   9
ENDBRANCH   7   8
ENDBRANCH   6   7
BRANCH   6  17
ATOM     17  O   UNL d   1      32.068 -16.458   2.599  0.00  0.00    -0.392 OA
ATOM     18  H   UNL d   1      31.168 -16.432   2.969  0.00  0.00     0.210 HD
ENDBRANCH   6  17
ENDBRANCH   5   6
ENDBRANCH   1   5
BRANCH   2  19
ATOM     19  C   UNL d   1      28.116 -16.683  -1.070  0.00  0.00     0.034 C 
ATOM     20  C   UNL d   1      27.350 -17.470  -0.219  0.00  0.00     0.019 C 
ATOM     21  C   UNL d   1      25.946 -17.472  -0.345  0.00  0.00     0.032 C 
ATOM     22  C   UNL d   1      25.260 -16.706  -1.329  0.00  0.00     0.061 C 
ATOM     23  C   UNL d   1      26.106 -16.014  -2.238  0.00  0.00     0.130 C 
ATOM     24  C   UNL d   1      27.494 -15.953  -2.060  0.00  0.00     0.055 C 
BRANCH  22  25
ATOM     25  N   UNL d   1      23.842 -16.658  -1.156  0.00  0.00    -0.383 N 
ATOM     26  H   UNL d   1      23.380 -15.903  -1.662  0.00  0.00     0.160 HD
BRANCH  25  27
ATOM     27  C   UNL d   1      22.973 -17.498  -0.304  0.00  0.00     0.082 A 
ATOM     28  C   UNL d   1      21.781 -18.180  -0.895  0.00  0.00     0.027 A 
ATOM     29  C   UNL d   1      23.050 -18.954  -0.523  0.00  0.00     0.027 A 
ENDBRANCH  25  27
ENDBRANCH  22  25
BRANCH  23  30
ATOM     30  N   UNL d   1      25.782 -15.450  -3.550  0.00  0.00    -0.113 N 
ATOM     31  O   UNL d   1      26.606 -15.575  -4.462  0.00  0.00    -0.532 OA
ATOM     32  O   UNL d   1      24.780 -14.714  -3.607  0.00  0.00    -0.532 OA
ENDBRANCH  23  30
ENDBRANCH   2  19
TORSDOF 10
ENDMDL
MODEL 9
REMARK VINA RESULT:    -5.235      3.320      6.955
REMARK INTER + INTRA:         -11.972
REMARK INTER:                  -8.218
REMARK INTRA:                  -3.754
REMARK CONF_INDEPENDENT:        2.983
REMARK UNBOUND:                -3.754
REMARK  10 active torsions:
REMARK  status: ('A' for Active; 'I' for Inactive)
REMARK    1  A    between atoms: C_8  and  O_9 
REMARK    2  A    between atoms: O_9  and  C_10 
REMARK    3  A    between atoms: C_10  and  C_11 
REMARK    4  A    between atoms: C_11  and  O_12 
REMARK    5  A    between atoms: C_11  and  C_13 
REMARK    6  A    between atoms: C_13  and  N_14 
REMARK       I    between atoms: N_14  and  C_15 
REMARK    7  A    between atoms: C_15  and  C_17 
REMARK    8  A    between atoms: C_20  and  N_21 
REMARK    9  A    between atoms: N_21  and  C_22 
REMARK   10  A    between atoms: C_25  and  N_26 
ROOT
ATOM      1  N   UNL d   1      30.247 -16.195   0.205  0.00  0.00    -0.354 N 
ATOM      2  C   UNL d   1      29.657 -16.102  -1.034  0.00  0.00     0.251 C 
ATOM      3  O   UNL d   1      30.262 -15.879  -2.082  0.00  0.00    -0.268 OA
ATOM      4  H   UNL d   1      29.694 -16.328   1.047  0.00  0.00     0.162 HD
ENDROOT
BRANCH   1   5
ATOM      5  C   UNL d   1      31.666 -16.001   0.390  0.00  0.00     0.156 C 
BRANCH   5   6
ATOM      6  C   UNL d   1      31.950 -14.926   1.459  0.00  0.00     0.160 C 
BRANCH   6   7
ATOM      7  C   UNL d   1      31.612 -13.561   0.869  0.00  0.00     0.209 C 
BRANCH   7   8
ATOM      8  O   UNL d   1      30.625 -12.828   1.589  0.00  0.00    -0.347 OA
BRANCH   8   9
ATOM      9  C   UNL d   1      29.297 -13.078   1.291  0.00  0.00     0.080 A 
ATOM     10  C   UNL d   1      28.895 -12.606   0.012  0.00  0.00    -0.028 A 
ATOM     11  C   UNL d   1      27.575 -12.804  -0.434  0.00  0.00     0.009 A 
ATOM     12  C   UNL d   1      29.839 -11.885  -0.918  0.00  0.00     0.051 C 
ATOM     13  C   UNL d   1      26.648 -13.455   0.365  0.00  0.00     0.001 A 
ATOM     14  C   UNL d   1      27.027 -13.910   1.618  0.00  0.00     0.009 A 
ATOM     15  C   UNL d   1      28.339 -13.735   2.106  0.00  0.00    -0.028 A 
ATOM     16  C   UNL d   1      28.563 -14.284   3.491  0.00  0.00     0.051 C 
ENDBRANCH   8   9
ENDBRANCH   7   8
ENDBRANCH   6   7
BRANCH   6  17
ATOM     17  O   UNL d   1      31.154 -15.204   2.617  0.00  0.00    -0.392 OA
ATOM     18  H   UNL d   1      31.022 -14.367   3.098  0.00  0.00     0.210 HD
ENDBRANCH   6  17
ENDBRANCH   5   6
ENDBRANCH   1   5
BRANCH   2  19
ATOM     19  C   UNL d   1      28.188 -16.209  -1.043  0.00  0.00     0.034 C 
ATOM     20  C   UNL d   1      27.468 -16.993  -0.150  0.00  0.00     0.019 C 
ATOM     21  C   UNL d   1      26.079 -17.152  -0.324  0.00  0.00     0.032 C 
ATOM     22  C   UNL d   1      25.363 -16.551  -1.396  0.00  0.00     0.061 C 
ATOM     23  C   UNL d   1      26.173 -15.857  -2.336  0.00  0.00     0.130 C 
ATOM     24  C   UNL d   1      27.539 -15.637  -2.117  0.00  0.00     0.055 C 
BRANCH  22  25
ATOM     25  N   UNL d   1      23.941 -16.635  -1.277  0.00  0.00    -0.383 N 
ATOM     26  H   UNL d   1      23.426 -15.994  -1.881  0.00  0.00     0.160 HD
BRANCH  25  27
ATOM     27  C   UNL d   1      23.125 -17.464  -0.364  0.00  0.00     0.082 A 
ATOM     28  C   UNL d   1      21.974 -18.255  -0.899  0.00  0.00     0.027 A 
ATOM     29  C   UNL d   1      23.288 -18.924  -0.481  0.00  0.00     0.027 A 
ENDBRANCH  25  27
ENDBRANCH  22  25
BRANCH  23  30
ATOM     30  N   UNL d   1      25.851 -15.448  -3.705  0.00  0.00    -0.113 N 
ATOM     31  O   UNL d   1      26.718 -15.576  -4.574  0.00  0.00    -0.532 OA
ATOM     32  O   UNL d   1      24.788 -14.819  -3.862  0.00  0.00    -0.532 OA
ENDBRANCH  23  30
ENDBRANCH   2  19
TORSDOF 10
ENDMDL
