MODEL 1
REMARK VINA RESULT:   -10.245      0.000      0.000
REMARK INTER + INTRA:         -13.888
REMARK INTER:                 -12.631
REMARK INTRA:                  -1.257
REMARK CONF_INDEPENDENT:        2.386
REMARK UNBOUND:                -1.257
REMARK  8 active torsions:
REMARK  status: ('A' for Active; 'I' for Inactive)
REMARK    1  A    between atoms: C_2  and  N_3 
REMARK       I    between atoms: N_3  and  C_4 
REMARK    2  A    between atoms: C_4  and  C_6 
REMARK    3  A    between atoms: C_6  and  O_7 
REMARK    4  A    between atoms: O_7  and  C_8 
REMARK    5  A    between atoms: C_12  and  N_13 
REMARK    6  A    between atoms: C_14  and  N_13 
REMARK    7  A    between atoms: C_14  and  C_16 
REMARK       I    between atoms: C_16  and  N_18 
REMARK       I    between atoms: N_18  and  C_19 
REMARK       I    between atoms: C_19  and  N_21 
REMARK    8  A    between atoms: N_21  and  C_22 
ROOT
ATOM      1  N   UNL d   1      26.618 -14.957  -0.999  0.00  0.00    -0.377 N 
ATOM      2  H   UNL d   1      26.634 -14.668  -1.976  0.00  0.00     0.160 HD
ENDROOT
BRANCH   1   3
ATOM      3  C   UNL d   1      26.108 -16.234  -0.784  0.00  0.00     0.031 C 
ATOM      4  C   UNL d   1      26.863 -17.282  -0.250  0.00  0.00     0.029 C 
ATOM      5  C   UNL d   1      26.290 -18.384   0.366  0.00  0.00     0.005 C 
ATOM      6  C   UNL d   1      24.928 -18.577   0.255  0.00  0.00     0.037 C 
ATOM      7  C   UNL d   1      24.142 -17.622  -0.392  0.00  0.00     0.071 C 
ATOM      8  C   UNL d   1      24.724 -16.442  -0.877  0.00  0.00     0.065 C 
BRANCH   7   9
ATOM      9  O   UNL d   1      22.802 -17.871  -0.363  0.00  0.00    -0.342 OA
BRANCH   9  10
ATOM     10  C   UNL d   1      22.290 -18.799  -1.316  0.00  0.00     0.278 C 
BRANCH  10  11
ATOM     11  C   UNL d   1      20.937 -19.315  -0.801  0.00  0.00     0.241 C 
ATOM     12  N   UNL d   1      20.800 -19.356   0.578  0.00  0.00    -0.360 N 
ATOM     13  H   UNL d   1      21.553 -19.048   1.181  0.00  0.00     0.162 HD
ATOM     14  O   UNL d   1      20.030 -19.685  -1.544  0.00  0.00    -0.271 OA
BRANCH  12  15
ATOM     15  C   UNL d   1      19.556 -19.823   1.165  0.00  0.00     0.118 C 
ATOM     16  C   UNL d   1      19.153 -21.202   0.677  0.00  0.00     0.026 C 
ENDBRANCH  12  15
ENDBRANCH  10  11
ENDBRANCH   9  10
ENDBRANCH   7   9
ENDBRANCH   1   3
BRANCH   1  17
ATOM     17  C   UNL d   1      27.636 -14.283  -0.167  0.00  0.00     0.170 C 
ATOM     18  C   UNL d   1      28.970 -15.056  -0.230  0.00  0.00     0.042 C 
BRANCH  17  19
ATOM     19  C   UNL d   1      27.237 -14.034   1.306  0.00  0.00     0.247 C 
ATOM     20  O   UNL d   1      26.323 -13.229   1.524  0.00  0.00    -0.271 OA
ATOM     21  N   UNL d   1      27.939 -14.718   2.306  0.00  0.00    -0.278 N 
ATOM     22  C   UNL d   1      27.855 -14.236   3.589  0.00  0.00     0.323 C 
ATOM     23  H   UNL d   1      28.790 -15.183   2.021  0.00  0.00     0.173 HD
ATOM     24  O   UNL d   1      27.040 -13.366   3.898  0.00  0.00    -0.247 OA
ATOM     25  N   UNL d   1      28.675 -14.787   4.550  0.00  0.00    -0.338 N 
ATOM     26  H   UNL d   1      29.283 -15.562   4.321  0.00  0.00     0.164 HD
BRANCH  25  27
ATOM     27  C   UNL d   1      28.548 -14.425   5.985  0.00  0.00     0.086 C 
ATOM     28  C   UNL d   1      29.858 -14.449   6.792  0.00  0.00     0.025 C 
ATOM     29  C   UNL d   1      29.631 -13.573   8.010  0.00  0.00     0.002 C 
ATOM     30  C   UNL d   1      28.538 -12.586   7.617  0.00  0.00     0.002 C 
ATOM     31  C   UNL d   1      28.020 -13.006   6.235  0.00  0.00     0.025 C 
ENDBRANCH  25  27
ENDBRANCH  17  19
ENDBRANCH   1  17
TORSDOF 8
ENDMDL
MODEL 2
REMARK VINA RESULT:    -9.509      1.089      1.452
REMARK INTER + INTRA:         -13.573
REMARK INTER:                 -11.895
REMARK INTRA:                  -1.677
REMARK CONF_INDEPENDENT:        2.386
REMARK UNBOUND:                -1.677
REMARK  8 active torsions:
REMARK  status: ('A' for Active; 'I' for Inactive)
REMARK    1  A    between atoms: C_2  and  N_3 
REMARK       I    between atoms: N_3  and  C_4 
REMARK    2  A    between atoms: C_4  and  C_6 
REMARK    3  A    between atoms: C_6  and  O_7 
REMARK    4  A    between atoms: O_7  and  C_8 
REMARK    5  A    between atoms: C_12  and  N_13 
REMARK    6  A    between atoms: C_14  and  N_13 
REMARK    7  A    between atoms: C_14  and  C_16 
REMARK       I    between atoms: C_16  and  N_18 
REMARK       I    between atoms: N_18  and  C_19 
REMARK       I    between atoms: C_19  and  N_21 
REMARK    8  A    between atoms: N_21  and  C_22 
ROOT
ATOM      1  N   UNL d   1      27.739 -16.232   0.497  0.00  0.00    -0.377 N 
ATOM      2  H   UNL d   1      27.962 -17.036   1.081  0.00  0.00     0.160 HD
ENDROOT
BRANCH   1   3
ATOM      3  C   UNL d   1      26.538 -16.338  -0.198  0.00  0.00     0.031 C 
ATOM      4  C   UNL d   1      26.303 -15.709  -1.424  0.00  0.00     0.029 C 
ATOM      5  C   UNL d   1      25.331 -16.137  -2.315  0.00  0.00     0.005 C 
ATOM      6  C   UNL d   1      24.407 -17.072  -1.894  0.00  0.00     0.037 C 
ATOM      7  C   UNL d   1      24.517 -17.633  -0.621  0.00  0.00     0.071 C 
ATOM      8  C   UNL d   1      25.596 -17.294   0.207  0.00  0.00     0.065 C 
BRANCH   7   9
ATOM      9  O   UNL d   1      23.605 -18.609  -0.347  0.00  0.00    -0.342 OA
BRANCH   9  10
ATOM     10  C   UNL d   1      22.790 -19.061  -1.425  0.00  0.00     0.278 C 
BRANCH  10  11
ATOM     11  C   UNL d   1      21.363 -19.266  -0.891  0.00  0.00     0.241 C 
ATOM     12  N   UNL d   1      21.247 -19.336   0.489  0.00  0.00    -0.360 N 
ATOM     13  H   UNL d   1      22.062 -19.242   1.080  0.00  0.00     0.162 HD
ATOM     14  O   UNL d   1      20.381 -19.377  -1.622  0.00  0.00    -0.271 OA
BRANCH  12  15
ATOM     15  C   UNL d   1      19.939 -19.522   1.092  0.00  0.00     0.118 C 
ATOM     16  C   UNL d   1      19.267 -20.813   0.663  0.00  0.00     0.026 C 
ENDBRANCH  12  15
ENDBRANCH  10  11
ENDBRANCH   9  10
ENDBRANCH   7   9
ENDBRANCH   1   3
BRANCH   1  17
ATOM     17  C   UNL d   1      28.359 -14.974   0.964  0.00  0.00     0.170 C 
ATOM     18  C   UNL d   1      29.887 -15.145   1.075  0.00  0.00     0.042 C 
BRANCH  17  19
ATOM     19  C   UNL d   1      27.791 -14.398   2.281  0.00  0.00     0.247 C 
ATOM     20  O   UNL d   1      26.869 -13.578   2.199  0.00  0.00    -0.271 OA
ATOM     21  N   UNL d   1      28.359 -14.826   3.488  0.00  0.00    -0.278 N 
ATOM     22  C   UNL d   1      28.131 -14.064   4.607  0.00  0.00     0.323 C 
ATOM     23  H   UNL d   1      29.232 -15.332   3.420  0.00  0.00     0.173 HD
ATOM     24  O   UNL d   1      27.298 -13.156   4.610  0.00  0.00    -0.247 OA
ATOM     25  N   UNL d   1      28.823 -14.369   5.759  0.00  0.00    -0.338 N 
ATOM     26  H   UNL d   1      29.443 -15.168   5.788  0.00  0.00     0.164 HD
BRANCH  25  27
ATOM     27  C   UNL d   1      28.532 -13.689   7.048  0.00  0.00     0.086 C 
ATOM     28  C   UNL d   1      29.450 -14.074   8.221  0.00  0.00     0.025 C 
ATOM     29  C   UNL d   1      29.360 -12.944   9.230  0.00  0.00     0.002 C 
ATOM     30  C   UNL d   1      28.965 -11.705   8.434  0.00  0.00     0.002 C 
ATOM     31  C   UNL d   1      28.663 -12.161   7.001  0.00  0.00     0.025 C 
ENDBRANCH  25  27
ENDBRANCH  17  19
ENDBRANCH   1  17
TORSDOF 8
ENDMDL
MODEL 3
REMARK VINA RESULT:    -9.452      5.176      9.420
REMARK INTER + INTRA:         -13.586
REMARK INTER:                 -11.838
REMARK INTRA:                  -1.748
REMARK CONF_INDEPENDENT:        2.386
REMARK UNBOUND:                -1.748
REMARK  8 active torsions:
REMARK  status: ('A' for Active; 'I' for Inactive)
REMARK    1  A    between atoms: C_2  and  N_3 
REMARK       I    between atoms: N_3  and  C_4 
REMARK    2  A    between atoms: C_4  and  C_6 
REMARK    3  A    between atoms: C_6  and  O_7 
REMARK    4  A    between atoms: O_7  and  C_8 
REMARK    5  A    between atoms: C_12  and  N_13 
REMARK    6  A    between atoms: C_14  and  N_13 
REMARK    7  A    between atoms: C_14  and  C_16 
REMARK       I    between atoms: C_16  and  N_18 
REMARK       I    between atoms: N_18  and  C_19 
REMARK       I    between atoms: C_19  and  N_21 
REMARK    8  A    between atoms: N_21  and  C_22 
ROOT
ATOM      1  N   UNL d   1      24.416 -14.807  -2.670  0.00  0.00    -0.377 N 
ATOM      2  H   UNL d   1      23.569 -14.266  -2.500  0.00  0.00     0.160 HD
ENDROOT
BRANCH   1   3
ATOM      3  C   UNL d   1      25.279 -14.248  -3.608  0.00  0.00     0.031 C 
ATOM      4  C   UNL d   1      25.713 -12.921  -3.556  0.00  0.00     0.029 C 
ATOM      5  C   UNL d   1      26.868 -12.482  -4.186  0.00  0.00     0.005 C 
ATOM      6  C   UNL d   1      27.497 -13.320  -5.083  0.00  0.00     0.037 C 
ATOM      7  C   UNL d   1      27.019 -14.617  -5.274  0.00  0.00     0.071 C 
ATOM      8  C   UNL d   1      25.939 -15.089  -4.516  0.00  0.00     0.065 C 
BRANCH   7   9
ATOM      9  O   UNL d   1      27.771 -15.384  -6.115  0.00  0.00    -0.342 OA
BRANCH   9  10
ATOM     10  C   UNL d   1      28.917 -14.776  -6.703  0.00  0.00     0.278 C 
BRANCH  10  11
ATOM     11  C   UNL d   1      30.069 -15.792  -6.667  0.00  0.00     0.241 C 
ATOM     12  N   UNL d   1      29.858 -16.905  -5.867  0.00  0.00    -0.360 N 
ATOM     13  H   UNL d   1      28.988 -17.020  -5.363  0.00  0.00     0.162 HD
ATOM     14  O   UNL d   1      31.121 -15.640  -7.285  0.00  0.00    -0.271 OA
BRANCH  12  15
ATOM     15  C   UNL d   1      30.885 -17.928  -5.770  0.00  0.00     0.118 C 
ATOM     16  C   UNL d   1      30.407 -19.291  -6.233  0.00  0.00     0.026 C 
ENDBRANCH  12  15
ENDBRANCH  10  11
ENDBRANCH   9  10
ENDBRANCH   7   9
ENDBRANCH   1   3
BRANCH   1  17
ATOM     17  C   UNL d   1      24.815 -15.654  -1.526  0.00  0.00     0.170 C 
ATOM     18  C   UNL d   1      26.350 -15.802  -1.486  0.00  0.00     0.042 C 
BRANCH  17  19
ATOM     19  C   UNL d   1      24.146 -17.045  -1.460  0.00  0.00     0.247 C 
ATOM     20  O   UNL d   1      24.349 -17.825  -2.399  0.00  0.00    -0.271 OA
ATOM     21  N   UNL d   1      23.338 -17.339  -0.354  0.00  0.00    -0.278 N 
ATOM     22  C   UNL d   1      22.462 -18.390  -0.464  0.00  0.00     0.323 C 
ATOM     23  H   UNL d   1      23.083 -16.559   0.236  0.00  0.00     0.173 HD
ATOM     24  O   UNL d   1      22.515 -19.178  -1.409  0.00  0.00    -0.247 OA
ATOM     25  N   UNL d   1      21.540 -18.581   0.543  0.00  0.00    -0.338 N 
ATOM     26  H   UNL d   1      21.549 -17.991   1.364  0.00  0.00     0.164 HD
BRANCH  25  27
ATOM     27  C   UNL d   1      20.654 -19.774   0.573  0.00  0.00     0.086 C 
ATOM     28  C   UNL d   1      19.892 -19.998   1.891  0.00  0.00     0.025 C 
ATOM     29  C   UNL d   1      18.702 -20.879   1.558  0.00  0.00     0.002 C 
ATOM     30  C   UNL d   1      18.405 -20.639   0.082  0.00  0.00     0.002 C 
ATOM     31  C   UNL d   1      19.529 -19.752  -0.471  0.00  0.00     0.025 C 
ENDBRANCH  25  27
ENDBRANCH  17  19
ENDBRANCH   1  17
TORSDOF 8
ENDMDL
MODEL 4
REMARK VINA RESULT:    -9.324      4.875      8.023
REMARK INTER + INTRA:         -13.691
REMARK INTER:                 -11.710
REMARK INTRA:                  -1.980
REMARK CONF_INDEPENDENT:        2.386
REMARK UNBOUND:                -1.980
REMARK  8 active torsions:
REMARK  status: ('A' for Active; 'I' for Inactive)
REMARK    1  A    between atoms: C_2  and  N_3 
REMARK       I    between atoms: N_3  and  C_4 
REMARK    2  A    between atoms: C_4  and  C_6 
REMARK    3  A    between atoms: C_6  and  O_7 
REMARK    4  A    between atoms: O_7  and  C_8 
REMARK    5  A    between atoms: C_12  and  N_13 
REMARK    6  A    between atoms: C_14  and  N_13 
REMARK    7  A    between atoms: C_14  and  C_16 
REMARK       I    between atoms: C_16  and  N_18 
REMARK       I    between atoms: N_18  and  C_19 
REMARK       I    between atoms: C_19  and  N_21 
REMARK    8  A    between atoms: N_21  and  C_22 
ROOT
ATOM      1  N   UNL d   1      25.357 -15.734  -2.831  0.00  0.00    -0.377 N 
ATOM      2  H   UNL d   1      24.782 -15.941  -3.647  0.00  0.00     0.160 HD
ENDROOT
BRANCH   1   3
ATOM      3  C   UNL d   1      25.317 -16.706  -1.836  0.00  0.00     0.031 C 
ATOM      4  C   UNL d   1      26.302 -16.838  -0.853  0.00  0.00     0.029 C 
ATOM      5  C   UNL d   1      26.076 -17.473   0.358  0.00  0.00     0.005 C 
ATOM      6  C   UNL d   1      24.915 -18.200   0.523  0.00  0.00     0.037 C 
ATOM      7  C   UNL d   1      23.954 -18.212  -0.489  0.00  0.00     0.071 C 
ATOM      8  C   UNL d   1      24.138 -17.442  -1.645  0.00  0.00     0.065 C 
BRANCH   7   9
ATOM      9  O   UNL d   1      22.810 -18.888  -0.181  0.00  0.00    -0.342 OA
BRANCH   9  10
ATOM     10  C   UNL d   1      21.799 -18.950  -1.183  0.00  0.00     0.278 C 
BRANCH  10  11
ATOM     11  C   UNL d   1      20.499 -19.435  -0.521  0.00  0.00     0.241 C 
ATOM     12  N   UNL d   1      20.556 -19.598   0.855  0.00  0.00    -0.360 N 
ATOM     13  H   UNL d   1      21.405 -19.391   1.364  0.00  0.00     0.162 HD
ATOM     14  O   UNL d   1      19.474 -19.681  -1.152  0.00  0.00    -0.271 OA
BRANCH  12  15
ATOM     15  C   UNL d   1      19.377 -20.047   1.575  0.00  0.00     0.118 C 
ATOM     16  C   UNL d   1      18.761 -21.300   0.981  0.00  0.00     0.026 C 
ENDBRANCH  12  15
ENDBRANCH  10  11
ENDBRANCH   9  10
ENDBRANCH   7   9
ENDBRANCH   1   3
BRANCH   1  17
ATOM     17  C   UNL d   1      26.500 -14.845  -3.124  0.00  0.00     0.170 C 
ATOM     18  C   UNL d   1      26.165 -13.397  -2.711  0.00  0.00     0.042 C 
BRANCH  17  19
ATOM     19  C   UNL d   1      27.015 -14.876  -4.581  0.00  0.00     0.247 C 
ATOM     20  O   UNL d   1      26.390 -15.567  -5.395  0.00  0.00    -0.271 OA
ATOM     21  N   UNL d   1      28.161 -14.135  -4.893  0.00  0.00    -0.278 N 
ATOM     22  C   UNL d   1      28.827 -14.446  -6.053  0.00  0.00     0.323 C 
ATOM     23  H   UNL d   1      28.696 -13.783  -4.111  0.00  0.00     0.173 HD
ATOM     24  O   UNL d   1      28.337 -15.200  -6.895  0.00  0.00    -0.247 OA
ATOM     25  N   UNL d   1      30.048 -13.852  -6.287  0.00  0.00    -0.338 N 
ATOM     26  H   UNL d   1      30.416 -13.166  -5.641  0.00  0.00     0.164 HD
BRANCH  25  27
ATOM     27  C   UNL d   1      30.766 -14.023  -7.577  0.00  0.00     0.086 C 
ATOM     28  C   UNL d   1      31.206 -12.720  -8.267  0.00  0.00     0.025 C 
ATOM     29  C   UNL d   1      32.329 -13.091  -9.217  0.00  0.00     0.002 C 
ATOM     30  C   UNL d   1      32.952 -14.362  -8.650  0.00  0.00     0.002 C 
ATOM     31  C   UNL d   1      32.077 -14.812  -7.472  0.00  0.00     0.025 C 
ENDBRANCH  25  27
ENDBRANCH  17  19
ENDBRANCH   1  17
TORSDOF 8
ENDMDL
MODEL 5
REMARK VINA RESULT:    -9.213      4.766      7.772
REMARK INTER + INTRA:         -13.531
REMARK INTER:                 -11.599
REMARK INTRA:                  -1.932
REMARK CONF_INDEPENDENT:        2.386
REMARK UNBOUND:                -1.932
REMARK  8 active torsions:
REMARK  status: ('A' for Active; 'I' for Inactive)
REMARK    1  A    between atoms: C_2  and  N_3 
REMARK       I    between atoms: N_3  and  C_4 
REMARK    2  A    between atoms: C_4  and  C_6 
REMARK    3  A    between atoms: C_6  and  O_7 
REMARK    4  A    between atoms: O_7  and  C_8 
REMARK    5  A    between atoms: C_12  and  N_13 
REMARK    6  A    between atoms: C_14  and  N_13 
REMARK    7  A    between atoms: C_14  and  C_16 
REMARK       I    between atoms: C_16  and  N_18 
REMARK       I    between atoms: N_18  and  C_19 
REMARK       I    between atoms: C_19  and  N_21 
REMARK    8  A    between atoms: N_21  and  C_22 
ROOT
ATOM      1  N   UNL d   1      25.155 -15.395  -2.598  0.00  0.00    -0.377 N 
ATOM      2  H   UNL d   1      24.460 -15.478  -3.339  0.00  0.00     0.160 HD
ENDROOT
BRANCH   1   3
ATOM      3  C   UNL d   1      25.177 -16.464  -1.707  0.00  0.00     0.031 C 
ATOM      4  C   UNL d   1      26.182 -16.646  -0.752  0.00  0.00     0.029 C 
ATOM      5  C   UNL d   1      26.005 -17.411   0.390  0.00  0.00     0.005 C 
ATOM      6  C   UNL d   1      24.883 -18.209   0.491  0.00  0.00     0.037 C 
ATOM      7  C   UNL d   1      23.909 -18.166  -0.508  0.00  0.00     0.071 C 
ATOM      8  C   UNL d   1      24.039 -17.274  -1.581  0.00  0.00     0.065 C 
BRANCH   7   9
ATOM      9  O   UNL d   1      22.805 -18.926  -0.261  0.00  0.00    -0.342 OA
BRANCH   9  10
ATOM     10  C   UNL d   1      21.790 -18.949  -1.261  0.00  0.00     0.278 C 
BRANCH  10  11
ATOM     11  C   UNL d   1      20.464 -19.338  -0.588  0.00  0.00     0.241 C 
ATOM     12  N   UNL d   1      20.539 -19.595   0.772  0.00  0.00    -0.360 N 
ATOM     13  H   UNL d   1      21.418 -19.511   1.266  0.00  0.00     0.162 HD
ATOM     14  O   UNL d   1      19.402 -19.435  -1.199  0.00  0.00    -0.271 OA
BRANCH  12  15
ATOM     15  C   UNL d   1      19.338 -19.964   1.502  0.00  0.00     0.118 C 
ATOM     16  C   UNL d   1      18.664 -21.203   0.943  0.00  0.00     0.026 C 
ENDBRANCH  12  15
ENDBRANCH  10  11
ENDBRANCH   9  10
ENDBRANCH   7   9
ENDBRANCH   1   3
BRANCH   1  17
ATOM     17  C   UNL d   1      26.313 -14.553  -2.965  0.00  0.00     0.170 C 
ATOM     18  C   UNL d   1      25.960 -13.062  -2.791  0.00  0.00     0.042 C 
BRANCH  17  19
ATOM     19  C   UNL d   1      26.898 -14.799  -4.375  0.00  0.00     0.247 C 
ATOM     20  O   UNL d   1      26.180 -15.374  -5.202  0.00  0.00    -0.271 OA
ATOM     21  N   UNL d   1      28.207 -14.372  -4.631  0.00  0.00    -0.278 N 
ATOM     22  C   UNL d   1      28.852 -14.905  -5.719  0.00  0.00     0.323 C 
ATOM     23  H   UNL d   1      28.759 -14.107  -3.827  0.00  0.00     0.173 HD
ATOM     24  O   UNL d   1      28.250 -15.575  -6.561  0.00  0.00    -0.247 OA
ATOM     25  N   UNL d   1      30.193 -14.634  -5.884  0.00  0.00    -0.338 N 
ATOM     26  H   UNL d   1      30.672 -14.014  -5.244  0.00  0.00     0.164 HD
BRANCH  25  27
ATOM     27  C   UNL d   1      30.930 -15.052  -7.105  0.00  0.00     0.086 C 
ATOM     28  C   UNL d   1      32.386 -14.563  -7.198  0.00  0.00     0.025 C 
ATOM     29  C   UNL d   1      33.091 -15.490  -8.171  0.00  0.00     0.002 C 
ATOM     30  C   UNL d   1      32.316 -16.802  -8.135  0.00  0.00     0.002 C 
ATOM     31  C   UNL d   1      31.069 -16.571  -7.271  0.00  0.00     0.025 C 
ENDBRANCH  25  27
ENDBRANCH  17  19
ENDBRANCH   1  17
TORSDOF 8
ENDMDL
MODEL 6
REMARK VINA RESULT:    -9.137      1.363      1.925
REMARK INTER + INTRA:         -13.344
REMARK INTER:                 -11.523
REMARK INTRA:                  -1.821
REMARK CONF_INDEPENDENT:        2.386
REMARK UNBOUND:                -1.821
REMARK  8 active torsions:
REMARK  status: ('A' for Active; 'I' for Inactive)
REMARK    1  A    between atoms: C_2  and  N_3 
REMARK       I    between atoms: N_3  and  C_4 
REMARK    2  A    between atoms: C_4  and  C_6 
REMARK    3  A    between atoms: C_6  and  O_7 
REMARK    4  A    between atoms: O_7  and  C_8 
REMARK    5  A    between atoms: C_12  and  N_13 
REMARK    6  A    between atoms: C_14  and  N_13 
REMARK    7  A    between atoms: C_14  and  C_16 
REMARK       I    between atoms: C_16  and  N_18 
REMARK       I    between atoms: N_18  and  C_19 
REMARK       I    between atoms: C_19  and  N_21 
REMARK    8  A    between atoms: N_21  and  C_22 
ROOT
ATOM      1  N   UNL d   1      27.797 -17.158  -0.425  0.00  0.00    -0.377 N 
ATOM      2  H   UNL d   1      28.037 -17.879   0.255  0.00  0.00     0.160 HD
ENDROOT
BRANCH   1   3
ATOM      3  C   UNL d   1      26.436 -16.880  -0.514  0.00  0.00     0.031 C 
ATOM      4  C   UNL d   1      25.926 -15.740  -1.140  0.00  0.00     0.029 C 
ATOM      5  C   UNL d   1      24.626 -15.661  -1.617  0.00  0.00     0.005 C 
ATOM      6  C   UNL d   1      23.728 -16.649  -1.269  0.00  0.00     0.037 C 
ATOM      7  C   UNL d   1      24.158 -17.747  -0.524  0.00  0.00     0.071 C 
ATOM      8  C   UNL d   1      25.510 -17.879  -0.179  0.00  0.00     0.065 C 
BRANCH   7   9
ATOM      9  O   UNL d   1      23.207 -18.703  -0.315  0.00  0.00    -0.342 OA
BRANCH   9  10
ATOM     10  C   UNL d   1      22.288 -18.951  -1.375  0.00  0.00     0.278 C 
BRANCH  10  11
ATOM     11  C   UNL d   1      20.931 -19.317  -0.754  0.00  0.00     0.241 C 
ATOM     12  N   UNL d   1      20.925 -19.459   0.625  0.00  0.00    -0.360 N 
ATOM     13  H   UNL d   1      21.770 -19.312   1.162  0.00  0.00     0.162 HD
ATOM     14  O   UNL d   1      19.911 -19.491  -1.419  0.00  0.00    -0.271 OA
BRANCH  12  15
ATOM     15  C   UNL d   1      19.689 -19.798   1.309  0.00  0.00     0.118 C 
ATOM     16  C   UNL d   1      19.074 -21.093   0.812  0.00  0.00     0.026 C 
ENDBRANCH  12  15
ENDBRANCH  10  11
ENDBRANCH   9  10
ENDBRANCH   7   9
ENDBRANCH   1   3
BRANCH   1  17
ATOM     17  C   UNL d   1      28.892 -16.201  -0.684  0.00  0.00     0.170 C 
ATOM     18  C   UNL d   1      30.239 -16.947  -0.769  0.00  0.00     0.042 C 
BRANCH  17  19
ATOM     19  C   UNL d   1      28.999 -15.023   0.312  0.00  0.00     0.247 C 
ATOM     20  O   UNL d   1      29.468 -13.958  -0.108  0.00  0.00    -0.271 OA
ATOM     21  N   UNL d   1      28.576 -15.232   1.630  0.00  0.00    -0.278 N 
ATOM     22  C   UNL d   1      29.004 -14.345   2.587  0.00  0.00     0.323 C 
ATOM     23  H   UNL d   1      28.409 -16.191   1.903  0.00  0.00     0.173 HD
ATOM     24  O   UNL d   1      29.567 -13.292   2.284  0.00  0.00    -0.247 OA
ATOM     25  N   UNL d   1      28.744 -14.633   3.909  0.00  0.00    -0.338 N 
ATOM     26  H   UNL d   1      28.206 -15.452   4.159  0.00  0.00     0.164 HD
BRANCH  25  27
ATOM     27  C   UNL d   1      29.046 -13.662   4.993  0.00  0.00     0.086 C 
ATOM     28  C   UNL d   1      27.939 -12.634   5.288  0.00  0.00     0.025 C 
ATOM     29  C   UNL d   1      28.186 -12.125   6.696  0.00  0.00     0.002 C 
ATOM     30  C   UNL d   1      28.949 -13.232   7.412  0.00  0.00     0.002 C 
ATOM     31  C   UNL d   1      29.289 -14.302   6.366  0.00  0.00     0.025 C 
ENDBRANCH  25  27
ENDBRANCH  17  19
ENDBRANCH   1  17
TORSDOF 8
ENDMDL
MODEL 7
REMARK VINA RESULT:    -9.054      4.697      7.554
REMARK INTER + INTRA:         -12.975
REMARK INTER:                 -11.441
REMARK INTRA:                  -1.535
REMARK CONF_INDEPENDENT:        2.386
REMARK UNBOUND:                -1.535
REMARK  8 active torsions:
REMARK  status: ('A' for Active; 'I' for Inactive)
REMARK    1  A    between atoms: C_2  and  N_3 
REMARK       I    between atoms: N_3  and  C_4 
REMARK    2  A    between atoms: C_4  and  C_6 
REMARK    3  A    between atoms: C_6  and  O_7 
REMARK    4  A    between atoms: O_7  and  C_8 
REMARK    5  A    between atoms: C_12  and  N_13 
REMARK    6  A    between atoms: C_14  and  N_13 
REMARK    7  A    between atoms: C_14  and  C_16 
REMARK       I    between atoms: C_16  and  N_18 
REMARK       I    between atoms: N_18  and  C_19 
REMARK       I    between atoms: C_19  and  N_21 
REMARK    8  A    between atoms: N_21  and  C_22 
ROOT
ATOM      1  N   UNL d   1      26.034 -15.627  -2.500  0.00  0.00    -0.377 N 
ATOM      2  H   UNL d   1      25.217 -15.120  -2.838  0.00  0.00     0.160 HD
ENDROOT
BRANCH   1   3
ATOM      3  C   UNL d   1      25.747 -16.650  -1.601  0.00  0.00     0.031 C 
ATOM      4  C   UNL d   1      26.661 -17.116  -0.652  0.00  0.00     0.029 C 
ATOM      5  C   UNL d   1      26.276 -17.788   0.498  0.00  0.00     0.005 C 
ATOM      6  C   UNL d   1      24.969 -18.217   0.613  0.00  0.00     0.037 C 
ATOM      7  C   UNL d   1      24.043 -17.893  -0.380  0.00  0.00     0.071 C 
ATOM      8  C   UNL d   1      24.421 -17.086  -1.460  0.00  0.00     0.065 C 
BRANCH   7   9
ATOM      9  O   UNL d   1      22.765 -18.291  -0.118  0.00  0.00    -0.342 OA
BRANCH   9  10
ATOM     10  C   UNL d   1      22.032 -18.878  -1.190  0.00  0.00     0.278 C 
BRANCH  10  11
ATOM     11  C   UNL d   1      20.686 -19.372  -0.634  0.00  0.00     0.241 C 
ATOM     12  N   UNL d   1      20.615 -19.481   0.746  0.00  0.00    -0.360 N 
ATOM     13  H   UNL d   1      21.407 -19.232   1.325  0.00  0.00     0.162 HD
ATOM     14  O   UNL d   1      19.732 -19.670  -1.349  0.00  0.00    -0.271 OA
BRANCH  12  15
ATOM     15  C   UNL d   1      19.384 -19.933   1.370  0.00  0.00     0.118 C 
ATOM     16  C   UNL d   1      18.837 -21.204   0.747  0.00  0.00     0.026 C 
ENDBRANCH  12  15
ENDBRANCH  10  11
ENDBRANCH   9  10
ENDBRANCH   7   9
ENDBRANCH   1   3
BRANCH   1  17
ATOM     17  C   UNL d   1      27.177 -15.597  -3.437  0.00  0.00     0.170 C 
ATOM     18  C   UNL d   1      28.480 -15.288  -2.672  0.00  0.00     0.042 C 
BRANCH  17  19
ATOM     19  C   UNL d   1      27.028 -14.641  -4.642  0.00  0.00     0.247 C 
ATOM     20  O   UNL d   1      27.701 -14.881  -5.651  0.00  0.00    -0.271 OA
ATOM     21  N   UNL d   1      26.154 -13.553  -4.518  0.00  0.00    -0.278 N 
ATOM     22  C   UNL d   1      26.294 -12.517  -5.408  0.00  0.00     0.323 C 
ATOM     23  H   UNL d   1      25.822 -13.346  -3.586  0.00  0.00     0.173 HD
ATOM     24  O   UNL d   1      27.014 -12.614  -6.403  0.00  0.00    -0.247 OA
ATOM     25  N   UNL d   1      25.565 -11.367  -5.194  0.00  0.00    -0.338 N 
ATOM     26  H   UNL d   1      24.907 -11.314  -4.428  0.00  0.00     0.164 HD
BRANCH  25  27
ATOM     27  C   UNL d   1      25.549 -10.257  -6.182  0.00  0.00     0.086 C 
ATOM     28  C   UNL d   1      24.853  -8.966  -5.716  0.00  0.00     0.025 C 
ATOM     29  C   UNL d   1      25.392  -7.847  -6.587  0.00  0.00     0.002 C 
ATOM     30  C   UNL d   1      26.765  -8.309  -7.060  0.00  0.00     0.002 C 
ATOM     31  C   UNL d   1      26.940  -9.762  -6.600  0.00  0.00     0.025 C 
ENDBRANCH  25  27
ENDBRANCH  17  19
ENDBRANCH   1  17
TORSDOF 8
ENDMDL
MODEL 8
REMARK VINA RESULT:    -8.995      4.872      7.537
REMARK INTER + INTRA:         -13.462
REMARK INTER:                 -11.382
REMARK INTRA:                  -2.080
REMARK CONF_INDEPENDENT:        2.386
REMARK UNBOUND:                -2.080
REMARK  8 active torsions:
REMARK  status: ('A' for Active; 'I' for Inactive)
REMARK    1  A    between atoms: C_2  and  N_3 
REMARK       I    between atoms: N_3  and  C_4 
REMARK    2  A    between atoms: C_4  and  C_6 
REMARK    3  A    between atoms: C_6  and  O_7 
REMARK    4  A    between atoms: O_7  and  C_8 
REMARK    5  A    between atoms: C_12  and  N_13 
REMARK    6  A    between atoms: C_14  and  N_13 
REMARK    7  A    between atoms: C_14  and  C_16 
REMARK       I    between atoms: C_16  and  N_18 
REMARK       I    between atoms: N_18  and  C_19 
REMARK       I    between atoms: C_19  and  N_21 
REMARK    8  A    between atoms: N_21  and  C_22 
ROOT
ATOM      1  N   UNL d   1      26.149 -14.739  -1.557  0.00  0.00    -0.377 N 
ATOM      2  H   UNL d   1      26.529 -14.111  -0.849  0.00  0.00     0.160 HD
ENDROOT
BRANCH   1   3
ATOM      3  C   UNL d   1      25.797 -15.998  -1.081  0.00  0.00     0.031 C 
ATOM      4  C   UNL d   1      26.690 -16.845  -0.417  0.00  0.00     0.029 C 
ATOM      5  C   UNL d   1      26.274 -17.865   0.424  0.00  0.00     0.005 C 
ATOM      6  C   UNL d   1      24.940 -18.214   0.441  0.00  0.00     0.037 C 
ATOM      7  C   UNL d   1      24.022 -17.483  -0.315  0.00  0.00     0.071 C 
ATOM      8  C   UNL d   1      24.443 -16.362  -1.043  0.00  0.00     0.065 C 
BRANCH   7   9
ATOM      9  O   UNL d   1      22.721 -17.860  -0.153  0.00  0.00    -0.342 OA
BRANCH   9  10
ATOM     10  C   UNL d   1      22.067 -18.448  -1.274  0.00  0.00     0.278 C 
BRANCH  10  11
ATOM     11  C   UNL d   1      20.909 -19.312  -0.752  0.00  0.00     0.241 C 
ATOM     12  N   UNL d   1      20.978 -19.654   0.590  0.00  0.00    -0.360 N 
ATOM     13  H   UNL d   1      21.744 -19.331   1.166  0.00  0.00     0.162 HD
ATOM     14  O   UNL d   1      19.983 -19.698  -1.462  0.00  0.00    -0.271 OA
BRANCH  12  15
ATOM     15  C   UNL d   1      19.927 -20.465   1.182  0.00  0.00     0.118 C 
ATOM     16  C   UNL d   1      18.798 -19.636   1.763  0.00  0.00     0.026 C 
ENDBRANCH  12  15
ENDBRANCH  10  11
ENDBRANCH   9  10
ENDBRANCH   7   9
ENDBRANCH   1   3
BRANCH   1  17
ATOM     17  C   UNL d   1      25.513 -14.036  -2.691  0.00  0.00     0.170 C 
ATOM     18  C   UNL d   1      25.676 -14.861  -3.984  0.00  0.00     0.042 C 
BRANCH  17  19
ATOM     19  C   UNL d   1      25.986 -12.583  -2.925  0.00  0.00     0.247 C 
ATOM     20  O   UNL d   1      26.675 -12.054  -2.043  0.00  0.00    -0.271 OA
ATOM     21  N   UNL d   1      25.597 -11.944  -4.109  0.00  0.00    -0.278 N 
ATOM     22  C   UNL d   1      25.686 -10.575  -4.156  0.00  0.00     0.323 C 
ATOM     23  H   UNL d   1      24.873 -12.398  -4.648  0.00  0.00     0.173 HD
ATOM     24  O   UNL d   1      26.271  -9.937  -3.279  0.00  0.00    -0.247 OA
ATOM     25  N   UNL d   1      25.145  -9.920  -5.241  0.00  0.00    -0.338 N 
ATOM     26  H   UNL d   1      24.741 -10.445  -6.006  0.00  0.00     0.164 HD
BRANCH  25  27
ATOM     27  C   UNL d   1      25.323  -8.458  -5.439  0.00  0.00     0.086 C 
ATOM     28  C   UNL d   1      25.577  -8.013  -6.890  0.00  0.00     0.025 C 
ATOM     29  C   UNL d   1      25.201  -6.545  -6.963  0.00  0.00     0.002 C 
ATOM     30  C   UNL d   1      24.186  -6.317  -5.849  0.00  0.00     0.002 C 
ATOM     31  C   UNL d   1      24.109  -7.613  -5.031  0.00  0.00     0.025 C 
ENDBRANCH  25  27
ENDBRANCH  17  19
ENDBRANCH   1  17
TORSDOF 8
ENDMDL
MODEL 9
REMARK VINA RESULT:    -8.498      4.756      9.769
REMARK INTER + INTRA:         -13.096
REMARK INTER:                 -10.884
REMARK INTRA:                  -2.211
REMARK CONF_INDEPENDENT:        2.386
REMARK UNBOUND:                -2.211
REMARK  8 active torsions:
REMARK  status: ('A' for Active; 'I' for Inactive)
REMARK    1  A    between atoms: C_2  and  N_3 
REMARK       I    between atoms: N_3  and  C_4 
REMARK    2  A    between atoms: C_4  and  C_6 
REMARK    3  A    between atoms: C_6  and  O_7 
REMARK    4  A    between atoms: O_7  and  C_8 
REMARK    5  A    between atoms: C_12  and  N_13 
REMARK    6  A    between atoms: C_14  and  N_13 
REMARK    7  A    between atoms: C_14  and  C_16 
REMARK       I    between atoms: C_16  and  N_18 
REMARK       I    between atoms: N_18  and  C_19 
REMARK       I    between atoms: C_19  and  N_21 
REMARK    8  A    between atoms: N_21  and  C_22 
ROOT
ATOM      1  N   UNL d   1      25.931 -15.536  -2.860  0.00  0.00    -0.377 N 
ATOM      2  H   UNL d   1      25.892 -16.299  -3.535  0.00  0.00     0.160 HD
ENDROOT
BRANCH   1   3
ATOM      3  C   UNL d   1      26.302 -14.308  -3.398  0.00  0.00     0.031 C 
ATOM      4  C   UNL d   1      27.102 -14.180  -4.538  0.00  0.00     0.029 C 
ATOM      5  C   UNL d   1      27.117 -13.037  -5.322  0.00  0.00     0.005 C 
ATOM      6  C   UNL d   1      26.500 -11.897  -4.850  0.00  0.00     0.037 C 
ATOM      7  C   UNL d   1      25.800 -11.936  -3.643  0.00  0.00     0.071 C 
ATOM      8  C   UNL d   1      25.673 -13.141  -2.940  0.00  0.00     0.065 C 
BRANCH   7   9
ATOM      9  O   UNL d   1      25.155 -10.778  -3.320  0.00  0.00    -0.342 OA
BRANCH   9  10
ATOM     10  C   UNL d   1      25.954  -9.609  -3.160  0.00  0.00     0.278 C 
BRANCH  10  11
ATOM     11  C   UNL d   1      25.404  -8.522  -4.098  0.00  0.00     0.241 C 
ATOM     12  N   UNL d   1      24.546  -8.970  -5.090  0.00  0.00    -0.360 N 
ATOM     13  H   UNL d   1      24.304  -9.950  -5.160  0.00  0.00     0.162 HD
ATOM     14  O   UNL d   1      25.705  -7.334  -4.001  0.00  0.00    -0.271 OA
BRANCH  12  15
ATOM     15  C   UNL d   1      23.967  -8.019  -6.024  0.00  0.00     0.118 C 
ATOM     16  C   UNL d   1      22.889  -7.156  -5.396  0.00  0.00     0.026 C 
ENDBRANCH  12  15
ENDBRANCH  10  11
ENDBRANCH   9  10
ENDBRANCH   7   9
ENDBRANCH   1   3
BRANCH   1  17
ATOM     17  C   UNL d   1      25.048 -15.735  -1.692  0.00  0.00     0.170 C 
ATOM     18  C   UNL d   1      25.841 -15.525  -0.386  0.00  0.00     0.042 C 
BRANCH  17  19
ATOM     19  C   UNL d   1      24.296 -17.085  -1.645  0.00  0.00     0.247 C 
ATOM     20  O   UNL d   1      24.405 -17.836  -2.622  0.00  0.00    -0.271 OA
ATOM     21  N   UNL d   1      23.527 -17.374  -0.511  0.00  0.00    -0.278 N 
ATOM     22  C   UNL d   1      22.582 -18.364  -0.616  0.00  0.00     0.323 C 
ATOM     23  H   UNL d   1      23.350 -16.605   0.121  0.00  0.00     0.173 HD
ATOM     24  O   UNL d   1      22.539 -19.115  -1.592  0.00  0.00    -0.247 OA
ATOM     25  N   UNL d   1      21.700 -18.541   0.428  0.00  0.00    -0.338 N 
ATOM     26  H   UNL d   1      21.785 -17.986   1.270  0.00  0.00     0.164 HD
BRANCH  25  27
ATOM     27  C   UNL d   1      20.742 -19.677   0.458  0.00  0.00     0.086 C 
ATOM     28  C   UNL d   1      19.881 -19.783   1.728  0.00  0.00     0.025 C 
ATOM     29  C   UNL d   1      18.665 -20.612   1.358  0.00  0.00     0.002 C 
ATOM     30  C   UNL d   1      18.484 -20.439  -0.146  0.00  0.00     0.002 C 
ATOM     31  C   UNL d   1      19.694 -19.650  -0.663  0.00  0.00     0.025 C 
ENDBRANCH  25  27
ENDBRANCH  17  19
ENDBRANCH   1  17
TORSDOF 8
ENDMDL
