MODEL 1
REMARK VINA RESULT:    -9.805      0.000      0.000
REMARK INTER + INTRA:         -15.383
REMARK INTER:                 -13.682
REMARK INTRA:                  -1.701
REMARK CONF_INDEPENDENT:        3.878
REMARK UNBOUND:                -1.701
REMARK  13 active torsions:
REMARK  status: ('A' for Active; 'I' for Inactive)
REMARK    1  A    between atoms: C_2  and  O_3 
REMARK    2  A    between atoms: O_3  and  C_4 
REMARK    3  A    between atoms: C_6  and  C_7 
REMARK    4  A    between atoms: N_8  and  N_9 
REMARK       I    between atoms: N_9  and  C_10 
REMARK    5  A    between atoms: C_10  and  C_12 
REMARK    6  A    between atoms: C_12  and  O_13 
REMARK    7  A    between atoms: O_13  and  C_14 
REMARK    8  A    between atoms: C_17  and  C_18 
REMARK    9  A    between atoms: C_18  and  C_21 
REMARK   10  A    between atoms: C_21  and  C_22 
REMARK   11  A    between atoms: C_30  and  O_31 
REMARK   12  A    between atoms: O_31  and  C_32 
REMARK   13  A    between atoms: C_32  and  C_34 
ROOT
ATOM      1  C   UNL d   1      28.130 -17.080  -0.019  0.00  0.00     0.150 C 
ATOM      2  N   UNL d   1      28.817 -18.015  -0.604  0.00  0.00    -0.184 NA
ENDROOT
BRANCH   2   3
ATOM      3  N   UNL d   1      30.196 -17.984  -0.573  0.00  0.00    -0.246 N 
ATOM      4  C   UNL d   1      30.873 -17.784  -1.787  0.00  0.00     0.261 C 
ATOM      5  O   UNL d   1      30.292 -17.654  -2.865  0.00  0.00    -0.269 OA
ATOM      6  H   UNL d   1      30.682 -18.079   0.311  0.00  0.00     0.192 HD
BRANCH   4   7
ATOM      7  C   UNL d   1      32.409 -17.767  -1.690  0.00  0.00     0.280 C 
BRANCH   7   8
ATOM      8  O   UNL d   1      32.952 -18.653  -2.677  0.00  0.00    -0.342 OA
BRANCH   8   9
ATOM      9  C   UNL d   1      32.445 -19.918  -2.696  0.00  0.00     0.069 A 
ATOM     10  C   UNL d   1      32.805 -20.745  -1.637  0.00  0.00     0.037 A 
ATOM     11  C   UNL d   1      32.377 -22.064  -1.621  0.00  0.00     0.011 A 
ATOM     12  C   UNL d   1      31.514 -22.564  -2.616  0.00  0.00    -0.050 A 
ATOM     13  C   UNL d   1      31.209 -21.737  -3.698  0.00  0.00     0.011 A 
ATOM     14  C   UNL d   1      31.685 -20.429  -3.742  0.00  0.00     0.037 A 
BRANCH  12  15
ATOM     15  C   UNL d   1      30.903 -23.961  -2.422  0.00  0.00    -0.020 C 
ATOM     16  C   UNL d   1      31.986 -24.972  -2.833  0.00  0.00     0.020 C 
ATOM     17  C   UNL d   1      30.623 -24.073  -0.906  0.00  0.00     0.020 C 
BRANCH  15  18
ATOM     18  C   UNL d   1      29.578 -24.146  -3.254  0.00  0.00     0.022 C 
BRANCH  18  19
ATOM     19  C   UNL d   1      28.728 -25.443  -3.100  0.00  0.00    -0.050 C 
ATOM     20  C   UNL d   1      27.393 -25.181  -2.395  0.00  0.00     0.014 C 
ATOM     21  C   UNL d   1      28.494 -26.157  -4.435  0.00  0.00     0.014 C 
ATOM     22  C   UNL d   1      29.492 -26.440  -2.210  0.00  0.00     0.014 C 
ENDBRANCH  18  19
ENDBRANCH  15  18
ENDBRANCH  12  15
ENDBRANCH   8   9
ENDBRANCH   7   8
ENDBRANCH   4   7
ENDBRANCH   2   3
BRANCH   1  23
ATOM     23  C   UNL d   1      26.626 -17.061  -0.100  0.00  0.00    -0.014 A 
ATOM     24  C   UNL d   1      25.941 -16.155  -0.928  0.00  0.00     0.052 A 
ATOM     25  C   UNL d   1      24.538 -16.244  -1.137  0.00  0.00     0.103 A 
ATOM     26  C   UNL d   1      23.827 -17.290  -0.525  0.00  0.00     0.112 A 
ATOM     27  C   UNL d   1      24.499 -18.145   0.369  0.00  0.00     0.041 A 
ATOM     28  C   UNL d   1      25.883 -18.017   0.596  0.00  0.00     0.016 A 
BRANCH  25  29
ATOM     29  O   UNL d   1      24.057 -15.323  -2.033  0.00  0.00    -0.349 OA
BRANCH  29  30
ATOM     30  C   UNL d   1      24.957 -14.459  -2.729  0.00  0.00     0.171 C 
ATOM     31  C   UNL d   1      25.545 -15.211  -3.921  0.00  0.00     0.034 C 
ENDBRANCH  29  30
ENDBRANCH  25  29
BRANCH  26  32
ATOM     32  O   UNL d   1      22.427 -17.518  -0.670  0.00  0.00    -0.272 OA
BRANCH  32  33
ATOM     33  C   UNL d   1      21.965 -18.760  -1.093  0.00  0.00     0.298 C 
ATOM     34  O   UNL d   1      22.280 -19.325  -2.144  0.00  0.00    -0.259 OA
BRANCH  33  35
ATOM     35  C   UNL d   1      20.853 -19.287  -0.233  0.00  0.00     0.039 A 
ATOM     36  C   UNL d   1      19.673 -19.693  -0.887  0.00  0.00     0.017 A 
ATOM     37  C   UNL d   1      18.594 -20.215  -0.174  0.00  0.00     0.001 A 
ATOM     38  C   UNL d   1      18.701 -20.387   1.202  0.00  0.00     0.000 A 
ATOM     39  C   UNL d   1      19.828 -19.909   1.874  0.00  0.00     0.001 A 
ATOM     40  C   UNL d   1      20.890 -19.325   1.166  0.00  0.00     0.017 A 
ENDBRANCH  33  35
ENDBRANCH  32  33
ENDBRANCH  26  32
ENDBRANCH   1  23
TORSDOF 13
ENDMDL
MODEL 2
REMARK VINA RESULT:    -9.035      7.523     11.794
REMARK INTER + INTRA:         -14.773
REMARK INTER:                 -12.913
REMARK INTRA:                  -1.861
REMARK CONF_INDEPENDENT:        3.878
REMARK UNBOUND:                -1.861
REMARK  13 active torsions:
REMARK  status: ('A' for Active; 'I' for Inactive)
REMARK    1  A    between atoms: C_2  and  O_3 
REMARK    2  A    between atoms: O_3  and  C_4 
REMARK    3  A    between atoms: C_6  and  C_7 
REMARK    4  A    between atoms: N_8  and  N_9 
REMARK       I    between atoms: N_9  and  C_10 
REMARK    5  A    between atoms: C_10  and  C_12 
REMARK    6  A    between atoms: C_12  and  O_13 
REMARK    7  A    between atoms: O_13  and  C_14 
REMARK    8  A    between atoms: C_17  and  C_18 
REMARK    9  A    between atoms: C_18  and  C_21 
REMARK   10  A    between atoms: C_21  and  C_22 
REMARK   11  A    between atoms: C_30  and  O_31 
REMARK   12  A    between atoms: O_31  and  C_32 
REMARK   13  A    between atoms: C_32  and  C_34 
ROOT
ATOM      1  C   UNL d   1      27.685 -15.825   1.245  0.00  0.00     0.150 C 
ATOM      2  N   UNL d   1      28.137 -14.731   1.781  0.00  0.00    -0.184 NA
ENDROOT
BRANCH   2   3
ATOM      3  N   UNL d   1      28.645 -14.747   3.064  0.00  0.00    -0.246 N 
ATOM      4  C   UNL d   1      28.123 -13.825   3.986  0.00  0.00     0.261 C 
ATOM      5  O   UNL d   1      27.254 -13.003   3.693  0.00  0.00    -0.269 OA
ATOM      6  H   UNL d   1      29.352 -15.427   3.318  0.00  0.00     0.192 HD
BRANCH   4   7
ATOM      7  C   UNL d   1      28.734 -13.885   5.398  0.00  0.00     0.280 C 
BRANCH   7   8
ATOM      8  O   UNL d   1      28.581 -12.609   6.030  0.00  0.00    -0.342 OA
BRANCH   8   9
ATOM      9  C   UNL d   1      29.085 -12.497   7.292  0.00  0.00     0.069 A 
ATOM     10  C   UNL d   1      28.157 -12.423   8.325  0.00  0.00     0.037 A 
ATOM     11  C   UNL d   1      28.596 -12.246   9.629  0.00  0.00     0.011 A 
ATOM     12  C   UNL d   1      29.969 -12.222   9.941  0.00  0.00    -0.050 A 
ATOM     13  C   UNL d   1      30.883 -12.241   8.887  0.00  0.00     0.011 A 
ATOM     14  C   UNL d   1      30.441 -12.362   7.572  0.00  0.00     0.037 A 
BRANCH  12  15
ATOM     15  C   UNL d   1      30.385 -12.245  11.420  0.00  0.00    -0.020 C 
ATOM     16  C   UNL d   1      31.460 -11.157  11.588  0.00  0.00     0.020 C 
ATOM     17  C   UNL d   1      29.112 -11.856  12.206  0.00  0.00     0.020 C 
BRANCH  15  18
ATOM     18  C   UNL d   1      30.909 -13.663  11.864  0.00  0.00     0.022 C 
BRANCH  18  19
ATOM     19  C   UNL d   1      30.152 -14.953  11.427  0.00  0.00    -0.050 C 
ATOM     20  C   UNL d   1      28.654 -14.880  11.737  0.00  0.00     0.014 C 
ATOM     21  C   UNL d   1      30.374 -15.294   9.950  0.00  0.00     0.014 C 
ATOM     22  C   UNL d   1      30.697 -16.150  12.228  0.00  0.00     0.014 C 
ENDBRANCH  18  19
ENDBRANCH  15  18
ENDBRANCH  12  15
ENDBRANCH   8   9
ENDBRANCH   7   8
ENDBRANCH   4   7
ENDBRANCH   2   3
BRANCH   1  23
ATOM     23  C   UNL d   1      27.065 -15.813  -0.128  0.00  0.00    -0.014 A 
ATOM     24  C   UNL d   1      25.806 -16.387  -0.376  0.00  0.00     0.052 A 
ATOM     25  C   UNL d   1      25.144 -16.231  -1.625  0.00  0.00     0.103 A 
ATOM     26  C   UNL d   1      25.753 -15.448  -2.620  0.00  0.00     0.112 A 
ATOM     27  C   UNL d   1      27.049 -14.944  -2.401  0.00  0.00     0.041 A 
ATOM     28  C   UNL d   1      27.707 -15.144  -1.172  0.00  0.00     0.016 A 
BRANCH  25  29
ATOM     29  O   UNL d   1      23.895 -16.797  -1.658  0.00  0.00    -0.349 OA
BRANCH  29  30
ATOM     30  C   UNL d   1      23.657 -18.052  -1.020  0.00  0.00     0.171 C 
ATOM     31  C   UNL d   1      22.238 -18.061  -0.457  0.00  0.00     0.034 C 
ENDBRANCH  29  30
ENDBRANCH  25  29
BRANCH  26  32
ATOM     32  O   UNL d   1      25.192 -15.182  -3.904  0.00  0.00    -0.272 OA
BRANCH  32  33
ATOM     33  C   UNL d   1      26.012 -14.767  -4.948  0.00  0.00     0.298 C 
ATOM     34  O   UNL d   1      26.637 -15.511  -5.710  0.00  0.00    -0.259 OA
BRANCH  33  35
ATOM     35  C   UNL d   1      26.247 -13.284  -4.946  0.00  0.00     0.039 A 
ATOM     36  C   UNL d   1      25.524 -12.522  -4.008  0.00  0.00     0.017 A 
ATOM     37  C   UNL d   1      25.691 -11.140  -3.916  0.00  0.00     0.001 A 
ATOM     38  C   UNL d   1      26.625 -10.508  -4.729  0.00  0.00     0.000 A 
ATOM     39  C   UNL d   1      27.284 -11.236  -5.723  0.00  0.00     0.001 A 
ATOM     40  C   UNL d   1      27.071 -12.617  -5.859  0.00  0.00     0.017 A 
ENDBRANCH  33  35
ENDBRANCH  32  33
ENDBRANCH  26  32
ENDBRANCH   1  23
TORSDOF 13
ENDMDL
MODEL 3
REMARK VINA RESULT:    -8.978      4.087      6.844
REMARK INTER + INTRA:         -15.758
REMARK INTER:                 -12.856
REMARK INTRA:                  -2.902
REMARK CONF_INDEPENDENT:        3.878
REMARK UNBOUND:                -2.902
REMARK  13 active torsions:
REMARK  status: ('A' for Active; 'I' for Inactive)
REMARK    1  A    between atoms: C_2  and  O_3 
REMARK    2  A    between atoms: O_3  and  C_4 
REMARK    3  A    between atoms: C_6  and  C_7 
REMARK    4  A    between atoms: N_8  and  N_9 
REMARK       I    between atoms: N_9  and  C_10 
REMARK    5  A    between atoms: C_10  and  C_12 
REMARK    6  A    between atoms: C_12  and  O_13 
REMARK    7  A    between atoms: O_13  and  C_14 
REMARK    8  A    between atoms: C_17  and  C_18 
REMARK    9  A    between atoms: C_18  and  C_21 
REMARK   10  A    between atoms: C_21  and  C_22 
REMARK   11  A    between atoms: C_30  and  O_31 
REMARK   12  A    between atoms: O_31  and  C_32 
REMARK   13  A    between atoms: C_32  and  C_34 
ROOT
ATOM      1  C   UNL d   1      28.356 -16.884  -0.118  0.00  0.00     0.150 C 
ATOM      2  N   UNL d   1      29.057 -17.893  -0.542  0.00  0.00    -0.184 NA
ENDROOT
BRANCH   2   3
ATOM      3  N   UNL d   1      30.434 -17.858  -0.473  0.00  0.00    -0.246 N 
ATOM      4  C   UNL d   1      31.129 -17.292  -1.555  0.00  0.00     0.261 C 
ATOM      5  O   UNL d   1      30.565 -16.848  -2.556  0.00  0.00    -0.269 OA
ATOM      6  H   UNL d   1      30.907 -18.211   0.351  0.00  0.00     0.192 HD
BRANCH   4   7
ATOM      7  C   UNL d   1      32.663 -17.287  -1.425  0.00  0.00     0.280 C 
BRANCH   7   8
ATOM      8  O   UNL d   1      33.017 -17.345  -0.037  0.00  0.00    -0.342 OA
BRANCH   8   9
ATOM      9  C   UNL d   1      32.553 -16.331   0.746  0.00  0.00     0.069 A 
ATOM     10  C   UNL d   1      32.385 -15.096   0.128  0.00  0.00     0.037 A 
ATOM     11  C   UNL d   1      31.975 -14.004   0.878  0.00  0.00     0.011 A 
ATOM     12  C   UNL d   1      31.642 -14.136   2.240  0.00  0.00    -0.050 A 
ATOM     13  C   UNL d   1      31.870 -15.368   2.855  0.00  0.00     0.011 A 
ATOM     14  C   UNL d   1      32.335 -16.451   2.115  0.00  0.00     0.037 A 
BRANCH  12  15
ATOM     15  C   UNL d   1      30.987 -12.944   2.954  0.00  0.00    -0.020 C 
ATOM     16  C   UNL d   1      32.135 -12.068   3.484  0.00  0.00     0.020 C 
ATOM     17  C   UNL d   1      30.211 -12.188   1.851  0.00  0.00     0.020 C 
BRANCH  15  18
ATOM     18  C   UNL d   1      30.018 -13.406   4.108  0.00  0.00     0.022 C 
BRANCH  18  19
ATOM     19  C   UNL d   1      28.605 -13.968   3.769  0.00  0.00    -0.050 C 
ATOM     20  C   UNL d   1      28.513 -14.478   2.328  0.00  0.00     0.014 C 
ATOM     21  C   UNL d   1      28.153 -15.056   4.749  0.00  0.00     0.014 C 
ATOM     22  C   UNL d   1      27.572 -12.832   3.887  0.00  0.00     0.014 C 
ENDBRANCH  18  19
ENDBRANCH  15  18
ENDBRANCH  12  15
ENDBRANCH   8   9
ENDBRANCH   7   8
ENDBRANCH   4   7
ENDBRANCH   2   3
BRANCH   1  23
ATOM     23  C   UNL d   1      26.856 -16.877  -0.247  0.00  0.00    -0.014 A 
ATOM     24  C   UNL d   1      26.194 -16.019  -1.143  0.00  0.00     0.052 A 
ATOM     25  C   UNL d   1      24.799 -16.126  -1.391  0.00  0.00     0.103 A 
ATOM     26  C   UNL d   1      24.073 -17.143  -0.748  0.00  0.00     0.112 A 
ATOM     27  C   UNL d   1      24.718 -17.946   0.211  0.00  0.00     0.041 A 
ATOM     28  C   UNL d   1      26.094 -17.799   0.474  0.00  0.00     0.016 A 
BRANCH  25  29
ATOM     29  O   UNL d   1      24.343 -15.256  -2.349  0.00  0.00    -0.349 OA
BRANCH  29  30
ATOM     30  C   UNL d   1      25.230 -14.767  -3.356  0.00  0.00     0.171 C 
ATOM     31  C   UNL d   1      24.510 -13.696  -4.174  0.00  0.00     0.034 C 
ENDBRANCH  29  30
ENDBRANCH  25  29
BRANCH  26  32
ATOM     32  O   UNL d   1      22.679 -17.385  -0.925  0.00  0.00    -0.272 OA
BRANCH  32  33
ATOM     33  C   UNL d   1      22.231 -18.661  -1.252  0.00  0.00     0.298 C 
ATOM     34  O   UNL d   1      22.598 -19.324  -2.226  0.00  0.00    -0.259 OA
BRANCH  33  35
ATOM     35  C   UNL d   1      21.070 -19.101  -0.407  0.00  0.00     0.039 A 
ATOM     36  C   UNL d   1      21.203 -18.964   0.988  0.00  0.00     0.017 A 
ATOM     37  C   UNL d   1      20.170 -19.326   1.853  0.00  0.00     0.001 A 
ATOM     38  C   UNL d   1      18.966 -19.781   1.327  0.00  0.00     0.000 A 
ATOM     39  C   UNL d   1      18.850 -20.005  -0.047  0.00  0.00     0.001 A 
ATOM     40  C   UNL d   1      19.911 -19.700  -0.914  0.00  0.00     0.017 A 
ENDBRANCH  33  35
ENDBRANCH  32  33
ENDBRANCH  26  32
ENDBRANCH   1  23
TORSDOF 13
ENDMDL
MODEL 4
REMARK VINA RESULT:    -8.741      4.869      7.974
REMARK INTER + INTRA:         -15.082
REMARK INTER:                 -12.619
REMARK INTRA:                  -2.463
REMARK CONF_INDEPENDENT:        3.878
REMARK UNBOUND:                -2.463
REMARK  13 active torsions:
REMARK  status: ('A' for Active; 'I' for Inactive)
REMARK    1  A    between atoms: C_2  and  O_3 
REMARK    2  A    between atoms: O_3  and  C_4 
REMARK    3  A    between atoms: C_6  and  C_7 
REMARK    4  A    between atoms: N_8  and  N_9 
REMARK       I    between atoms: N_9  and  C_10 
REMARK    5  A    between atoms: C_10  and  C_12 
REMARK    6  A    between atoms: C_12  and  O_13 
REMARK    7  A    between atoms: O_13  and  C_14 
REMARK    8  A    between atoms: C_17  and  C_18 
REMARK    9  A    between atoms: C_18  and  C_21 
REMARK   10  A    between atoms: C_21  and  C_22 
REMARK   11  A    between atoms: C_30  and  O_31 
REMARK   12  A    between atoms: O_31  and  C_32 
REMARK   13  A    between atoms: C_32  and  C_34 
ROOT
ATOM      1  C   UNL d   1      25.533 -14.465  -2.268  0.00  0.00     0.150 C 
ATOM      2  N   UNL d   1      25.654 -14.266  -3.547  0.00  0.00    -0.184 NA
ENDROOT
BRANCH   2   3
ATOM      3  N   UNL d   1      26.309 -13.146  -4.015  0.00  0.00    -0.246 N 
ATOM      4  C   UNL d   1      27.700 -13.227  -4.191  0.00  0.00     0.261 C 
ATOM      5  O   UNL d   1      28.351 -14.240  -3.931  0.00  0.00    -0.269 OA
ATOM      6  H   UNL d   1      25.781 -12.311  -4.241  0.00  0.00     0.192 HD
BRANCH   4   7
ATOM      7  C   UNL d   1      28.376 -11.944  -4.708  0.00  0.00     0.280 C 
BRANCH   7   8
ATOM      8  O   UNL d   1      29.072 -11.312  -3.627  0.00  0.00    -0.342 OA
BRANCH   8   9
ATOM      9  C   UNL d   1      28.822 -11.802  -2.380  0.00  0.00     0.069 A 
ATOM     10  C   UNL d   1      27.762 -11.224  -1.687  0.00  0.00     0.037 A 
ATOM     11  C   UNL d   1      27.489 -11.631  -0.390  0.00  0.00     0.011 A 
ATOM     12  C   UNL d   1      28.212 -12.677   0.216  0.00  0.00    -0.050 A 
ATOM     13  C   UNL d   1      29.305 -13.205  -0.472  0.00  0.00     0.011 A 
ATOM     14  C   UNL d   1      29.614 -12.758  -1.754  0.00  0.00     0.037 A 
BRANCH  12  15
ATOM     15  C   UNL d   1      27.717 -13.225   1.564  0.00  0.00    -0.020 C 
ATOM     16  C   UNL d   1      26.276 -12.716   1.740  0.00  0.00     0.020 C 
ATOM     17  C   UNL d   1      27.720 -14.762   1.402  0.00  0.00     0.020 C 
BRANCH  15  18
ATOM     18  C   UNL d   1      28.647 -12.783   2.758  0.00  0.00     0.022 C 
BRANCH  18  19
ATOM     19  C   UNL d   1      28.403 -13.339   4.192  0.00  0.00    -0.050 C 
ATOM     20  C   UNL d   1      29.434 -14.401   4.587  0.00  0.00     0.014 C 
ATOM     21  C   UNL d   1      28.344 -12.234   5.251  0.00  0.00     0.014 C 
ATOM     22  C   UNL d   1      27.032 -14.040   4.231  0.00  0.00     0.014 C 
ENDBRANCH  18  19
ENDBRANCH  15  18
ENDBRANCH  12  15
ENDBRANCH   8   9
ENDBRANCH   7   8
ENDBRANCH   4   7
ENDBRANCH   2   3
BRANCH   1  23
ATOM     23  C   UNL d   1      24.763 -15.646  -1.740  0.00  0.00    -0.014 A 
ATOM     24  C   UNL d   1      25.412 -16.795  -1.255  0.00  0.00     0.052 A 
ATOM     25  C   UNL d   1      24.701 -17.839  -0.602  0.00  0.00     0.103 A 
ATOM     26  C   UNL d   1      23.317 -17.694  -0.405  0.00  0.00     0.112 A 
ATOM     27  C   UNL d   1      22.656 -16.585  -0.964  0.00  0.00     0.041 A 
ATOM     28  C   UNL d   1      23.371 -15.580  -1.645  0.00  0.00     0.016 A 
BRANCH  25  29
ATOM     29  O   UNL d   1      25.509 -18.843  -0.131  0.00  0.00    -0.349 OA
BRANCH  29  30
ATOM     30  C   UNL d   1      26.567 -18.546   0.781  0.00  0.00     0.171 C 
ATOM     31  C   UNL d   1      27.801 -18.122  -0.012  0.00  0.00     0.034 C 
ENDBRANCH  29  30
ENDBRANCH  25  29
BRANCH  26  32
ATOM     32  O   UNL d   1      22.485 -18.644   0.258  0.00  0.00    -0.272 OA
BRANCH  32  33
ATOM     33  C   UNL d   1      21.466 -19.283  -0.441  0.00  0.00     0.298 C 
ATOM     34  O   UNL d   1      21.352 -19.322  -1.670  0.00  0.00    -0.259 OA
BRANCH  33  35
ATOM     35  C   UNL d   1      20.363 -19.764   0.456  0.00  0.00     0.039 A 
ATOM     36  C   UNL d   1      19.285 -20.433  -0.154  0.00  0.00     0.017 A 
ATOM     37  C   UNL d   1      18.224 -20.936   0.600  0.00  0.00     0.001 A 
ATOM     38  C   UNL d   1      18.254 -20.819   1.985  0.00  0.00     0.000 A 
ATOM     39  C   UNL d   1      19.270 -20.082   2.597  0.00  0.00     0.001 A 
ATOM     40  C   UNL d   1      20.307 -19.522   1.834  0.00  0.00     0.017 A 
ENDBRANCH  33  35
ENDBRANCH  32  33
ENDBRANCH  26  32
ENDBRANCH   1  23
TORSDOF 13
ENDMDL
MODEL 5
REMARK VINA RESULT:    -8.739      4.516      7.882
REMARK INTER + INTRA:         -15.094
REMARK INTER:                 -12.617
REMARK INTRA:                  -2.478
REMARK CONF_INDEPENDENT:        3.878
REMARK UNBOUND:                -2.478
REMARK  13 active torsions:
REMARK  status: ('A' for Active; 'I' for Inactive)
REMARK    1  A    between atoms: C_2  and  O_3 
REMARK    2  A    between atoms: O_3  and  C_4 
REMARK    3  A    between atoms: C_6  and  C_7 
REMARK    4  A    between atoms: N_8  and  N_9 
REMARK       I    between atoms: N_9  and  C_10 
REMARK    5  A    between atoms: C_10  and  C_12 
REMARK    6  A    between atoms: C_12  and  O_13 
REMARK    7  A    between atoms: O_13  and  C_14 
REMARK    8  A    between atoms: C_17  and  C_18 
REMARK    9  A    between atoms: C_18  and  C_21 
REMARK   10  A    between atoms: C_21  and  C_22 
REMARK   11  A    between atoms: C_30  and  O_31 
REMARK   12  A    between atoms: O_31  and  C_32 
REMARK   13  A    between atoms: C_32  and  C_34 
ROOT
ATOM      1  C   UNL d   1      27.967 -16.820   0.387  0.00  0.00     0.150 C 
ATOM      2  N   UNL d   1      28.962 -17.439  -0.176  0.00  0.00    -0.184 NA
ENDROOT
BRANCH   2   3
ATOM      3  N   UNL d   1      30.260 -17.079   0.123  0.00  0.00    -0.246 N 
ATOM      4  C   UNL d   1      30.932 -16.244  -0.783  0.00  0.00     0.261 C 
ATOM      5  O   UNL d   1      30.421 -15.839  -1.828  0.00  0.00    -0.269 OA
ATOM      6  H   UNL d   1      30.686 -17.398   0.986  0.00  0.00     0.192 HD
BRANCH   4   7
ATOM      7  C   UNL d   1      32.379 -15.883  -0.400  0.00  0.00     0.280 C 
BRANCH   7   8
ATOM      8  O   UNL d   1      32.396 -14.583   0.201  0.00  0.00    -0.342 OA
BRANCH   8   9
ATOM      9  C   UNL d   1      31.406 -14.321   1.101  0.00  0.00     0.069 A 
ATOM     10  C   UNL d   1      30.251 -13.732   0.598  0.00  0.00     0.037 A 
ATOM     11  C   UNL d   1      29.227 -13.382   1.465  0.00  0.00     0.011 A 
ATOM     12  C   UNL d   1      29.297 -13.686   2.839  0.00  0.00    -0.050 A 
ATOM     13  C   UNL d   1      30.485 -14.226   3.333  0.00  0.00     0.011 A 
ATOM     14  C   UNL d   1      31.536 -14.526   2.470  0.00  0.00     0.037 A 
BRANCH  12  15
ATOM     15  C   UNL d   1      28.043 -13.472   3.702  0.00  0.00    -0.020 C 
ATOM     16  C   UNL d   1      26.897 -13.137   2.731  0.00  0.00     0.020 C 
ATOM     17  C   UNL d   1      27.780 -14.836   4.380  0.00  0.00     0.020 C 
BRANCH  15  18
ATOM     18  C   UNL d   1      28.253 -12.339   4.777  0.00  0.00     0.022 C 
BRANCH  18  19
ATOM     19  C   UNL d   1      28.387 -10.851   4.336  0.00  0.00    -0.050 C 
ATOM     20  C   UNL d   1      29.039 -10.712   2.957  0.00  0.00     0.014 C 
ATOM     21  C   UNL d   1      27.051 -10.103   4.372  0.00  0.00     0.014 C 
ATOM     22  C   UNL d   1      29.314 -10.118   5.323  0.00  0.00     0.014 C 
ENDBRANCH  18  19
ENDBRANCH  15  18
ENDBRANCH  12  15
ENDBRANCH   8   9
ENDBRANCH   7   8
ENDBRANCH   4   7
ENDBRANCH   2   3
BRANCH   1  23
ATOM     23  C   UNL d   1      26.545 -17.153   0.022  0.00  0.00    -0.014 A 
ATOM     24  C   UNL d   1      25.832 -16.409  -0.934  0.00  0.00     0.052 A 
ATOM     25  C   UNL d   1      24.555 -16.819  -1.404  0.00  0.00     0.103 A 
ATOM     26  C   UNL d   1      24.011 -18.022  -0.922  0.00  0.00     0.112 A 
ATOM     27  C   UNL d   1      24.686 -18.721   0.096  0.00  0.00     0.041 A 
ATOM     28  C   UNL d   1      25.932 -18.277   0.579  0.00  0.00     0.016 A 
BRANCH  25  29
ATOM     29  O   UNL d   1      24.046 -16.010  -2.388  0.00  0.00    -0.349 OA
BRANCH  29  30
ATOM     30  C   UNL d   1      24.728 -14.811  -2.757  0.00  0.00     0.171 C 
ATOM     31  C   UNL d   1      25.772 -15.142  -3.823  0.00  0.00     0.034 C 
ENDBRANCH  29  30
ENDBRANCH  25  29
BRANCH  26  32
ATOM     32  O   UNL d   1      22.757 -18.568  -1.325  0.00  0.00    -0.272 OA
BRANCH  32  33
ATOM     33  C   UNL d   1      21.572 -17.973  -0.906  0.00  0.00     0.298 C 
ATOM     34  O   UNL d   1      21.342 -16.760  -0.892  0.00  0.00    -0.259 OA
BRANCH  33  35
ATOM     35  C   UNL d   1      20.634 -18.948  -0.254  0.00  0.00     0.039 A 
ATOM     36  C   UNL d   1      20.894 -19.290   1.087  0.00  0.00     0.017 A 
ATOM     37  C   UNL d   1      20.065 -20.171   1.783  0.00  0.00     0.001 A 
ATOM     38  C   UNL d   1      18.934 -20.683   1.158  0.00  0.00     0.000 A 
ATOM     39  C   UNL d   1      18.711 -20.423  -0.196  0.00  0.00     0.001 A 
ATOM     40  C   UNL d   1      19.579 -19.586  -0.916  0.00  0.00     0.017 A 
ENDBRANCH  33  35
ENDBRANCH  32  33
ENDBRANCH  26  32
ENDBRANCH   1  23
TORSDOF 13
ENDMDL
MODEL 6
REMARK VINA RESULT:    -8.591      6.220     10.315
REMARK INTER + INTRA:         -15.153
REMARK INTER:                 -12.469
REMARK INTRA:                  -2.684
REMARK CONF_INDEPENDENT:        3.878
REMARK UNBOUND:                -2.684
REMARK  13 active torsions:
REMARK  status: ('A' for Active; 'I' for Inactive)
REMARK    1  A    between atoms: C_2  and  O_3 
REMARK    2  A    between atoms: O_3  and  C_4 
REMARK    3  A    between atoms: C_6  and  C_7 
REMARK    4  A    between atoms: N_8  and  N_9 
REMARK       I    between atoms: N_9  and  C_10 
REMARK    5  A    between atoms: C_10  and  C_12 
REMARK    6  A    between atoms: C_12  and  O_13 
REMARK    7  A    between atoms: O_13  and  C_14 
REMARK    8  A    between atoms: C_17  and  C_18 
REMARK    9  A    between atoms: C_18  and  C_21 
REMARK   10  A    between atoms: C_21  and  C_22 
REMARK   11  A    between atoms: C_30  and  O_31 
REMARK   12  A    between atoms: O_31  and  C_32 
REMARK   13  A    between atoms: C_32  and  C_34 
ROOT
ATOM      1  C   UNL d   1      27.653 -11.620   1.162  0.00  0.00     0.150 C 
ATOM      2  N   UNL d   1      27.134 -10.524   0.695  0.00  0.00    -0.184 NA
ENDROOT
BRANCH   2   3
ATOM      3  N   UNL d   1      27.460  -9.308   1.259  0.00  0.00    -0.246 N 
ATOM      4  C   UNL d   1      26.410  -8.425   1.562  0.00  0.00     0.261 C 
ATOM      5  O   UNL d   1      25.228  -8.684   1.332  0.00  0.00    -0.269 OA
ATOM      6  H   UNL d   1      28.428  -9.089   1.462  0.00  0.00     0.192 HD
BRANCH   4   7
ATOM      7  C   UNL d   1      26.835  -7.082   2.182  0.00  0.00     0.280 C 
BRANCH   7   8
ATOM      8  O   UNL d   1      26.693  -7.155   3.606  0.00  0.00    -0.342 OA
BRANCH   8   9
ATOM      9  C   UNL d   1      27.281  -8.221   4.217  0.00  0.00     0.069 A 
ATOM     10  C   UNL d   1      28.534  -7.999   4.780  0.00  0.00     0.037 A 
ATOM     11  C   UNL d   1      29.219  -9.054   5.365  0.00  0.00     0.011 A 
ATOM     12  C   UNL d   1      28.637 -10.332   5.476  0.00  0.00    -0.050 A 
ATOM     13  C   UNL d   1      27.405 -10.549   4.857  0.00  0.00     0.011 A 
ATOM     14  C   UNL d   1      26.741  -9.503   4.221  0.00  0.00     0.037 A 
BRANCH  12  15
ATOM     15  C   UNL d   1      29.353 -11.393   6.326  0.00  0.00    -0.020 C 
ATOM     16  C   UNL d   1      30.784 -11.504   5.770  0.00  0.00     0.020 C 
ATOM     17  C   UNL d   1      29.386 -10.811   7.757  0.00  0.00     0.020 C 
BRANCH  15  18
ATOM     18  C   UNL d   1      28.602 -12.778   6.298  0.00  0.00     0.022 C 
BRANCH  18  19
ATOM     19  C   UNL d   1      28.766 -13.736   5.081  0.00  0.00    -0.050 C 
ATOM     20  C   UNL d   1      29.184 -12.993   3.809  0.00  0.00     0.014 C 
ATOM     21  C   UNL d   1      29.733 -14.890   5.366  0.00  0.00     0.014 C 
ATOM     22  C   UNL d   1      27.405 -14.387   4.768  0.00  0.00     0.014 C 
ENDBRANCH  18  19
ENDBRANCH  15  18
ENDBRANCH  12  15
ENDBRANCH   8   9
ENDBRANCH   7   8
ENDBRANCH   4   7
ENDBRANCH   2   3
BRANCH   1  23
ATOM     23  C   UNL d   1      27.257 -12.961   0.604  0.00  0.00    -0.014 A 
ATOM     24  C   UNL d   1      26.753 -13.100  -0.701  0.00  0.00     0.052 A 
ATOM     25  C   UNL d   1      26.539 -14.376  -1.290  0.00  0.00     0.103 A 
ATOM     26  C   UNL d   1      26.876 -15.526  -0.556  0.00  0.00     0.112 A 
ATOM     27  C   UNL d   1      27.301 -15.388   0.779  0.00  0.00     0.041 A 
ATOM     28  C   UNL d   1      27.469 -14.116   1.360  0.00  0.00     0.016 A 
BRANCH  25  29
ATOM     29  O   UNL d   1      26.114 -14.315  -2.593  0.00  0.00    -0.349 OA
BRANCH  29  30
ATOM     30  C   UNL d   1      25.832 -15.515  -3.314  0.00  0.00     0.171 C 
ATOM     31  C   UNL d   1      25.925 -15.228  -4.811  0.00  0.00     0.034 C 
ENDBRANCH  29  30
ENDBRANCH  25  29
BRANCH  26  32
ATOM     32  O   UNL d   1      26.743 -16.864  -1.030  0.00  0.00    -0.272 OA
BRANCH  32  33
ATOM     33  C   UNL d   1      26.075 -17.811  -0.261  0.00  0.00     0.298 C 
ATOM     34  O   UNL d   1      26.608 -18.726   0.375  0.00  0.00    -0.259 OA
BRANCH  33  35
ATOM     35  C   UNL d   1      24.585 -17.753  -0.436  0.00  0.00     0.039 A 
ATOM     36  C   UNL d   1      23.899 -18.980  -0.505  0.00  0.00     0.017 A 
ATOM     37  C   UNL d   1      22.511 -19.027  -0.645  0.00  0.00     0.001 A 
ATOM     38  C   UNL d   1      21.786 -17.841  -0.667  0.00  0.00     0.000 A 
ATOM     39  C   UNL d   1      22.458 -16.617  -0.689  0.00  0.00     0.001 A 
ATOM     40  C   UNL d   1      23.859 -16.569  -0.610  0.00  0.00     0.017 A 
ENDBRANCH  33  35
ENDBRANCH  32  33
ENDBRANCH  26  32
ENDBRANCH   1  23
TORSDOF 13
ENDMDL
MODEL 7
REMARK VINA RESULT:    -8.581      3.811      5.211
REMARK INTER + INTRA:         -15.403
REMARK INTER:                 -12.459
REMARK INTRA:                  -2.944
REMARK CONF_INDEPENDENT:        3.878
REMARK UNBOUND:                -2.944
REMARK  13 active torsions:
REMARK  status: ('A' for Active; 'I' for Inactive)
REMARK    1  A    between atoms: C_2  and  O_3 
REMARK    2  A    between atoms: O_3  and  C_4 
REMARK    3  A    between atoms: C_6  and  C_7 
REMARK    4  A    between atoms: N_8  and  N_9 
REMARK       I    between atoms: N_9  and  C_10 
REMARK    5  A    between atoms: C_10  and  C_12 
REMARK    6  A    between atoms: C_12  and  O_13 
REMARK    7  A    between atoms: O_13  and  C_14 
REMARK    8  A    between atoms: C_17  and  C_18 
REMARK    9  A    between atoms: C_18  and  C_21 
REMARK   10  A    between atoms: C_21  and  C_22 
REMARK   11  A    between atoms: C_30  and  O_31 
REMARK   12  A    between atoms: O_31  and  C_32 
REMARK   13  A    between atoms: C_32  and  C_34 
ROOT
ATOM      1  C   UNL d   1      28.285 -17.222  -0.115  0.00  0.00     0.150 C 
ATOM      2  N   UNL d   1      28.974 -17.222  -1.217  0.00  0.00    -0.184 NA
ENDROOT
BRANCH   2   3
ATOM      3  N   UNL d   1      30.352 -17.207  -1.172  0.00  0.00    -0.246 N 
ATOM      4  C   UNL d   1      30.974 -16.124  -0.531  0.00  0.00     0.261 C 
ATOM      5  O   UNL d   1      30.346 -15.191  -0.029  0.00  0.00    -0.269 OA
ATOM      6  H   UNL d   1      30.878 -17.975  -1.573  0.00  0.00     0.192 HD
BRANCH   4   7
ATOM      7  C   UNL d   1      32.513 -16.158  -0.519  0.00  0.00     0.280 C 
BRANCH   7   8
ATOM      8  O   UNL d   1      32.968 -17.149  -1.448  0.00  0.00    -0.342 OA
BRANCH   8   9
ATOM      9  C   UNL d   1      32.672 -16.927  -2.760  0.00  0.00     0.069 A 
ATOM     10  C   UNL d   1      32.075 -17.978  -3.447  0.00  0.00     0.037 A 
ATOM     11  C   UNL d   1      31.802 -17.845  -4.800  0.00  0.00     0.011 A 
ATOM     12  C   UNL d   1      32.041 -16.634  -5.479  0.00  0.00    -0.050 A 
ATOM     13  C   UNL d   1      32.691 -15.611  -4.787  0.00  0.00     0.011 A 
ATOM     14  C   UNL d   1      33.017 -15.765  -3.442  0.00  0.00     0.037 A 
BRANCH  12  15
ATOM     15  C   UNL d   1      31.515 -16.481  -6.915  0.00  0.00    -0.020 C 
ATOM     16  C   UNL d   1      32.484 -15.530  -7.636  0.00  0.00     0.020 C 
ATOM     17  C   UNL d   1      31.605 -17.896  -7.532  0.00  0.00     0.020 C 
BRANCH  15  18
ATOM     18  C   UNL d   1      30.033 -15.947  -6.946  0.00  0.00     0.022 C 
BRANCH  18  19
ATOM     19  C   UNL d   1      29.473 -15.111  -5.756  0.00  0.00    -0.050 C 
ATOM     20  C   UNL d   1      29.294 -15.953  -4.489  0.00  0.00     0.014 C 
ATOM     21  C   UNL d   1      30.322 -13.871  -5.456  0.00  0.00     0.014 C 
ATOM     22  C   UNL d   1      28.071 -14.591  -6.125  0.00  0.00     0.014 C 
ENDBRANCH  18  19
ENDBRANCH  15  18
ENDBRANCH  12  15
ENDBRANCH   8   9
ENDBRANCH   7   8
ENDBRANCH   4   7
ENDBRANCH   2   3
BRANCH   1  23
ATOM     23  C   UNL d   1      26.780 -17.170  -0.145  0.00  0.00    -0.014 A 
ATOM     24  C   UNL d   1      26.087 -16.257  -0.958  0.00  0.00     0.052 A 
ATOM     25  C   UNL d   1      24.676 -16.316  -1.118  0.00  0.00     0.103 A 
ATOM     26  C   UNL d   1      23.964 -17.341  -0.472  0.00  0.00     0.112 A 
ATOM     27  C   UNL d   1      24.647 -18.202   0.408  0.00  0.00     0.041 A 
ATOM     28  C   UNL d   1      26.040 -18.103   0.586  0.00  0.00     0.016 A 
BRANCH  25  29
ATOM     29  O   UNL d   1      24.185 -15.393  -2.006  0.00  0.00    -0.349 OA
BRANCH  29  30
ATOM     30  C   UNL d   1      25.080 -14.594  -2.781  0.00  0.00     0.171 C 
ATOM     31  C   UNL d   1      25.673 -15.453  -3.896  0.00  0.00     0.034 C 
ENDBRANCH  29  30
ENDBRANCH  25  29
BRANCH  26  32
ATOM     32  O   UNL d   1      22.555 -17.539  -0.566  0.00  0.00    -0.272 OA
BRANCH  32  33
ATOM     33  C   UNL d   1      22.052 -18.758  -1.007  0.00  0.00     0.298 C 
ATOM     34  O   UNL d   1      22.358 -19.323  -2.061  0.00  0.00    -0.259 OA
BRANCH  33  35
ATOM     35  C   UNL d   1      20.912 -19.253  -0.164  0.00  0.00     0.039 A 
ATOM     36  C   UNL d   1      19.759 -19.697  -0.841  0.00  0.00     0.017 A 
ATOM     37  C   UNL d   1      18.657 -20.194  -0.145  0.00  0.00     0.001 A 
ATOM     38  C   UNL d   1      18.715 -20.300   1.240  0.00  0.00     0.000 A 
ATOM     39  C   UNL d   1      19.814 -19.784   1.931  0.00  0.00     0.001 A 
ATOM     40  C   UNL d   1      20.898 -19.226   1.235  0.00  0.00     0.017 A 
ENDBRANCH  33  35
ENDBRANCH  32  33
ENDBRANCH  26  32
ENDBRANCH   1  23
TORSDOF 13
ENDMDL
MODEL 8
REMARK VINA RESULT:    -8.396      6.909     11.783
REMARK INTER + INTRA:         -15.062
REMARK INTER:                 -12.274
REMARK INTRA:                  -2.788
REMARK CONF_INDEPENDENT:        3.878
REMARK UNBOUND:                -2.788
REMARK  13 active torsions:
REMARK  status: ('A' for Active; 'I' for Inactive)
REMARK    1  A    between atoms: C_2  and  O_3 
REMARK    2  A    between atoms: O_3  and  C_4 
REMARK    3  A    between atoms: C_6  and  C_7 
REMARK    4  A    between atoms: N_8  and  N_9 
REMARK       I    between atoms: N_9  and  C_10 
REMARK    5  A    between atoms: C_10  and  C_12 
REMARK    6  A    between atoms: C_12  and  O_13 
REMARK    7  A    between atoms: O_13  and  C_14 
REMARK    8  A    between atoms: C_17  and  C_18 
REMARK    9  A    between atoms: C_18  and  C_21 
REMARK   10  A    between atoms: C_21  and  C_22 
REMARK   11  A    between atoms: C_30  and  O_31 
REMARK   12  A    between atoms: O_31  and  C_32 
REMARK   13  A    between atoms: C_32  and  C_34 
ROOT
ATOM      1  C   UNL d   1      27.198 -15.468   0.079  0.00  0.00     0.150 C 
ATOM      2  N   UNL d   1      28.111 -14.807   0.724  0.00  0.00    -0.184 NA
ENDROOT
BRANCH   2   3
ATOM      3  N   UNL d   1      28.017 -14.650   2.092  0.00  0.00    -0.246 N 
ATOM      4  C   UNL d   1      27.126 -13.680   2.579  0.00  0.00     0.261 C 
ATOM      5  O   UNL d   1      26.448 -12.962   1.843  0.00  0.00    -0.269 OA
ATOM      6  H   UNL d   1      28.563 -15.242   2.706  0.00  0.00     0.192 HD
BRANCH   4   7
ATOM      7  C   UNL d   1      27.071 -13.545   4.111  0.00  0.00     0.280 C 
BRANCH   7   8
ATOM      8  O   UNL d   1      28.048 -14.414   4.695  0.00  0.00    -0.342 OA
BRANCH   8   9
ATOM      9  C   UNL d   1      28.723 -13.925   5.774  0.00  0.00     0.069 A 
ATOM     10  C   UNL d   1      28.213 -12.766   6.351  0.00  0.00     0.037 A 
ATOM     11  C   UNL d   1      28.883 -12.178   7.413  0.00  0.00     0.011 A 
ATOM     12  C   UNL d   1      30.027 -12.775   7.977  0.00  0.00    -0.050 A 
ATOM     13  C   UNL d   1      30.555 -13.905   7.350  0.00  0.00     0.011 A 
ATOM     14  C   UNL d   1      29.914 -14.464   6.248  0.00  0.00     0.037 A 
BRANCH  12  15
ATOM     15  C   UNL d   1      30.590 -12.194   9.283  0.00  0.00    -0.020 C 
ATOM     16  C   UNL d   1      32.105 -12.033   9.073  0.00  0.00     0.020 C 
ATOM     17  C   UNL d   1      29.926 -10.805   9.428  0.00  0.00     0.020 C 
BRANCH  15  18
ATOM     18  C   UNL d   1      30.261 -13.107  10.525  0.00  0.00     0.022 C 
BRANCH  18  19
ATOM     19  C   UNL d   1      28.819 -13.657  10.737  0.00  0.00    -0.050 C 
ATOM     20  C   UNL d   1      27.751 -12.579  10.530  0.00  0.00     0.014 C 
ATOM     21  C   UNL d   1      28.520 -14.877   9.860  0.00  0.00     0.014 C 
ATOM     22  C   UNL d   1      28.672 -14.131  12.194  0.00  0.00     0.014 C 
ENDBRANCH  18  19
ENDBRANCH  15  18
ENDBRANCH  12  15
ENDBRANCH   8   9
ENDBRANCH   7   8
ENDBRANCH   4   7
ENDBRANCH   2   3
BRANCH   1  23
ATOM     23  C   UNL d   1      27.248 -15.592  -1.421  0.00  0.00    -0.014 A 
ATOM     24  C   UNL d   1      26.168 -15.203  -2.232  0.00  0.00     0.052 A 
ATOM     25  C   UNL d   1      26.273 -15.159  -3.649  0.00  0.00     0.103 A 
ATOM     26  C   UNL d   1      27.503 -15.479  -4.247  0.00  0.00     0.112 A 
ATOM     27  C   UNL d   1      28.557 -15.949  -3.441  0.00  0.00     0.041 A 
ATOM     28  C   UNL d   1      28.422 -16.025  -2.041  0.00  0.00     0.016 A 
BRANCH  25  29
ATOM     29  O   UNL d   1      25.144 -14.685  -4.269  0.00  0.00    -0.349 OA
BRANCH  29  30
ATOM     30  C   UNL d   1      24.753 -13.321  -4.103  0.00  0.00     0.171 C 
ATOM     31  C   UNL d   1      25.718 -12.430  -4.883  0.00  0.00     0.034 C 
ENDBRANCH  29  30
ENDBRANCH  25  29
BRANCH  26  32
ATOM     32  O   UNL d   1      27.760 -15.449  -5.649  0.00  0.00    -0.272 OA
BRANCH  32  33
ATOM     33  C   UNL d   1      28.768 -14.634  -6.155  0.00  0.00     0.298 C 
ATOM     34  O   UNL d   1      28.664 -13.427  -6.393  0.00  0.00    -0.259 OA
BRANCH  33  35
ATOM     35  C   UNL d   1      29.974 -15.411  -6.595  0.00  0.00     0.039 A 
ATOM     36  C   UNL d   1      30.028 -16.772  -6.235  0.00  0.00     0.017 A 
ATOM     37  C   UNL d   1      31.098 -17.581  -6.618  0.00  0.00     0.001 A 
ATOM     38  C   UNL d   1      32.107 -17.048  -7.412  0.00  0.00     0.000 A 
ATOM     39  C   UNL d   1      32.114 -15.682  -7.703  0.00  0.00     0.001 A 
ATOM     40  C   UNL d   1      31.068 -14.853  -7.266  0.00  0.00     0.017 A 
ENDBRANCH  33  35
ENDBRANCH  32  33
ENDBRANCH  26  32
ENDBRANCH   1  23
TORSDOF 13
ENDMDL
MODEL 9
REMARK VINA RESULT:    -7.571      5.986     10.588
REMARK INTER + INTRA:         -14.855
REMARK INTER:                 -11.449
REMARK INTRA:                  -3.406
REMARK CONF_INDEPENDENT:        3.878
REMARK UNBOUND:                -3.406
REMARK  13 active torsions:
REMARK  status: ('A' for Active; 'I' for Inactive)
REMARK    1  A    between atoms: C_2  and  O_3 
REMARK    2  A    between atoms: O_3  and  C_4 
REMARK    3  A    between atoms: C_6  and  C_7 
REMARK    4  A    between atoms: N_8  and  N_9 
REMARK       I    between atoms: N_9  and  C_10 
REMARK    5  A    between atoms: C_10  and  C_12 
REMARK    6  A    between atoms: C_12  and  O_13 
REMARK    7  A    between atoms: O_13  and  C_14 
REMARK    8  A    between atoms: C_17  and  C_18 
REMARK    9  A    between atoms: C_18  and  C_21 
REMARK   10  A    between atoms: C_21  and  C_22 
REMARK   11  A    between atoms: C_30  and  O_31 
REMARK   12  A    between atoms: O_31  and  C_32 
REMARK   13  A    between atoms: C_32  and  C_34 
ROOT
ATOM      1  C   UNL d   1      28.360 -15.288   1.307  0.00  0.00     0.150 C 
ATOM      2  N   UNL d   1      27.778 -14.927   2.411  0.00  0.00    -0.184 NA
ENDROOT
BRANCH   2   3
ATOM      3  N   UNL d   1      28.495 -14.884   3.589  0.00  0.00    -0.246 N 
ATOM      4  C   UNL d   1      27.830 -14.438   4.743  0.00  0.00     0.261 C 
ATOM      5  O   UNL d   1      26.653 -14.074   4.741  0.00  0.00    -0.269 OA
ATOM      6  H   UNL d   1      29.460 -15.191   3.604  0.00  0.00     0.192 HD
BRANCH   4   7
ATOM      7  C   UNL d   1      28.682 -14.404   6.025  0.00  0.00     0.280 C 
BRANCH   7   8
ATOM      8  O   UNL d   1      29.276 -13.107   6.159  0.00  0.00    -0.342 OA
BRANCH   8   9
ATOM      9  C   UNL d   1      28.873 -12.163   5.263  0.00  0.00     0.069 A 
ATOM     10  C   UNL d   1      29.675 -11.993   4.139  0.00  0.00     0.037 A 
ATOM     11  C   UNL d   1      29.360 -11.008   3.215  0.00  0.00     0.011 A 
ATOM     12  C   UNL d   1      28.195 -10.228   3.346  0.00  0.00    -0.050 A 
ATOM     13  C   UNL d   1      27.434 -10.374   4.507  0.00  0.00     0.011 A 
ATOM     14  C   UNL d   1      27.781 -11.325   5.463  0.00  0.00     0.037 A 
BRANCH  12  15
ATOM     15  C   UNL d   1      27.790  -9.312   2.180  0.00  0.00    -0.020 C 
ATOM     16  C   UNL d   1      26.259  -9.178   2.242  0.00  0.00     0.020 C 
ATOM     17  C   UNL d   1      28.453  -7.950   2.486  0.00  0.00     0.020 C 
BRANCH  15  18
ATOM     18  C   UNL d   1      28.276  -9.876   0.791  0.00  0.00     0.022 C 
BRANCH  18  19
ATOM     19  C   UNL d   1      27.958 -11.346   0.385  0.00  0.00    -0.050 C 
ATOM     20  C   UNL d   1      29.211 -12.227   0.368  0.00  0.00     0.014 C 
ATOM     21  C   UNL d   1      26.874 -11.979   1.263  0.00  0.00     0.014 C 
ATOM     22  C   UNL d   1      27.406 -11.360  -1.053  0.00  0.00     0.014 C 
ENDBRANCH  18  19
ENDBRANCH  15  18
ENDBRANCH  12  15
ENDBRANCH   8   9
ENDBRANCH   7   8
ENDBRANCH   4   7
ENDBRANCH   2   3
BRANCH   1  23
ATOM     23  C   UNL d   1      27.578 -15.406   0.025  0.00  0.00    -0.014 A 
ATOM     24  C   UNL d   1      26.275 -15.934  -0.002  0.00  0.00     0.052 A 
ATOM     25  C   UNL d   1      25.473 -15.891  -1.174  0.00  0.00     0.103 A 
ATOM     26  C   UNL d   1      25.988 -15.271  -2.325  0.00  0.00     0.112 A 
ATOM     27  C   UNL d   1      27.321 -14.818  -2.322  0.00  0.00     0.041 A 
ATOM     28  C   UNL d   1      28.116 -14.906  -1.163  0.00  0.00     0.016 A 
BRANCH  25  29
ATOM     29  O   UNL d   1      24.206 -16.386  -0.991  0.00  0.00    -0.349 OA
BRANCH  29  30
ATOM     30  C   UNL d   1      24.017 -17.714  -0.501  0.00  0.00     0.171 C 
ATOM     31  C   UNL d   1      22.530 -17.936  -0.233  0.00  0.00     0.034 C 
ENDBRANCH  29  30
ENDBRANCH  25  29
BRANCH  26  32
ATOM     32  O   UNL d   1      25.286 -15.130  -3.558  0.00  0.00    -0.272 OA
BRANCH  32  33
ATOM     33  C   UNL d   1      25.957 -14.683  -4.692  0.00  0.00     0.298 C 
ATOM     34  O   UNL d   1      26.548 -15.398  -5.506  0.00  0.00    -0.259 OA
BRANCH  33  35
ATOM     35  C   UNL d   1      26.082 -13.187  -4.738  0.00  0.00     0.039 A 
ATOM     36  C   UNL d   1      25.451 -12.458  -3.712  0.00  0.00     0.017 A 
ATOM     37  C   UNL d   1      25.530 -11.066  -3.659  0.00  0.00     0.001 A 
ATOM     38  C   UNL d   1      26.287 -10.388  -4.607  0.00  0.00     0.000 A 
ATOM     39  C   UNL d   1      26.845 -11.088  -5.680  0.00  0.00     0.001 A 
ATOM     40  C   UNL d   1      26.714 -12.483  -5.769  0.00  0.00     0.017 A 
ENDBRANCH  33  35
ENDBRANCH  32  33
ENDBRANCH  26  32
ENDBRANCH   1  23
TORSDOF 13
ENDMDL
