MODEL 1
REMARK VINA RESULT:   -10.767      0.000      0.000
REMARK INTER + INTRA:         -16.025
REMARK INTER:                 -14.347
REMARK INTRA:                  -1.678
REMARK CONF_INDEPENDENT:        3.580
REMARK UNBOUND:                -1.678
REMARK  12 active torsions:
REMARK  status: ('A' for Active; 'I' for Inactive)
REMARK    1  A    between atoms: C_2  and  O_3 
REMARK    2  A    between atoms: O_3  and  C_4 
REMARK    3  A    between atoms: C_4  and  C_5 
REMARK    4  A    between atoms: C_5  and  O_6 
REMARK    5  A    between atoms: O_6  and  C_7 
REMARK    6  A    between atoms: C_10  and  C_11 
REMARK       I    between atoms: C_11  and  N_13 
REMARK    7  A    between atoms: N_13  and  C_14 
REMARK    8  A    between atoms: C_14  and  N_16 
REMARK    9  A    between atoms: N_16  and  N_17 
REMARK       I    between atoms: N_17  and  C_18 
REMARK   10  A    between atoms: C_18  and  C_20 
REMARK   11  A    between atoms: C_23  and  N_24 
REMARK       I    between atoms: N_24  and  C_25 
REMARK   12  A    between atoms: C_25  and  C_27 
ROOT
ATOM      1  N   UNL d   1      29.590 -15.450  -0.826  0.00  0.00    -0.273 N 
ATOM      2  H   UNL d   1      29.663 -15.001  -1.737  0.00  0.00     0.189 HD
ENDROOT
BRANCH   1   3
ATOM      3  C   UNL d   1      30.577 -15.479   0.181  0.00  0.00     0.193 C 
ATOM      4  S   UNL d   1      32.174 -15.842  -0.236  0.00  0.00    -0.039 SA
BRANCH   3   5
ATOM      5  N   UNL d   1      30.122 -15.185   1.492  0.00  0.00    -0.298 N 
ATOM      6  C   UNL d   1      29.115 -14.248   1.848  0.00  0.00     0.257 C 
ATOM      7  O   UNL d   1      28.494 -13.574   1.025  0.00  0.00    -0.267 OA
ATOM      8  H   UNL d   1      30.580 -15.676   2.244  0.00  0.00     0.171 HD
BRANCH   6   9
ATOM      9  C   UNL d   1      28.746 -13.973   3.286  0.00  0.00     0.032 A 
ATOM     10  C   UNL d   1      28.110 -12.741   3.582  0.00  0.00     0.020 A 
ATOM     11  C   UNL d   1      27.852 -12.335   4.901  0.00  0.00     0.038 A 
ATOM     12  C   UNL d   1      28.166 -13.181   5.958  0.00  0.00     0.068 A 
ATOM     13  C   UNL d   1      28.722 -14.431   5.675  0.00  0.00     0.038 A 
ATOM     14  C   UNL d   1      29.020 -14.824   4.353  0.00  0.00     0.020 A 
BRANCH  12  15
ATOM     15  O   UNL d   1      27.810 -12.762   7.212  0.00  0.00    -0.349 OA
BRANCH  15  16
ATOM     16  C   UNL d   1      28.753 -11.905   7.866  0.00  0.00     0.201 C 
BRANCH  16  17
ATOM     17  C   UNL d   1      28.539 -11.982   9.376  0.00  0.00     0.194 C 
BRANCH  17  18
ATOM     18  O   UNL d   1      27.870 -13.201   9.715  0.00  0.00    -0.389 OA
BRANCH  18  19
ATOM     19  C   UNL d   1      28.448 -13.790  10.880  0.00  0.00     0.163 C 
ATOM     20  C   UNL d   1      28.725 -12.709  11.906  0.00  0.00     0.033 C 
ENDBRANCH  18  19
ENDBRANCH  17  18
ENDBRANCH  16  17
ENDBRANCH  15  16
ENDBRANCH  12  15
ENDBRANCH   6   9
ENDBRANCH   3   5
ENDBRANCH   1   3
BRANCH   1  21
ATOM     21  N   UNL d   1      28.315 -16.099  -0.568  0.00  0.00    -0.264 N 
ATOM     22  C   UNL d   1      27.360 -16.304  -1.555  0.00  0.00     0.270 C 
ATOM     23  O   UNL d   1      27.506 -15.932  -2.721  0.00  0.00    -0.266 OA
ATOM     24  H   UNL d   1      28.214 -16.486   0.371  0.00  0.00     0.190 HD
BRANCH  22  25
ATOM     25  C   UNL d   1      26.087 -16.998  -1.133  0.00  0.00     0.033 A 
ATOM     26  C   UNL d   1      24.915 -16.962  -1.912  0.00  0.00     0.019 A 
ATOM     27  C   UNL d   1      23.699 -17.537  -1.445  0.00  0.00     0.030 A 
ATOM     28  C   UNL d   1      23.651 -18.203  -0.212  0.00  0.00     0.035 A 
ATOM     29  C   UNL d   1      24.816 -18.191   0.560  0.00  0.00     0.030 A 
ATOM     30  C   UNL d   1      26.014 -17.608   0.115  0.00  0.00     0.019 A 
BRANCH  28  31
ATOM     31  N   UNL d   1      22.464 -18.884   0.207  0.00  0.00    -0.323 N 
ATOM     32  C   UNL d   1      21.188 -18.647  -0.302  0.00  0.00     0.256 C 
ATOM     33  O   UNL d   1      20.893 -17.863  -1.206  0.00  0.00    -0.267 OA
ATOM     34  H   UNL d   1      22.558 -19.569   0.949  0.00  0.00     0.169 HD
BRANCH  32  35
ATOM     35  C   UNL d   1      20.037 -19.378   0.283  0.00  0.00     0.032 A 
ATOM     36  C   UNL d   1      20.035 -19.603   1.671  0.00  0.00     0.017 A 
ATOM     37  C   UNL d   1      19.094 -20.456   2.249  0.00  0.00     0.001 A 
ATOM     38  C   UNL d   1      18.117 -21.045   1.450  0.00  0.00     0.000 A 
ATOM     39  C   UNL d   1      18.118 -20.827   0.070  0.00  0.00     0.001 A 
ATOM     40  C   UNL d   1      19.085 -20.006  -0.521  0.00  0.00     0.017 A 
ENDBRANCH  32  35
ENDBRANCH  28  31
ENDBRANCH  22  25
ENDBRANCH   1  21
TORSDOF 12
ENDMDL
MODEL 2
REMARK VINA RESULT:   -10.303      1.707     10.523
REMARK INTER + INTRA:         -15.991
REMARK INTER:                 -13.882
REMARK INTRA:                  -2.109
REMARK CONF_INDEPENDENT:        3.580
REMARK UNBOUND:                -2.109
REMARK  12 active torsions:
REMARK  status: ('A' for Active; 'I' for Inactive)
REMARK    1  A    between atoms: C_2  and  O_3 
REMARK    2  A    between atoms: O_3  and  C_4 
REMARK    3  A    between atoms: C_4  and  C_5 
REMARK    4  A    between atoms: C_5  and  O_6 
REMARK    5  A    between atoms: O_6  and  C_7 
REMARK    6  A    between atoms: C_10  and  C_11 
REMARK       I    between atoms: C_11  and  N_13 
REMARK    7  A    between atoms: N_13  and  C_14 
REMARK    8  A    between atoms: C_14  and  N_16 
REMARK    9  A    between atoms: N_16  and  N_17 
REMARK       I    between atoms: N_17  and  C_18 
REMARK   10  A    between atoms: C_18  and  C_20 
REMARK   11  A    between atoms: C_23  and  N_24 
REMARK       I    between atoms: N_24  and  C_25 
REMARK   12  A    between atoms: C_25  and  C_27 
ROOT
ATOM      1  N   UNL d   1      29.384 -15.443  -0.657  0.00  0.00    -0.273 N 
ATOM      2  H   UNL d   1      29.694 -14.607  -1.147  0.00  0.00     0.189 HD
ENDROOT
BRANCH   1   3
ATOM      3  C   UNL d   1      29.057 -16.686  -1.237  0.00  0.00     0.193 C 
ATOM      4  S   UNL d   1      30.295 -17.691  -1.795  0.00  0.00    -0.039 SA
BRANCH   3   5
ATOM      5  N   UNL d   1      27.672 -16.989  -1.295  0.00  0.00    -0.298 N 
ATOM      6  C   UNL d   1      26.745 -16.920  -0.218  0.00  0.00     0.257 C 
ATOM      7  O   UNL d   1      27.053 -16.563   0.919  0.00  0.00    -0.267 OA
ATOM      8  H   UNL d   1      27.321 -17.307  -2.184  0.00  0.00     0.171 HD
BRANCH   6   9
ATOM      9  C   UNL d   1      25.299 -17.320  -0.379  0.00  0.00     0.032 A 
ATOM     10  C   UNL d   1      24.382 -16.325  -0.804  0.00  0.00     0.020 A 
ATOM     11  C   UNL d   1      22.998 -16.561  -0.852  0.00  0.00     0.038 A 
ATOM     12  C   UNL d   1      22.501 -17.820  -0.535  0.00  0.00     0.068 A 
ATOM     13  C   UNL d   1      23.401 -18.830  -0.189  0.00  0.00     0.038 A 
ATOM     14  C   UNL d   1      24.787 -18.584  -0.100  0.00  0.00     0.020 A 
BRANCH  12  15
ATOM     15  O   UNL d   1      21.152 -18.006  -0.685  0.00  0.00    -0.349 OA
BRANCH  15  16
ATOM     16  C   UNL d   1      20.672 -19.315  -0.356  0.00  0.00     0.201 C 
BRANCH  16  17
ATOM     17  C   UNL d   1      19.145 -19.313  -0.390  0.00  0.00     0.194 C 
BRANCH  17  18
ATOM     18  O   UNL d   1      18.653 -20.657  -0.385  0.00  0.00    -0.389 OA
BRANCH  18  19
ATOM     19  C   UNL d   1      18.667 -21.198   0.936  0.00  0.00     0.163 C 
ATOM     20  C   UNL d   1      18.761 -20.068   1.941  0.00  0.00     0.033 C 
ENDBRANCH  18  19
ENDBRANCH  17  18
ENDBRANCH  16  17
ENDBRANCH  15  16
ENDBRANCH  12  15
ENDBRANCH   6   9
ENDBRANCH   3   5
ENDBRANCH   1   3
BRANCH   1  21
ATOM     21  N   UNL d   1      29.304 -15.307   0.789  0.00  0.00    -0.264 N 
ATOM     22  C   UNL d   1      29.252 -14.076   1.429  0.00  0.00     0.270 C 
ATOM     23  O   UNL d   1      29.294 -13.002   0.826  0.00  0.00    -0.266 OA
ATOM     24  H   UNL d   1      29.184 -16.186   1.295  0.00  0.00     0.190 HD
BRANCH  22  25
ATOM     25  C   UNL d   1      29.163 -14.098   2.936  0.00  0.00     0.033 A 
ATOM     26  C   UNL d   1      30.304 -14.171   3.757  0.00  0.00     0.019 A 
ATOM     27  C   UNL d   1      30.190 -14.294   5.171  0.00  0.00     0.030 A 
ATOM     28  C   UNL d   1      28.931 -14.295   5.789  0.00  0.00     0.035 A 
ATOM     29  C   UNL d   1      27.813 -14.262   4.950  0.00  0.00     0.030 A 
ATOM     30  C   UNL d   1      27.918 -14.162   3.554  0.00  0.00     0.019 A 
BRANCH  28  31
ATOM     31  N   UNL d   1      28.815 -14.299   7.216  0.00  0.00    -0.323 N 
ATOM     32  C   UNL d   1      28.633 -13.162   8.002  0.00  0.00     0.256 C 
ATOM     33  O   UNL d   1      28.502 -12.004   7.599  0.00  0.00    -0.267 OA
ATOM     34  H   UNL d   1      28.898 -15.192   7.688  0.00  0.00     0.169 HD
BRANCH  32  35
ATOM     35  C   UNL d   1      28.604 -13.310   9.478  0.00  0.00     0.032 A 
ATOM     36  C   UNL d   1      28.637 -14.612  10.011  0.00  0.00     0.017 A 
ATOM     37  C   UNL d   1      28.406 -14.826  11.370  0.00  0.00     0.001 A 
ATOM     38  C   UNL d   1      28.194 -13.738  12.212  0.00  0.00     0.000 A 
ATOM     39  C   UNL d   1      28.156 -12.443  11.687  0.00  0.00     0.001 A 
ATOM     40  C   UNL d   1      28.346 -12.226  10.317  0.00  0.00     0.017 A 
ENDBRANCH  32  35
ENDBRANCH  28  31
ENDBRANCH  22  25
ENDBRANCH   1  21
TORSDOF 12
ENDMDL
MODEL 3
REMARK VINA RESULT:   -10.275      6.950      9.891
REMARK INTER + INTRA:         -15.149
REMARK INTER:                 -13.855
REMARK INTRA:                  -1.294
REMARK CONF_INDEPENDENT:        3.580
REMARK UNBOUND:                -1.294
REMARK  12 active torsions:
REMARK  status: ('A' for Active; 'I' for Inactive)
REMARK    1  A    between atoms: C_2  and  O_3 
REMARK    2  A    between atoms: O_3  and  C_4 
REMARK    3  A    between atoms: C_4  and  C_5 
REMARK    4  A    between atoms: C_5  and  O_6 
REMARK    5  A    between atoms: O_6  and  C_7 
REMARK    6  A    between atoms: C_10  and  C_11 
REMARK       I    between atoms: C_11  and  N_13 
REMARK    7  A    between atoms: N_13  and  C_14 
REMARK    8  A    between atoms: C_14  and  N_16 
REMARK    9  A    between atoms: N_16  and  N_17 
REMARK       I    between atoms: N_17  and  C_18 
REMARK   10  A    between atoms: C_18  and  C_20 
REMARK   11  A    between atoms: C_23  and  N_24 
REMARK       I    between atoms: N_24  and  C_25 
REMARK   12  A    between atoms: C_25  and  C_27 
ROOT
ATOM      1  N   UNL d   1      26.945 -13.036  -3.216  0.00  0.00    -0.273 N 
ATOM      2  H   UNL d   1      27.650 -12.657  -2.587  0.00  0.00     0.189 HD
ENDROOT
BRANCH   1   3
ATOM      3  C   UNL d   1      26.763 -12.704  -4.574  0.00  0.00     0.193 C 
ATOM      4  S   UNL d   1      27.458 -13.679  -5.766  0.00  0.00    -0.039 SA
BRANCH   3   5
ATOM      5  N   UNL d   1      25.981 -11.545  -4.821  0.00  0.00    -0.298 N 
ATOM      6  C   UNL d   1      26.277 -10.220  -4.399  0.00  0.00     0.257 C 
ATOM      7  O   UNL d   1      27.288  -9.921  -3.764  0.00  0.00    -0.267 OA
ATOM      8  H   UNL d   1      25.120 -11.686  -5.324  0.00  0.00     0.171 HD
BRANCH   6   9
ATOM      9  C   UNL d   1      25.343  -9.065  -4.670  0.00  0.00     0.032 A 
ATOM     10  C   UNL d   1      24.543  -9.122  -5.839  0.00  0.00     0.020 A 
ATOM     11  C   UNL d   1      23.747  -8.041  -6.249  0.00  0.00     0.038 A 
ATOM     12  C   UNL d   1      23.681  -6.895  -5.464  0.00  0.00     0.068 A 
ATOM     13  C   UNL d   1      24.405  -6.856  -4.270  0.00  0.00     0.038 A 
ATOM     14  C   UNL d   1      25.238  -7.925  -3.877  0.00  0.00     0.020 A 
BRANCH  12  15
ATOM     15  O   UNL d   1      22.821  -5.913  -5.876  0.00  0.00    -0.349 OA
BRANCH  15  16
ATOM     16  C   UNL d   1      21.449  -6.306  -5.995  0.00  0.00     0.201 C 
BRANCH  16  17
ATOM     17  C   UNL d   1      20.845  -5.655  -7.237  0.00  0.00     0.194 C 
BRANCH  17  18
ATOM     18  O   UNL d   1      19.971  -6.575  -7.899  0.00  0.00    -0.389 OA
BRANCH  18  19
ATOM     19  C   UNL d   1      18.781  -6.782  -7.138  0.00  0.00     0.163 C 
ATOM     20  C   UNL d   1      18.071  -8.022  -7.640  0.00  0.00     0.033 C 
ENDBRANCH  18  19
ENDBRANCH  17  18
ENDBRANCH  16  17
ENDBRANCH  15  16
ENDBRANCH  12  15
ENDBRANCH   6   9
ENDBRANCH   3   5
ENDBRANCH   1   3
BRANCH   1  21
ATOM     21  N   UNL d   1      26.071 -14.034  -2.621  0.00  0.00    -0.264 N 
ATOM     22  C   UNL d   1      26.548 -15.134  -1.922  0.00  0.00     0.270 C 
ATOM     23  O   UNL d   1      27.750 -15.367  -1.771  0.00  0.00    -0.266 OA
ATOM     24  H   UNL d   1      25.075 -13.811  -2.665  0.00  0.00     0.190 HD
BRANCH  22  25
ATOM     25  C   UNL d   1      25.515 -16.079  -1.356  0.00  0.00     0.033 A 
ATOM     26  C   UNL d   1      25.865 -17.206  -0.589  0.00  0.00     0.019 A 
ATOM     27  C   UNL d   1      24.880 -18.138  -0.153  0.00  0.00     0.030 A 
ATOM     28  C   UNL d   1      23.523 -17.928  -0.435  0.00  0.00     0.035 A 
ATOM     29  C   UNL d   1      23.205 -16.823  -1.232  0.00  0.00     0.030 A 
ATOM     30  C   UNL d   1      24.173 -15.911  -1.682  0.00  0.00     0.019 A 
BRANCH  28  31
ATOM     31  N   UNL d   1      22.519 -18.796   0.100  0.00  0.00    -0.323 N 
ATOM     32  C   UNL d   1      21.155 -18.702  -0.177  0.00  0.00     0.256 C 
ATOM     33  O   UNL d   1      20.616 -17.904  -0.947  0.00  0.00    -0.267 OA
ATOM     34  H   UNL d   1      22.821 -19.513   0.750  0.00  0.00     0.169 HD
BRANCH  32  35
ATOM     35  C   UNL d   1      20.221 -19.626   0.510  0.00  0.00     0.032 A 
ATOM     36  C   UNL d   1      19.247 -20.279  -0.268  0.00  0.00     0.017 A 
ATOM     37  C   UNL d   1      18.217 -20.995   0.343  0.00  0.00     0.001 A 
ATOM     38  C   UNL d   1      18.184 -21.107   1.730  0.00  0.00     0.000 A 
ATOM     39  C   UNL d   1      19.148 -20.457   2.507  0.00  0.00     0.001 A 
ATOM     40  C   UNL d   1      20.160 -19.704   1.902  0.00  0.00     0.017 A 
ENDBRANCH  32  35
ENDBRANCH  28  31
ENDBRANCH  22  25
ENDBRANCH   1  21
TORSDOF 12
ENDMDL
MODEL 4
REMARK VINA RESULT:   -10.177      1.486      1.704
REMARK INTER + INTRA:         -16.126
REMARK INTER:                 -13.757
REMARK INTRA:                  -2.370
REMARK CONF_INDEPENDENT:        3.580
REMARK UNBOUND:                -2.370
REMARK  12 active torsions:
REMARK  status: ('A' for Active; 'I' for Inactive)
REMARK    1  A    between atoms: C_2  and  O_3 
REMARK    2  A    between atoms: O_3  and  C_4 
REMARK    3  A    between atoms: C_4  and  C_5 
REMARK    4  A    between atoms: C_5  and  O_6 
REMARK    5  A    between atoms: O_6  and  C_7 
REMARK    6  A    between atoms: C_10  and  C_11 
REMARK       I    between atoms: C_11  and  N_13 
REMARK    7  A    between atoms: N_13  and  C_14 
REMARK    8  A    between atoms: C_14  and  N_16 
REMARK    9  A    between atoms: N_16  and  N_17 
REMARK       I    between atoms: N_17  and  C_18 
REMARK   10  A    between atoms: C_18  and  C_20 
REMARK   11  A    between atoms: C_23  and  N_24 
REMARK       I    between atoms: N_24  and  C_25 
REMARK   12  A    between atoms: C_25  and  C_27 
ROOT
ATOM      1  N   UNL d   1      28.596 -13.602  -1.138  0.00  0.00    -0.273 N 
ATOM      2  H   UNL d   1      29.100 -13.797  -2.001  0.00  0.00     0.189 HD
ENDROOT
BRANCH   1   3
ATOM      3  C   UNL d   1      28.850 -12.551  -0.233  0.00  0.00     0.193 C 
ATOM      4  S   UNL d   1      29.082 -10.986  -0.826  0.00  0.00    -0.039 SA
BRANCH   3   5
ATOM      5  N   UNL d   1      28.882 -12.918   1.137  0.00  0.00    -0.298 N 
ATOM      6  C   UNL d   1      27.759 -13.130   1.983  0.00  0.00     0.257 C 
ATOM      7  O   UNL d   1      26.594 -13.029   1.600  0.00  0.00    -0.267 OA
ATOM      8  H   UNL d   1      29.795 -13.012   1.553  0.00  0.00     0.171 HD
BRANCH   6   9
ATOM      9  C   UNL d   1      27.910 -13.465   3.447  0.00  0.00     0.032 A 
ATOM     10  C   UNL d   1      27.800 -12.404   4.383  0.00  0.00     0.020 A 
ATOM     11  C   UNL d   1      28.059 -12.589   5.750  0.00  0.00     0.038 A 
ATOM     12  C   UNL d   1      28.374 -13.856   6.228  0.00  0.00     0.068 A 
ATOM     13  C   UNL d   1      28.409 -14.924   5.329  0.00  0.00     0.038 A 
ATOM     14  C   UNL d   1      28.191 -14.733   3.948  0.00  0.00     0.020 A 
BRANCH  12  15
ATOM     15  O   UNL d   1      28.530 -13.984   7.583  0.00  0.00    -0.349 OA
BRANCH  15  16
ATOM     16  C   UNL d   1      29.661 -13.303   8.139  0.00  0.00     0.201 C 
BRANCH  16  17
ATOM     17  C   UNL d   1      29.186 -12.348   9.231  0.00  0.00     0.194 C 
BRANCH  17  18
ATOM     18  O   UNL d   1      27.844 -12.668   9.613  0.00  0.00    -0.389 OA
BRANCH  18  19
ATOM     19  C   UNL d   1      27.831 -13.651  10.649  0.00  0.00     0.163 C 
ATOM     20  C   UNL d   1      28.988 -13.401  11.594  0.00  0.00     0.033 C 
ENDBRANCH  18  19
ENDBRANCH  17  18
ENDBRANCH  16  17
ENDBRANCH  15  16
ENDBRANCH  12  15
ENDBRANCH   6   9
ENDBRANCH   3   5
ENDBRANCH   1   3
BRANCH   1  21
ATOM     21  N   UNL d   1      27.496 -14.512  -0.858  0.00  0.00    -0.264 N 
ATOM     22  C   UNL d   1      27.223 -15.628  -1.637  0.00  0.00     0.270 C 
ATOM     23  O   UNL d   1      27.875 -15.924  -2.641  0.00  0.00    -0.266 OA
ATOM     24  H   UNL d   1      27.001 -14.327   0.016  0.00  0.00     0.190 HD
BRANCH  22  25
ATOM     25  C   UNL d   1      26.051 -16.480  -1.214  0.00  0.00     0.033 A 
ATOM     26  C   UNL d   1      24.773 -16.343  -1.788  0.00  0.00     0.019 A 
ATOM     27  C   UNL d   1      23.661 -17.087  -1.302  0.00  0.00     0.030 A 
ATOM     28  C   UNL d   1      23.820 -18.016  -0.265  0.00  0.00     0.035 A 
ATOM     29  C   UNL d   1      25.090 -18.106   0.316  0.00  0.00     0.030 A 
ATOM     30  C   UNL d   1      26.187 -17.361  -0.145  0.00  0.00     0.019 A 
BRANCH  28  31
ATOM     31  N   UNL d   1      22.733 -18.850   0.148  0.00  0.00    -0.323 N 
ATOM     32  C   UNL d   1      21.398 -18.649  -0.203  0.00  0.00     0.256 C 
ATOM     33  O   UNL d   1      20.960 -17.768  -0.945  0.00  0.00    -0.267 OA
ATOM     34  H   UNL d   1      22.948 -19.627   0.763  0.00  0.00     0.169 HD
BRANCH  32  35
ATOM     35  C   UNL d   1      20.367 -19.554   0.360  0.00  0.00     0.032 A 
ATOM     36  C   UNL d   1      19.397 -20.075  -0.515  0.00  0.00     0.017 A 
ATOM     37  C   UNL d   1      18.288 -20.760  -0.016  0.00  0.00     0.001 A 
ATOM     38  C   UNL d   1      18.170 -20.974   1.354  0.00  0.00     0.000 A 
ATOM     39  C   UNL d   1      19.129 -20.454   2.228  0.00  0.00     0.001 A 
ATOM     40  C   UNL d   1      20.223 -19.731   1.737  0.00  0.00     0.017 A 
ENDBRANCH  32  35
ENDBRANCH  28  31
ENDBRANCH  22  25
ENDBRANCH   1  21
TORSDOF 12
ENDMDL
MODEL 5
REMARK VINA RESULT:    -9.946      5.455     11.300
REMARK INTER + INTRA:         -15.277
REMARK INTER:                 -13.525
REMARK INTRA:                  -1.752
REMARK CONF_INDEPENDENT:        3.580
REMARK UNBOUND:                -1.752
REMARK  12 active torsions:
REMARK  status: ('A' for Active; 'I' for Inactive)
REMARK    1  A    between atoms: C_2  and  O_3 
REMARK    2  A    between atoms: O_3  and  C_4 
REMARK    3  A    between atoms: C_4  and  C_5 
REMARK    4  A    between atoms: C_5  and  O_6 
REMARK    5  A    between atoms: O_6  and  C_7 
REMARK    6  A    between atoms: C_10  and  C_11 
REMARK       I    between atoms: C_11  and  N_13 
REMARK    7  A    between atoms: N_13  and  C_14 
REMARK    8  A    between atoms: C_14  and  N_16 
REMARK    9  A    between atoms: N_16  and  N_17 
REMARK       I    between atoms: N_17  and  C_18 
REMARK   10  A    between atoms: C_18  and  C_20 
REMARK   11  A    between atoms: C_23  and  N_24 
REMARK       I    between atoms: N_24  and  C_25 
REMARK   12  A    between atoms: C_25  and  C_27 
ROOT
ATOM      1  N   UNL d   1      29.836 -16.857  -1.235  0.00  0.00    -0.273 N 
ATOM      2  H   UNL d   1      30.062 -17.158  -2.180  0.00  0.00     0.189 HD
ENDROOT
BRANCH   1   3
ATOM      3  C   UNL d   1      28.968 -15.807  -0.870  0.00  0.00     0.193 C 
ATOM      4  S   UNL d   1      29.619 -14.321  -0.399  0.00  0.00    -0.039 SA
BRANCH   3   5
ATOM      5  N   UNL d   1      27.582 -16.107  -0.939  0.00  0.00    -0.298 N 
ATOM      6  C   UNL d   1      26.907 -17.151  -0.251  0.00  0.00     0.257 C 
ATOM      7  O   UNL d   1      27.469 -17.929   0.520  0.00  0.00    -0.267 OA
ATOM      8  H   UNL d   1      27.032 -15.534  -1.559  0.00  0.00     0.171 HD
BRANCH   6   9
ATOM      9  C   UNL d   1      25.433 -17.416  -0.442  0.00  0.00     0.032 A 
ATOM     10  C   UNL d   1      24.651 -16.396  -1.042  0.00  0.00     0.020 A 
ATOM     11  C   UNL d   1      23.254 -16.491  -1.138  0.00  0.00     0.038 A 
ATOM     12  C   UNL d   1      22.607 -17.638  -0.693  0.00  0.00     0.068 A 
ATOM     13  C   UNL d   1      23.374 -18.682  -0.170  0.00  0.00     0.038 A 
ATOM     14  C   UNL d   1      24.774 -18.572  -0.034  0.00  0.00     0.020 A 
BRANCH  12  15
ATOM     15  O   UNL d   1      21.254 -17.702  -0.894  0.00  0.00    -0.349 OA
BRANCH  15  16
ATOM     16  C   UNL d   1      20.727 -19.013  -1.128  0.00  0.00     0.201 C 
BRANCH  16  17
ATOM     17  C   UNL d   1      19.220 -19.001  -0.878  0.00  0.00     0.194 C 
BRANCH  17  18
ATOM     18  O   UNL d   1      18.748 -20.335  -0.663  0.00  0.00    -0.389 OA
BRANCH  18  19
ATOM     19  C   UNL d   1      19.187 -20.832   0.602  0.00  0.00     0.163 C 
ATOM     20  C   UNL d   1      18.030 -21.514   1.303  0.00  0.00     0.033 C 
ENDBRANCH  18  19
ENDBRANCH  17  18
ENDBRANCH  16  17
ENDBRANCH  15  16
ENDBRANCH  12  15
ENDBRANCH   6   9
ENDBRANCH   3   5
ENDBRANCH   1   3
BRANCH   1  21
ATOM     21  N   UNL d   1      30.478 -17.627  -0.182  0.00  0.00    -0.264 N 
ATOM     22  C   UNL d   1      31.770 -18.124  -0.291  0.00  0.00     0.270 C 
ATOM     23  O   UNL d   1      32.466 -17.972  -1.297  0.00  0.00    -0.266 OA
ATOM     24  H   UNL d   1      29.946 -17.688   0.688  0.00  0.00     0.190 HD
BRANCH  22  25
ATOM     25  C   UNL d   1      32.301 -18.899   0.891  0.00  0.00     0.033 A 
ATOM     26  C   UNL d   1      32.276 -20.305   0.942  0.00  0.00     0.019 A 
ATOM     27  C   UNL d   1      32.688 -21.009   2.110  0.00  0.00     0.030 A 
ATOM     28  C   UNL d   1      33.179 -20.318   3.226  0.00  0.00     0.035 A 
ATOM     29  C   UNL d   1      33.157 -18.920   3.165  0.00  0.00     0.030 A 
ATOM     30  C   UNL d   1      32.733 -18.219   2.026  0.00  0.00     0.019 A 
BRANCH  28  31
ATOM     31  N   UNL d   1      33.704 -21.024   4.354  0.00  0.00    -0.323 N 
ATOM     32  C   UNL d   1      33.033 -21.204   5.563  0.00  0.00     0.256 C 
ATOM     33  O   UNL d   1      31.889 -20.831   5.830  0.00  0.00    -0.267 OA
ATOM     34  H   UNL d   1      34.644 -21.395   4.275  0.00  0.00     0.169 HD
BRANCH  32  35
ATOM     35  C   UNL d   1      33.733 -21.895   6.674  0.00  0.00     0.032 A 
ATOM     36  C   UNL d   1      34.529 -21.119   7.536  0.00  0.00     0.017 A 
ATOM     37  C   UNL d   1      35.369 -21.733   8.466  0.00  0.00     0.001 A 
ATOM     38  C   UNL d   1      35.378 -23.121   8.576  0.00  0.00     0.000 A 
ATOM     39  C   UNL d   1      34.592 -23.895   7.719  0.00  0.00     0.001 A 
ATOM     40  C   UNL d   1      33.778 -23.287   6.756  0.00  0.00     0.017 A 
ENDBRANCH  32  35
ENDBRANCH  28  31
ENDBRANCH  22  25
ENDBRANCH   1  21
TORSDOF 12
ENDMDL
MODEL 6
REMARK VINA RESULT:    -9.941      5.854      8.502
REMARK INTER + INTRA:         -15.589
REMARK INTER:                 -13.521
REMARK INTRA:                  -2.069
REMARK CONF_INDEPENDENT:        3.580
REMARK UNBOUND:                -2.069
REMARK  12 active torsions:
REMARK  status: ('A' for Active; 'I' for Inactive)
REMARK    1  A    between atoms: C_2  and  O_3 
REMARK    2  A    between atoms: O_3  and  C_4 
REMARK    3  A    between atoms: C_4  and  C_5 
REMARK    4  A    between atoms: C_5  and  O_6 
REMARK    5  A    between atoms: O_6  and  C_7 
REMARK    6  A    between atoms: C_10  and  C_11 
REMARK       I    between atoms: C_11  and  N_13 
REMARK    7  A    between atoms: N_13  and  C_14 
REMARK    8  A    between atoms: C_14  and  N_16 
REMARK    9  A    between atoms: N_16  and  N_17 
REMARK       I    between atoms: N_17  and  C_18 
REMARK   10  A    between atoms: C_18  and  C_20 
REMARK   11  A    between atoms: C_23  and  N_24 
REMARK       I    between atoms: N_24  and  C_25 
REMARK   12  A    between atoms: C_25  and  C_27 
ROOT
ATOM      1  N   UNL d   1      29.568 -16.346  -2.467  0.00  0.00    -0.273 N 
ATOM      2  H   UNL d   1      30.331 -16.375  -1.794  0.00  0.00     0.189 HD
ENDROOT
BRANCH   1   3
ATOM      3  C   UNL d   1      29.643 -15.919  -3.808  0.00  0.00     0.193 C 
ATOM      4  S   UNL d   1      30.565 -16.809  -4.910  0.00  0.00    -0.039 SA
BRANCH   3   5
ATOM      5  N   UNL d   1      28.909 -14.745  -4.119  0.00  0.00    -0.298 N 
ATOM      6  C   UNL d   1      28.284 -14.442  -5.359  0.00  0.00     0.257 C 
ATOM      7  O   UNL d   1      28.299 -15.201  -6.329  0.00  0.00    -0.267 OA
ATOM      8  H   UNL d   1      28.850 -14.050  -3.393  0.00  0.00     0.171 HD
BRANCH   6   9
ATOM      9  C   UNL d   1      27.572 -13.133  -5.600  0.00  0.00     0.032 A 
ATOM     10  C   UNL d   1      26.709 -12.653  -4.582  0.00  0.00     0.020 A 
ATOM     11  C   UNL d   1      25.901 -11.520  -4.766  0.00  0.00     0.038 A 
ATOM     12  C   UNL d   1      25.982 -10.798  -5.952  0.00  0.00     0.068 A 
ATOM     13  C   UNL d   1      26.886 -11.216  -6.932  0.00  0.00     0.038 A 
ATOM     14  C   UNL d   1      27.668 -12.378  -6.766  0.00  0.00     0.020 A 
BRANCH  12  15
ATOM     15  O   UNL d   1      25.231  -9.656  -6.033  0.00  0.00    -0.349 OA
BRANCH  15  16
ATOM     16  C   UNL d   1      24.885  -9.057  -4.778  0.00  0.00     0.201 C 
BRANCH  16  17
ATOM     17  C   UNL d   1      24.185  -7.724  -5.035  0.00  0.00     0.194 C 
BRANCH  17  18
ATOM     18  O   UNL d   1      23.462  -7.779  -6.268  0.00  0.00    -0.389 OA
BRANCH  18  19
ATOM     19  C   UNL d   1      22.825  -6.530  -6.540  0.00  0.00     0.163 C 
ATOM     20  C   UNL d   1      21.906  -6.173  -5.389  0.00  0.00     0.033 C 
ENDBRANCH  18  19
ENDBRANCH  17  18
ENDBRANCH  16  17
ENDBRANCH  15  16
ENDBRANCH  12  15
ENDBRANCH   6   9
ENDBRANCH   3   5
ENDBRANCH   1   3
BRANCH   1  21
ATOM     21  N   UNL d   1      28.291 -16.822  -1.958  0.00  0.00    -0.264 N 
ATOM     22  C   UNL d   1      27.164 -16.016  -1.878  0.00  0.00     0.270 C 
ATOM     23  O   UNL d   1      27.161 -14.828  -2.209  0.00  0.00    -0.266 OA
ATOM     24  H   UNL d   1      28.256 -17.823  -1.760  0.00  0.00     0.190 HD
BRANCH  22  25
ATOM     25  C   UNL d   1      25.909 -16.656  -1.334  0.00  0.00     0.033 A 
ATOM     26  C   UNL d   1      24.633 -16.097  -1.531  0.00  0.00     0.019 A 
ATOM     27  C   UNL d   1      23.477 -16.664  -0.922  0.00  0.00     0.030 A 
ATOM     28  C   UNL d   1      23.574 -17.828  -0.147  0.00  0.00     0.035 A 
ATOM     29  C   UNL d   1      24.858 -18.341   0.066  0.00  0.00     0.030 A 
ATOM     30  C   UNL d   1      26.005 -17.776  -0.515  0.00  0.00     0.019 A 
BRANCH  28  31
ATOM     31  N   UNL d   1      22.402 -18.467   0.368  0.00  0.00    -0.323 N 
ATOM     32  C   UNL d   1      21.387 -19.017  -0.413  0.00  0.00     0.256 C 
ATOM     33  O   UNL d   1      21.360 -19.079  -1.644  0.00  0.00    -0.267 OA
ATOM     34  H   UNL d   1      22.292 -18.497   1.376  0.00  0.00     0.169 HD
BRANCH  32  35
ATOM     35  C   UNL d   1      20.192 -19.583   0.261  0.00  0.00     0.032 A 
ATOM     36  C   UNL d   1      20.230 -19.725   1.659  0.00  0.00     0.017 A 
ATOM     37  C   UNL d   1      19.230 -20.435   2.325  0.00  0.00     0.001 A 
ATOM     38  C   UNL d   1      18.160 -20.959   1.604  0.00  0.00     0.000 A 
ATOM     39  C   UNL d   1      18.121 -20.822   0.213  0.00  0.00     0.001 A 
ATOM     40  C   UNL d   1      19.142 -20.147  -0.465  0.00  0.00     0.017 A 
ENDBRANCH  32  35
ENDBRANCH  28  31
ENDBRANCH  22  25
ENDBRANCH   1  21
TORSDOF 12
ENDMDL
MODEL 7
REMARK VINA RESULT:    -9.936      6.018      9.146
REMARK INTER + INTRA:         -15.782
REMARK INTER:                 -13.515
REMARK INTRA:                  -2.266
REMARK CONF_INDEPENDENT:        3.580
REMARK UNBOUND:                -2.266
REMARK  12 active torsions:
REMARK  status: ('A' for Active; 'I' for Inactive)
REMARK    1  A    between atoms: C_2  and  O_3 
REMARK    2  A    between atoms: O_3  and  C_4 
REMARK    3  A    between atoms: C_4  and  C_5 
REMARK    4  A    between atoms: C_5  and  O_6 
REMARK    5  A    between atoms: O_6  and  C_7 
REMARK    6  A    between atoms: C_10  and  C_11 
REMARK       I    between atoms: C_11  and  N_13 
REMARK    7  A    between atoms: N_13  and  C_14 
REMARK    8  A    between atoms: C_14  and  N_16 
REMARK    9  A    between atoms: N_16  and  N_17 
REMARK       I    between atoms: N_17  and  C_18 
REMARK   10  A    between atoms: C_18  and  C_20 
REMARK   11  A    between atoms: C_23  and  N_24 
REMARK       I    between atoms: N_24  and  C_25 
REMARK   12  A    between atoms: C_25  and  C_27 
ROOT
ATOM      1  N   UNL d   1      28.390 -14.889  -3.583  0.00  0.00    -0.273 N 
ATOM      2  H   UNL d   1      29.243 -14.906  -3.028  0.00  0.00     0.189 HD
ENDROOT
BRANCH   1   3
ATOM      3  C   UNL d   1      28.230 -14.323  -4.865  0.00  0.00     0.193 C 
ATOM      4  S   UNL d   1      28.721 -15.199  -6.224  0.00  0.00    -0.039 SA
BRANCH   3   5
ATOM      5  N   UNL d   1      27.647 -13.030  -4.895  0.00  0.00    -0.298 N 
ATOM      6  C   UNL d   1      26.332 -12.685  -4.479  0.00  0.00     0.257 C 
ATOM      7  O   UNL d   1      25.532 -13.499  -4.016  0.00  0.00    -0.267 OA
ATOM      8  H   UNL d   1      28.218 -12.291  -5.273  0.00  0.00     0.171 HD
BRANCH   6   9
ATOM      9  C   UNL d   1      25.792 -11.281  -4.607  0.00  0.00     0.032 A 
ATOM     10  C   UNL d   1      25.530 -10.790  -5.911  0.00  0.00     0.020 A 
ATOM     11  C   UNL d   1      25.158  -9.456  -6.142  0.00  0.00     0.038 A 
ATOM     12  C   UNL d   1      24.976  -8.593  -5.067  0.00  0.00     0.068 A 
ATOM     13  C   UNL d   1      25.156  -9.086  -3.773  0.00  0.00     0.038 A 
ATOM     14  C   UNL d   1      25.570 -10.414  -3.540  0.00  0.00     0.020 A 
BRANCH  12  15
ATOM     15  O   UNL d   1      24.530  -7.331  -5.357  0.00  0.00    -0.349 OA
BRANCH  15  16
ATOM     16  C   UNL d   1      23.413  -7.263  -6.251  0.00  0.00     0.201 C 
BRANCH  16  17
ATOM     17  C   UNL d   1      22.259  -6.541  -5.558  0.00  0.00     0.194 C 
BRANCH  17  18
ATOM     18  O   UNL d   1      21.184  -6.336  -6.481  0.00  0.00    -0.389 OA
BRANCH  18  19
ATOM     19  C   UNL d   1      21.625  -6.534  -7.825  0.00  0.00     0.163 C 
ATOM     20  C   UNL d   1      20.442  -6.416  -8.765  0.00  0.00     0.033 C 
ENDBRANCH  18  19
ENDBRANCH  17  18
ENDBRANCH  16  17
ENDBRANCH  15  16
ENDBRANCH  12  15
ENDBRANCH   6   9
ENDBRANCH   3   5
ENDBRANCH   1   3
BRANCH   1  21
ATOM     21  N   UNL d   1      27.248 -15.543  -2.964  0.00  0.00    -0.264 N 
ATOM     22  C   UNL d   1      27.346 -16.282  -1.793  0.00  0.00     0.270 C 
ATOM     23  O   UNL d   1      28.411 -16.463  -1.198  0.00  0.00    -0.266 OA
ATOM     24  H   UNL d   1      26.348 -15.333  -3.398  0.00  0.00     0.190 HD
BRANCH  22  25
ATOM     25  C   UNL d   1      26.069 -16.895  -1.269  0.00  0.00     0.033 A 
ATOM     26  C   UNL d   1      24.811 -16.610  -1.831  0.00  0.00     0.019 A 
ATOM     27  C   UNL d   1      23.612 -17.120  -1.255  0.00  0.00     0.030 A 
ATOM     28  C   UNL d   1      23.659 -17.965  -0.137  0.00  0.00     0.035 A 
ATOM     29  C   UNL d   1      24.917 -18.201   0.426  0.00  0.00     0.030 A 
ATOM     30  C   UNL d   1      26.102 -17.685  -0.124  0.00  0.00     0.019 A 
BRANCH  28  31
ATOM     31  N   UNL d   1      22.469 -18.574   0.373  0.00  0.00    -0.323 N 
ATOM     32  C   UNL d   1      21.435 -19.082  -0.414  0.00  0.00     0.256 C 
ATOM     33  O   UNL d   1      21.404 -19.127  -1.645  0.00  0.00    -0.267 OA
ATOM     34  H   UNL d   1      22.360 -18.614   1.380  0.00  0.00     0.169 HD
BRANCH  32  35
ATOM     35  C   UNL d   1      20.225 -19.619   0.255  0.00  0.00     0.032 A 
ATOM     36  C   UNL d   1      20.255 -19.764   1.654  0.00  0.00     0.017 A 
ATOM     37  C   UNL d   1      19.235 -20.450   2.316  0.00  0.00     0.001 A 
ATOM     38  C   UNL d   1      18.156 -20.947   1.591  0.00  0.00     0.000 A 
ATOM     39  C   UNL d   1      18.125 -20.809   0.200  0.00  0.00     0.001 A 
ATOM     40  C   UNL d   1      19.164 -20.158  -0.474  0.00  0.00     0.017 A 
ENDBRANCH  32  35
ENDBRANCH  28  31
ENDBRANCH  22  25
ENDBRANCH   1  21
TORSDOF 12
ENDMDL
MODEL 8
REMARK VINA RESULT:    -9.741      1.077      1.745
REMARK INTER + INTRA:         -15.305
REMARK INTER:                 -13.320
REMARK INTRA:                  -1.985
REMARK CONF_INDEPENDENT:        3.580
REMARK UNBOUND:                -1.985
REMARK  12 active torsions:
REMARK  status: ('A' for Active; 'I' for Inactive)
REMARK    1  A    between atoms: C_2  and  O_3 
REMARK    2  A    between atoms: O_3  and  C_4 
REMARK    3  A    between atoms: C_4  and  C_5 
REMARK    4  A    between atoms: C_5  and  O_6 
REMARK    5  A    between atoms: O_6  and  C_7 
REMARK    6  A    between atoms: C_10  and  C_11 
REMARK       I    between atoms: C_11  and  N_13 
REMARK    7  A    between atoms: N_13  and  C_14 
REMARK    8  A    between atoms: C_14  and  N_16 
REMARK    9  A    between atoms: N_16  and  N_17 
REMARK       I    between atoms: N_17  and  C_18 
REMARK   10  A    between atoms: C_18  and  C_20 
REMARK   11  A    between atoms: C_23  and  N_24 
REMARK       I    between atoms: N_24  and  C_25 
REMARK   12  A    between atoms: C_25  and  C_27 
ROOT
ATOM      1  N   UNL d   1      29.641 -15.551  -0.880  0.00  0.00    -0.273 N 
ATOM      2  H   UNL d   1      29.755 -15.255  -1.847  0.00  0.00     0.189 HD
ENDROOT
BRANCH   1   3
ATOM      3  C   UNL d   1      30.594 -15.444   0.153  0.00  0.00     0.193 C 
ATOM      4  S   UNL d   1      32.228 -15.694  -0.199  0.00  0.00    -0.039 SA
BRANCH   3   5
ATOM      5  N   UNL d   1      30.076 -15.120   1.433  0.00  0.00    -0.298 N 
ATOM      6  C   UNL d   1      29.051 -14.177   1.717  0.00  0.00     0.257 C 
ATOM      7  O   UNL d   1      28.470 -13.525   0.849  0.00  0.00    -0.267 OA
ATOM      8  H   UNL d   1      30.497 -15.591   2.218  0.00  0.00     0.171 HD
BRANCH   6   9
ATOM      9  C   UNL d   1      28.612 -13.869   3.128  0.00  0.00     0.032 A 
ATOM     10  C   UNL d   1      28.438 -12.507   3.484  0.00  0.00     0.020 A 
ATOM     11  C   UNL d   1      28.166 -12.112   4.804  0.00  0.00     0.038 A 
ATOM     12  C   UNL d   1      27.997 -13.075   5.792  0.00  0.00     0.068 A 
ATOM     13  C   UNL d   1      28.089 -14.424   5.439  0.00  0.00     0.038 A 
ATOM     14  C   UNL d   1      28.404 -14.821   4.122  0.00  0.00     0.020 A 
BRANCH  12  15
ATOM     15  O   UNL d   1      27.649 -12.627   7.038  0.00  0.00    -0.349 OA
BRANCH  15  16
ATOM     16  C   UNL d   1      28.537 -13.003   8.098  0.00  0.00     0.201 C 
BRANCH  16  17
ATOM     17  C   UNL d   1      29.972 -12.993   7.579  0.00  0.00     0.194 C 
BRANCH  17  18
ATOM     18  O   UNL d   1      30.502 -11.664   7.628  0.00  0.00    -0.389 OA
BRANCH  18  19
ATOM     19  C   UNL d   1      31.724 -11.577   6.893  0.00  0.00     0.163 C 
ATOM     20  C   UNL d   1      31.417 -11.501   5.412  0.00  0.00     0.033 C 
ENDBRANCH  18  19
ENDBRANCH  17  18
ENDBRANCH  16  17
ENDBRANCH  15  16
ENDBRANCH  12  15
ENDBRANCH   6   9
ENDBRANCH   3   5
ENDBRANCH   1   3
BRANCH   1  21
ATOM     21  N   UNL d   1      28.339 -16.119  -0.569  0.00  0.00    -0.264 N 
ATOM     22  C   UNL d   1      27.284 -16.128  -1.471  0.00  0.00     0.270 C 
ATOM     23  O   UNL d   1      27.358 -15.634  -2.599  0.00  0.00    -0.266 OA
ATOM     24  H   UNL d   1      28.288 -16.605   0.328  0.00  0.00     0.190 HD
BRANCH  22  25
ATOM     25  C   UNL d   1      25.995 -16.760  -1.003  0.00  0.00     0.033 A 
ATOM     26  C   UNL d   1      24.734 -16.295  -1.418  0.00  0.00     0.019 A 
ATOM     27  C   UNL d   1      23.532 -16.842  -0.884  0.00  0.00     0.030 A 
ATOM     28  C   UNL d   1      23.575 -17.898   0.038  0.00  0.00     0.035 A 
ATOM     29  C   UNL d   1      24.840 -18.315   0.464  0.00  0.00     0.030 A 
ATOM     30  C   UNL d   1      26.029 -17.767  -0.043  0.00  0.00     0.019 A 
BRANCH  28  31
ATOM     31  N   UNL d   1      22.372 -18.529   0.488  0.00  0.00    -0.323 N 
ATOM     32  C   UNL d   1      21.377 -19.033  -0.349  0.00  0.00     0.256 C 
ATOM     33  O   UNL d   1      21.397 -19.057  -1.581  0.00  0.00    -0.267 OA
ATOM     34  H   UNL d   1      22.222 -18.587   1.489  0.00  0.00     0.169 HD
BRANCH  32  35
ATOM     35  C   UNL d   1      20.147 -19.596   0.260  0.00  0.00     0.032 A 
ATOM     36  C   UNL d   1      20.112 -19.743   1.659  0.00  0.00     0.017 A 
ATOM     37  C   UNL d   1      19.075 -20.450   2.269  0.00  0.00     0.001 A 
ATOM     38  C   UNL d   1      18.042 -20.966   1.492  0.00  0.00     0.000 A 
ATOM     39  C   UNL d   1      18.075 -20.825   0.102  0.00  0.00     0.001 A 
ATOM     40  C   UNL d   1      19.133 -20.152  -0.520  0.00  0.00     0.017 A 
ENDBRANCH  32  35
ENDBRANCH  28  31
ENDBRANCH  22  25
ENDBRANCH   1  21
TORSDOF 12
ENDMDL
MODEL 9
REMARK VINA RESULT:    -9.403      5.766      8.726
REMARK INTER + INTRA:         -15.016
REMARK INTER:                 -12.983
REMARK INTRA:                  -2.033
REMARK CONF_INDEPENDENT:        3.580
REMARK UNBOUND:                -2.033
REMARK  12 active torsions:
REMARK  status: ('A' for Active; 'I' for Inactive)
REMARK    1  A    between atoms: C_2  and  O_3 
REMARK    2  A    between atoms: O_3  and  C_4 
REMARK    3  A    between atoms: C_4  and  C_5 
REMARK    4  A    between atoms: C_5  and  O_6 
REMARK    5  A    between atoms: O_6  and  C_7 
REMARK    6  A    between atoms: C_10  and  C_11 
REMARK       I    between atoms: C_11  and  N_13 
REMARK    7  A    between atoms: N_13  and  C_14 
REMARK    8  A    between atoms: C_14  and  N_16 
REMARK    9  A    between atoms: N_16  and  N_17 
REMARK       I    between atoms: N_17  and  C_18 
REMARK   10  A    between atoms: C_18  and  C_20 
REMARK   11  A    between atoms: C_23  and  N_24 
REMARK       I    between atoms: N_24  and  C_25 
REMARK   12  A    between atoms: C_25  and  C_27 
ROOT
ATOM      1  N   UNL d   1      27.784 -13.593  -2.695  0.00  0.00    -0.273 N 
ATOM      2  H   UNL d   1      28.008 -12.831  -2.059  0.00  0.00     0.189 HD
ENDROOT
BRANCH   1   3
ATOM      3  C   UNL d   1      28.360 -13.831  -3.960  0.00  0.00     0.193 C 
ATOM      4  S   UNL d   1      28.113 -12.715  -5.204  0.00  0.00    -0.039 SA
BRANCH   3   5
ATOM      5  N   UNL d   1      29.121 -15.024  -4.072  0.00  0.00    -0.298 N 
ATOM      6  C   UNL d   1      29.256 -15.835  -5.232  0.00  0.00     0.257 C 
ATOM      7  O   UNL d   1      28.720 -15.573  -6.308  0.00  0.00    -0.267 OA
ATOM      8  H   UNL d   1      29.589 -15.335  -3.236  0.00  0.00     0.171 HD
BRANCH   6   9
ATOM      9  C   UNL d   1      30.049 -17.119  -5.224  0.00  0.00     0.032 A 
ATOM     10  C   UNL d   1      30.419 -17.660  -3.966  0.00  0.00     0.020 A 
ATOM     11  C   UNL d   1      31.270 -18.772  -3.856  0.00  0.00     0.038 A 
ATOM     12  C   UNL d   1      31.723 -19.411  -5.005  0.00  0.00     0.068 A 
ATOM     13  C   UNL d   1      31.303 -18.935  -6.249  0.00  0.00     0.038 A 
ATOM     14  C   UNL d   1      30.482 -17.794  -6.363  0.00  0.00     0.020 A 
BRANCH  12  15
ATOM     15  O   UNL d   1      32.478 -20.539  -4.826  0.00  0.00    -0.349 OA
BRANCH  15  16
ATOM     16  C   UNL d   1      31.770 -21.779  -4.936  0.00  0.00     0.201 C 
BRANCH  16  17
ATOM     17  C   UNL d   1      30.400 -21.635  -4.275  0.00  0.00     0.194 C 
BRANCH  17  18
ATOM     18  O   UNL d   1      30.312 -22.497  -3.136  0.00  0.00    -0.389 OA
BRANCH  18  19
ATOM     19  C   UNL d   1      29.878 -23.802  -3.519  0.00  0.00     0.163 C 
ATOM     20  C   UNL d   1      29.096 -24.426  -2.381  0.00  0.00     0.033 C 
ENDBRANCH  18  19
ENDBRANCH  17  18
ENDBRANCH  16  17
ENDBRANCH  15  16
ENDBRANCH  12  15
ENDBRANCH   6   9
ENDBRANCH   3   5
ENDBRANCH   1   3
BRANCH   1  21
ATOM     21  N   UNL d   1      26.779 -14.522  -2.202  0.00  0.00    -0.264 N 
ATOM     22  C   UNL d   1      27.087 -15.799  -1.754  0.00  0.00     0.270 C 
ATOM     23  O   UNL d   1      28.232 -16.257  -1.761  0.00  0.00    -0.266 OA
ATOM     24  H   UNL d   1      25.841 -14.128  -2.112  0.00  0.00     0.190 HD
BRANCH  22  25
ATOM     25  C   UNL d   1      25.934 -16.643  -1.266  0.00  0.00     0.033 A 
ATOM     26  C   UNL d   1      26.032 -17.466  -0.128  0.00  0.00     0.019 A 
ATOM     27  C   UNL d   1      24.966 -18.330   0.253  0.00  0.00     0.030 A 
ATOM     28  C   UNL d   1      23.765 -18.346  -0.471  0.00  0.00     0.035 A 
ATOM     29  C   UNL d   1      23.707 -17.549  -1.619  0.00  0.00     0.030 A 
ATOM     30  C   UNL d   1      24.762 -16.710  -2.012  0.00  0.00     0.019 A 
BRANCH  28  31
ATOM     31  N   UNL d   1      22.649 -19.122  -0.025  0.00  0.00    -0.323 N 
ATOM     32  C   UNL d   1      21.312 -18.805  -0.263  0.00  0.00     0.256 C 
ATOM     33  O   UNL d   1      20.891 -17.852  -0.921  0.00  0.00    -0.267 OA
ATOM     34  H   UNL d   1      22.847 -19.948   0.529  0.00  0.00     0.169 HD
BRANCH  32  35
ATOM     35  C   UNL d   1      20.257 -19.665   0.326  0.00  0.00     0.032 A 
ATOM     36  C   UNL d   1      19.228 -20.118  -0.519  0.00  0.00     0.017 A 
ATOM     37  C   UNL d   1      18.104 -20.753   0.012  0.00  0.00     0.001 A 
ATOM     38  C   UNL d   1      18.029 -20.987   1.382  0.00  0.00     0.000 A 
ATOM     39  C   UNL d   1      19.048 -20.535   2.226  0.00  0.00     0.001 A 
ATOM     40  C   UNL d   1      20.158 -19.861   1.704  0.00  0.00     0.017 A 
ENDBRANCH  32  35
ENDBRANCH  28  31
ENDBRANCH  22  25
ENDBRANCH   1  21
TORSDOF 12
ENDMDL
