MODEL 1
REMARK VINA RESULT:   -10.338      0.000      0.000
REMARK INTER + INTRA:         -16.014
REMARK INTER:                 -13.917
REMARK INTRA:                  -2.096
REMARK CONF_INDEPENDENT:        3.580
REMARK UNBOUND:                -2.096
REMARK  12 active torsions:
REMARK  status: ('A' for Active; 'I' for Inactive)
REMARK    1  A    between atoms: C_2  and  O_3 
REMARK    2  A    between atoms: O_3  and  C_4 
REMARK    3  A    between atoms: C_4  and  C_5 
REMARK    4  A    between atoms: C_5  and  O_6 
REMARK    5  A    between atoms: O_6  and  C_7 
REMARK    6  A    between atoms: C_10  and  C_11 
REMARK       I    between atoms: C_11  and  N_13 
REMARK    7  A    between atoms: N_13  and  C_14 
REMARK    8  A    between atoms: C_14  and  N_16 
REMARK    9  A    between atoms: N_16  and  N_17 
REMARK       I    between atoms: N_17  and  C_18 
REMARK   10  A    between atoms: C_18  and  C_20 
REMARK   11  A    between atoms: C_23  and  N_24 
REMARK       I    between atoms: N_24  and  C_25 
REMARK   12  A    between atoms: C_25  and  C_27 
ROOT
ATOM      1  N   UNL d   1      29.200 -15.024   0.570  0.00  0.00    -0.264 N 
ATOM      2  C   UNL d   1      28.910 -13.922   1.363  0.00  0.00     0.270 C 
ATOM      3  O   UNL d   1      28.679 -12.804   0.896  0.00  0.00    -0.266 OA
ATOM      4  H   UNL d   1      29.308 -15.962   0.957  0.00  0.00     0.190 HD
ENDROOT
BRANCH   1   5
ATOM      5  N   UNL d   1      29.237 -14.955  -0.884  0.00  0.00    -0.273 N 
ATOM      6  H   UNL d   1      29.563 -14.066  -1.259  0.00  0.00     0.189 HD
BRANCH   5   7
ATOM      7  C   UNL d   1      28.859 -16.092  -1.626  0.00  0.00     0.193 C 
ATOM      8  S   UNL d   1      30.044 -16.966  -2.456  0.00  0.00    -0.039 SA
BRANCH   7   9
ATOM      9  N   UNL d   1      27.477 -16.411  -1.601  0.00  0.00    -0.298 N 
ATOM     10  C   UNL d   1      26.733 -16.855  -0.474  0.00  0.00     0.257 C 
ATOM     11  O   UNL d   1      27.222 -16.998   0.647  0.00  0.00    -0.267 OA
ATOM     12  H   UNL d   1      26.985 -16.336  -2.477  0.00  0.00     0.171 HD
BRANCH  10  13
ATOM     13  C   UNL d   1      25.272 -17.222  -0.570  0.00  0.00     0.032 A 
ATOM     14  C   UNL d   1      24.371 -16.226  -1.021  0.00  0.00     0.020 A 
ATOM     15  C   UNL d   1      22.981 -16.432  -1.037  0.00  0.00     0.038 A 
ATOM     16  C   UNL d   1      22.459 -17.667  -0.667  0.00  0.00     0.068 A 
ATOM     17  C   UNL d   1      23.339 -18.675  -0.267  0.00  0.00     0.038 A 
ATOM     18  C   UNL d   1      24.733 -18.457  -0.214  0.00  0.00     0.020 A 
BRANCH  16  19
ATOM     19  O   UNL d   1      21.109 -17.823  -0.835  0.00  0.00    -0.349 OA
BRANCH  19  20
ATOM     20  C   UNL d   1      20.659 -19.118  -1.248  0.00  0.00     0.201 C 
BRANCH  20  21
ATOM     21  C   UNL d   1      19.414 -19.493  -0.445  0.00  0.00     0.194 C 
BRANCH  21  22
ATOM     22  O   UNL d   1      19.429 -20.890  -0.140  0.00  0.00    -0.389 OA
BRANCH  22  23
ATOM     23  C   UNL d   1      18.661 -21.164   1.032  0.00  0.00     0.163 C 
ATOM     24  C   UNL d   1      18.964 -20.121   2.088  0.00  0.00     0.033 C 
ENDBRANCH  22  23
ENDBRANCH  21  22
ENDBRANCH  20  21
ENDBRANCH  19  20
ENDBRANCH  16  19
ENDBRANCH  10  13
ENDBRANCH   7   9
ENDBRANCH   5   7
ENDBRANCH   1   5
BRANCH   2  25
ATOM     25  C   UNL d   1      28.918 -14.121   2.861  0.00  0.00     0.033 A 
ATOM     26  C   UNL d   1      27.747 -14.443   3.573  0.00  0.00     0.019 A 
ATOM     27  C   UNL d   1      27.725 -14.460   4.996  0.00  0.00     0.030 A 
ATOM     28  C   UNL d   1      28.891 -14.210   5.733  0.00  0.00     0.035 A 
ATOM     29  C   UNL d   1      30.039 -13.882   5.004  0.00  0.00     0.030 A 
ATOM     30  C   UNL d   1      30.065 -13.844   3.600  0.00  0.00     0.019 A 
BRANCH  28  31
ATOM     31  N   UNL d   1      28.893 -14.318   7.161  0.00  0.00    -0.323 N 
ATOM     32  C   UNL d   1      28.543 -13.290   8.033  0.00  0.00     0.256 C 
ATOM     33  O   UNL d   1      28.141 -12.167   7.713  0.00  0.00    -0.267 OA
ATOM     34  H   UNL d   1      29.195 -15.200   7.561  0.00  0.00     0.169 HD
BRANCH  32  35
ATOM     35  C   UNL d   1      28.674 -13.498   9.497  0.00  0.00     0.032 A 
ATOM     36  C   UNL d   1      28.214 -12.474  10.346  0.00  0.00     0.017 A 
ATOM     37  C   UNL d   1      28.543 -12.473  11.701  0.00  0.00     0.002 A 
ATOM     38  C   UNL d   1      29.286 -13.525  12.230  0.00  0.00     0.007 A 
ATOM     39  C   UNL d   1      29.747 -14.554  11.398  0.00  0.00    -0.061 A 
ATOM     40  C   UNL d   1      30.630 -15.633  11.948  0.00  0.00     0.048 C 
ATOM     41  C   UNL d   1      29.440 -14.538  10.025  0.00  0.00     0.023 A 
ENDBRANCH  32  35
ENDBRANCH  28  31
ENDBRANCH   2  25
TORSDOF 12
ENDMDL
MODEL 2
REMARK VINA RESULT:   -10.233      2.030     10.914
REMARK INTER + INTRA:         -15.860
REMARK INTER:                 -13.812
REMARK INTRA:                  -2.047
REMARK CONF_INDEPENDENT:        3.580
REMARK UNBOUND:                -2.047
REMARK  12 active torsions:
REMARK  status: ('A' for Active; 'I' for Inactive)
REMARK    1  A    between atoms: C_2  and  O_3 
REMARK    2  A    between atoms: O_3  and  C_4 
REMARK    3  A    between atoms: C_4  and  C_5 
REMARK    4  A    between atoms: C_5  and  O_6 
REMARK    5  A    between atoms: O_6  and  C_7 
REMARK    6  A    between atoms: C_10  and  C_11 
REMARK       I    between atoms: C_11  and  N_13 
REMARK    7  A    between atoms: N_13  and  C_14 
REMARK    8  A    between atoms: C_14  and  N_16 
REMARK    9  A    between atoms: N_16  and  N_17 
REMARK       I    between atoms: N_17  and  C_18 
REMARK   10  A    between atoms: C_18  and  C_20 
REMARK   11  A    between atoms: C_23  and  N_24 
REMARK       I    between atoms: N_24  and  C_25 
REMARK   12  A    between atoms: C_25  and  C_27 
ROOT
ATOM      1  N   UNL d   1      29.368 -15.525   0.735  0.00  0.00    -0.264 N 
ATOM      2  C   UNL d   1      28.581 -15.514  -0.409  0.00  0.00     0.270 C 
ATOM      3  O   UNL d   1      28.851 -14.829  -1.399  0.00  0.00    -0.266 OA
ATOM      4  H   UNL d   1      29.186 -16.154   1.517  0.00  0.00     0.190 HD
ENDROOT
BRANCH   1   5
ATOM      5  N   UNL d   1      30.589 -14.741   0.854  0.00  0.00    -0.273 N 
ATOM      6  H   UNL d   1      30.701 -14.019   0.143  0.00  0.00     0.189 HD
BRANCH   5   7
ATOM      7  C   UNL d   1      31.469 -15.015   1.920  0.00  0.00     0.193 C 
ATOM      8  S   UNL d   1      32.852 -15.941   1.630  0.00  0.00    -0.039 SA
BRANCH   7   9
ATOM      9  N   UNL d   1      31.103 -14.464   3.175  0.00  0.00    -0.298 N 
ATOM     10  C   UNL d   1      29.782 -14.241   3.648  0.00  0.00     0.257 C 
ATOM     11  O   UNL d   1      28.774 -14.530   3.001  0.00  0.00    -0.267 OA
ATOM     12  H   UNL d   1      31.861 -14.183   3.778  0.00  0.00     0.171 HD
BRANCH  10  13
ATOM     13  C   UNL d   1      29.504 -13.594   4.982  0.00  0.00     0.032 A 
ATOM     14  C   UNL d   1      29.552 -12.179   5.052  0.00  0.00     0.020 A 
ATOM     15  C   UNL d   1      29.421 -11.489   6.268  0.00  0.00     0.038 A 
ATOM     16  C   UNL d   1      29.167 -12.192   7.441  0.00  0.00     0.068 A 
ATOM     17  C   UNL d   1      29.068 -13.584   7.380  0.00  0.00     0.038 A 
ATOM     18  C   UNL d   1      29.237 -14.282   6.164  0.00  0.00     0.020 A 
BRANCH  16  19
ATOM     19  O   UNL d   1      28.925 -11.435   8.555  0.00  0.00    -0.349 OA
BRANCH  19  20
ATOM     20  C   UNL d   1      28.154 -12.049   9.594  0.00  0.00     0.201 C 
BRANCH  20  21
ATOM     21  C   UNL d   1      29.067 -12.347  10.783  0.00  0.00     0.194 C 
BRANCH  21  22
ATOM     22  O   UNL d   1      28.525 -13.418  11.561  0.00  0.00    -0.389 OA
BRANCH  22  23
ATOM     23  C   UNL d   1      27.857 -14.365  10.727  0.00  0.00     0.163 C 
ATOM     24  C   UNL d   1      28.884 -15.202   9.992  0.00  0.00     0.033 C 
ENDBRANCH  22  23
ENDBRANCH  21  22
ENDBRANCH  20  21
ENDBRANCH  19  20
ENDBRANCH  16  19
ENDBRANCH  10  13
ENDBRANCH   7   9
ENDBRANCH   5   7
ENDBRANCH   1   5
BRANCH   2  25
ATOM     25  C   UNL d   1      27.330 -16.360  -0.401  0.00  0.00     0.033 A 
ATOM     26  C   UNL d   1      26.174 -15.983  -1.111  0.00  0.00     0.019 A 
ATOM     27  C   UNL d   1      24.948 -16.690  -0.961  0.00  0.00     0.030 A 
ATOM     28  C   UNL d   1      24.870 -17.824  -0.142  0.00  0.00     0.035 A 
ATOM     29  C   UNL d   1      26.029 -18.173   0.562  0.00  0.00     0.030 A 
ATOM     30  C   UNL d   1      27.238 -17.469   0.436  0.00  0.00     0.019 A 
BRANCH  28  31
ATOM     31  N   UNL d   1      23.663 -18.591  -0.063  0.00  0.00    -0.323 N 
ATOM     32  C   UNL d   1      22.399 -18.116  -0.406  0.00  0.00     0.256 C 
ATOM     33  O   UNL d   1      22.140 -17.001  -0.867  0.00  0.00    -0.267 OA
ATOM     34  H   UNL d   1      23.736 -19.538   0.292  0.00  0.00     0.169 HD
BRANCH  32  35
ATOM     35  C   UNL d   1      21.213 -18.981  -0.194  0.00  0.00     0.032 A 
ATOM     36  C   UNL d   1      20.315 -19.134  -1.268  0.00  0.00     0.017 A 
ATOM     37  C   UNL d   1      19.057 -19.700  -1.067  0.00  0.00     0.002 A 
ATOM     38  C   UNL d   1      18.706 -20.169   0.195  0.00  0.00     0.007 A 
ATOM     39  C   UNL d   1      19.591 -20.028   1.273  0.00  0.00    -0.061 A 
ATOM     40  C   UNL d   1      19.174 -20.443   2.652  0.00  0.00     0.048 C 
ATOM     41  C   UNL d   1      20.848 -19.430   1.076  0.00  0.00     0.023 A 
ENDBRANCH  32  35
ENDBRANCH  28  31
ENDBRANCH   2  25
TORSDOF 12
ENDMDL
MODEL 3
REMARK VINA RESULT:    -9.847      2.146     10.656
REMARK INTER + INTRA:         -15.615
REMARK INTER:                 -13.427
REMARK INTRA:                  -2.188
REMARK CONF_INDEPENDENT:        3.580
REMARK UNBOUND:                -2.188
REMARK  12 active torsions:
REMARK  status: ('A' for Active; 'I' for Inactive)
REMARK    1  A    between atoms: C_2  and  O_3 
REMARK    2  A    between atoms: O_3  and  C_4 
REMARK    3  A    between atoms: C_4  and  C_5 
REMARK    4  A    between atoms: C_5  and  O_6 
REMARK    5  A    between atoms: O_6  and  C_7 
REMARK    6  A    between atoms: C_10  and  C_11 
REMARK       I    between atoms: C_11  and  N_13 
REMARK    7  A    between atoms: N_13  and  C_14 
REMARK    8  A    between atoms: C_14  and  N_16 
REMARK    9  A    between atoms: N_16  and  N_17 
REMARK       I    between atoms: N_17  and  C_18 
REMARK   10  A    between atoms: C_18  and  C_20 
REMARK   11  A    between atoms: C_23  and  N_24 
REMARK       I    between atoms: N_24  and  C_25 
REMARK   12  A    between atoms: C_25  and  C_27 
ROOT
ATOM      1  N   UNL d   1      27.765 -14.392  -0.820  0.00  0.00    -0.264 N 
ATOM      2  C   UNL d   1      27.221 -15.175  -1.830  0.00  0.00     0.270 C 
ATOM      3  O   UNL d   1      27.581 -15.092  -3.007  0.00  0.00    -0.266 OA
ATOM      4  H   UNL d   1      27.522 -14.523   0.163  0.00  0.00     0.190 HD
ENDROOT
BRANCH   1   5
ATOM      5  N   UNL d   1      28.820 -13.419  -1.064  0.00  0.00    -0.273 N 
ATOM      6  H   UNL d   1      29.436 -13.648  -1.842  0.00  0.00     0.189 HD
BRANCH   5   7
ATOM      7  C   UNL d   1      28.882 -12.269  -0.252  0.00  0.00     0.193 C 
ATOM      8  S   UNL d   1      28.929 -10.746  -0.982  0.00  0.00    -0.039 SA
BRANCH   7   9
ATOM      9  N   UNL d   1      28.894 -12.505   1.147  0.00  0.00    -0.298 N 
ATOM     10  C   UNL d   1      27.843 -13.073   1.917  0.00  0.00     0.257 C 
ATOM     11  O   UNL d   1      26.777 -13.452   1.431  0.00  0.00    -0.267 OA
ATOM     12  H   UNL d   1      29.723 -12.217   1.642  0.00  0.00     0.171 HD
BRANCH  10  13
ATOM     13  C   UNL d   1      27.938 -13.228   3.415  0.00  0.00     0.032 A 
ATOM     14  C   UNL d   1      27.958 -12.048   4.200  0.00  0.00     0.020 A 
ATOM     15  C   UNL d   1      28.159 -12.082   5.590  0.00  0.00     0.038 A 
ATOM     16  C   UNL d   1      28.274 -13.304   6.244  0.00  0.00     0.068 A 
ATOM     17  C   UNL d   1      28.206 -14.478   5.489  0.00  0.00     0.038 A 
ATOM     18  C   UNL d   1      28.043 -14.444   4.087  0.00  0.00     0.020 A 
BRANCH  16  19
ATOM     19  O   UNL d   1      28.337 -13.251   7.611  0.00  0.00    -0.349 OA
BRANCH  19  20
ATOM     20  C   UNL d   1      29.490 -13.840   8.223  0.00  0.00     0.201 C 
BRANCH  20  21
ATOM     21  C   UNL d   1      29.075 -14.491   9.542  0.00  0.00     0.194 C 
BRANCH  21  22
ATOM     22  O   UNL d   1      27.782 -14.023   9.935  0.00  0.00    -0.389 OA
BRANCH  22  23
ATOM     23  C   UNL d   1      27.879 -12.774  10.620  0.00  0.00     0.163 C 
ATOM     24  C   UNL d   1      28.854 -12.905  11.772  0.00  0.00     0.033 C 
ENDBRANCH  22  23
ENDBRANCH  21  22
ENDBRANCH  20  21
ENDBRANCH  19  20
ENDBRANCH  16  19
ENDBRANCH  10  13
ENDBRANCH   7   9
ENDBRANCH   5   7
ENDBRANCH   1   5
BRANCH   2  25
ATOM     25  C   UNL d   1      26.120 -16.137  -1.449  0.00  0.00     0.033 A 
ATOM     26  C   UNL d   1      24.774 -15.891  -1.779  0.00  0.00     0.019 A 
ATOM     27  C   UNL d   1      23.725 -16.708  -1.270  0.00  0.00     0.030 A 
ATOM     28  C   UNL d   1      24.009 -17.821  -0.468  0.00  0.00     0.035 A 
ATOM     29  C   UNL d   1      25.353 -18.039  -0.145  0.00  0.00     0.030 A 
ATOM     30  C   UNL d   1      26.393 -17.226  -0.626  0.00  0.00     0.019 A 
BRANCH  28  31
ATOM     31  N   UNL d   1      22.963 -18.698  -0.032  0.00  0.00    -0.323 N 
ATOM     32  C   UNL d   1      21.613 -18.529  -0.331  0.00  0.00     0.256 C 
ATOM     33  O   UNL d   1      21.129 -17.643  -1.041  0.00  0.00    -0.267 OA
ATOM     34  H   UNL d   1      23.227 -19.482   0.554  0.00  0.00     0.169 HD
BRANCH  32  35
ATOM     35  C   UNL d   1      20.614 -19.457   0.255  0.00  0.00     0.032 A 
ATOM     36  C   UNL d   1      19.507 -19.810  -0.538  0.00  0.00     0.017 A 
ATOM     37  C   UNL d   1      18.404 -20.450   0.027  0.00  0.00     0.002 A 
ATOM     38  C   UNL d   1      18.422 -20.792   1.376  0.00  0.00     0.007 A 
ATOM     39  C   UNL d   1      19.521 -20.452   2.177  0.00  0.00    -0.061 A 
ATOM     40  C   UNL d   1      19.498 -20.731   3.650  0.00  0.00     0.048 C 
ATOM     41  C   UNL d   1      20.620 -19.780   1.613  0.00  0.00     0.023 A 
ENDBRANCH  32  35
ENDBRANCH  28  31
ENDBRANCH   2  25
TORSDOF 12
ENDMDL
MODEL 4
REMARK VINA RESULT:    -9.699      2.151     11.273
REMARK INTER + INTRA:         -15.287
REMARK INTER:                 -13.279
REMARK INTRA:                  -2.009
REMARK CONF_INDEPENDENT:        3.580
REMARK UNBOUND:                -2.009
REMARK  12 active torsions:
REMARK  status: ('A' for Active; 'I' for Inactive)
REMARK    1  A    between atoms: C_2  and  O_3 
REMARK    2  A    between atoms: O_3  and  C_4 
REMARK    3  A    between atoms: C_4  and  C_5 
REMARK    4  A    between atoms: C_5  and  O_6 
REMARK    5  A    between atoms: O_6  and  C_7 
REMARK    6  A    between atoms: C_10  and  C_11 
REMARK       I    between atoms: C_11  and  N_13 
REMARK    7  A    between atoms: N_13  and  C_14 
REMARK    8  A    between atoms: C_14  and  N_16 
REMARK    9  A    between atoms: N_16  and  N_17 
REMARK       I    between atoms: N_17  and  C_18 
REMARK   10  A    between atoms: C_18  and  C_20 
REMARK   11  A    between atoms: C_23  and  N_24 
REMARK       I    between atoms: N_24  and  C_25 
REMARK   12  A    between atoms: C_25  and  C_27 
ROOT
ATOM      1  N   UNL d   1      29.368 -15.302   0.978  0.00  0.00    -0.264 N 
ATOM      2  C   UNL d   1      28.646 -15.557  -0.181  0.00  0.00     0.270 C 
ATOM      3  O   UNL d   1      28.994 -15.143  -1.290  0.00  0.00    -0.266 OA
ATOM      4  H   UNL d   1      29.120 -15.715   1.877  0.00  0.00     0.190 HD
ENDROOT
BRANCH   1   5
ATOM      5  N   UNL d   1      30.609 -14.541   0.976  0.00  0.00    -0.273 N 
ATOM      6  H   UNL d   1      30.720 -13.913   0.182  0.00  0.00     0.189 HD
BRANCH   5   7
ATOM      7  C   UNL d   1      31.507 -14.707   2.049  0.00  0.00     0.193 C 
ATOM      8  S   UNL d   1      33.055 -15.312   1.743  0.00  0.00    -0.039 SA
BRANCH   7   9
ATOM      9  N   UNL d   1      31.014 -14.333   3.326  0.00  0.00    -0.298 N 
ATOM     10  C   UNL d   1      29.704 -13.870   3.624  0.00  0.00     0.257 C 
ATOM     11  O   UNL d   1      28.817 -13.758   2.777  0.00  0.00    -0.267 OA
ATOM     12  H   UNL d   1      31.671 -14.379   4.089  0.00  0.00     0.171 HD
BRANCH  10  13
ATOM     13  C   UNL d   1      29.299 -13.443   5.014  0.00  0.00     0.032 A 
ATOM     14  C   UNL d   1      29.471 -14.377   6.066  0.00  0.00     0.020 A 
ATOM     15  C   UNL d   1      29.021 -14.118   7.372  0.00  0.00     0.038 A 
ATOM     16  C   UNL d   1      28.449 -12.887   7.676  0.00  0.00     0.068 A 
ATOM     17  C   UNL d   1      28.318 -11.938   6.660  0.00  0.00     0.038 A 
ATOM     18  C   UNL d   1      28.735 -12.211   5.339  0.00  0.00     0.020 A 
BRANCH  16  19
ATOM     19  O   UNL d   1      28.157 -12.671   8.996  0.00  0.00    -0.349 OA
BRANCH  19  20
ATOM     20  C   UNL d   1      29.237 -12.815   9.925  0.00  0.00     0.201 C 
BRANCH  20  21
ATOM     21  C   UNL d   1      29.885 -11.449  10.152  0.00  0.00     0.194 C 
BRANCH  21  22
ATOM     22  O   UNL d   1      30.102 -10.795   8.899  0.00  0.00    -0.389 OA
BRANCH  22  23
ATOM     23  C   UNL d   1      30.279  -9.390   9.082  0.00  0.00     0.163 C 
ATOM     24  C   UNL d   1      31.724  -9.107   9.440  0.00  0.00     0.033 C 
ENDBRANCH  22  23
ENDBRANCH  21  22
ENDBRANCH  20  21
ENDBRANCH  19  20
ENDBRANCH  16  19
ENDBRANCH  10  13
ENDBRANCH   7   9
ENDBRANCH   5   7
ENDBRANCH   1   5
BRANCH   2  25
ATOM     25  C   UNL d   1      27.365 -16.346  -0.044  0.00  0.00     0.033 A 
ATOM     26  C   UNL d   1      27.370 -17.726   0.237  0.00  0.00     0.019 A 
ATOM     27  C   UNL d   1      26.174 -18.496   0.195  0.00  0.00     0.030 A 
ATOM     28  C   UNL d   1      24.940 -17.889  -0.073  0.00  0.00     0.035 A 
ATOM     29  C   UNL d   1      24.961 -16.519  -0.359  0.00  0.00     0.030 A 
ATOM     30  C   UNL d   1      26.140 -15.754  -0.339  0.00  0.00     0.019 A 
BRANCH  28  31
ATOM     31  N   UNL d   1      23.724 -18.643  -0.023  0.00  0.00    -0.323 N 
ATOM     32  C   UNL d   1      22.467 -18.140  -0.352  0.00  0.00     0.256 C 
ATOM     33  O   UNL d   1      22.222 -17.006  -0.772  0.00  0.00    -0.267 OA
ATOM     34  H   UNL d   1      23.784 -19.603   0.297  0.00  0.00     0.169 HD
BRANCH  32  35
ATOM     35  C   UNL d   1      21.269 -18.997  -0.173  0.00  0.00     0.032 A 
ATOM     36  C   UNL d   1      20.399 -19.142  -1.270  0.00  0.00     0.017 A 
ATOM     37  C   UNL d   1      19.132 -19.700  -1.104  0.00  0.00     0.002 A 
ATOM     38  C   UNL d   1      18.744 -20.169   0.148  0.00  0.00     0.007 A 
ATOM     39  C   UNL d   1      19.602 -20.036   1.249  0.00  0.00    -0.061 A 
ATOM     40  C   UNL d   1      19.146 -20.450   2.616  0.00  0.00     0.048 C 
ATOM     41  C   UNL d   1      20.868 -19.446   1.087  0.00  0.00     0.023 A 
ENDBRANCH  32  35
ENDBRANCH  28  31
ENDBRANCH   2  25
TORSDOF 12
ENDMDL
MODEL 5
REMARK VINA RESULT:    -9.563      1.095      1.423
REMARK INTER + INTRA:         -15.248
REMARK INTER:                 -13.143
REMARK INTRA:                  -2.105
REMARK CONF_INDEPENDENT:        3.580
REMARK UNBOUND:                -2.105
REMARK  12 active torsions:
REMARK  status: ('A' for Active; 'I' for Inactive)
REMARK    1  A    between atoms: C_2  and  O_3 
REMARK    2  A    between atoms: O_3  and  C_4 
REMARK    3  A    between atoms: C_4  and  C_5 
REMARK    4  A    between atoms: C_5  and  O_6 
REMARK    5  A    between atoms: O_6  and  C_7 
REMARK    6  A    between atoms: C_10  and  C_11 
REMARK       I    between atoms: C_11  and  N_13 
REMARK    7  A    between atoms: N_13  and  C_14 
REMARK    8  A    between atoms: C_14  and  N_16 
REMARK    9  A    between atoms: N_16  and  N_17 
REMARK       I    between atoms: N_17  and  C_18 
REMARK   10  A    between atoms: C_18  and  C_20 
REMARK   11  A    between atoms: C_23  and  N_24 
REMARK       I    between atoms: N_24  and  C_25 
REMARK   12  A    between atoms: C_25  and  C_27 
ROOT
ATOM      1  N   UNL d   1      29.642 -13.653   0.686  0.00  0.00    -0.264 N 
ATOM      2  C   UNL d   1      28.441 -13.554   1.378  0.00  0.00     0.270 C 
ATOM      3  O   UNL d   1      27.389 -13.199   0.841  0.00  0.00    -0.266 OA
ATOM      4  H   UNL d   1      30.490 -14.025   1.116  0.00  0.00     0.190 HD
ENDROOT
BRANCH   1   5
ATOM      5  N   UNL d   1      29.753 -13.364  -0.736  0.00  0.00    -0.273 N 
ATOM      6  H   UNL d   1      30.298 -12.533  -0.959  0.00  0.00     0.189 HD
BRANCH   5   7
ATOM      7  C   UNL d   1      29.144 -14.242  -1.656  0.00  0.00     0.193 C 
ATOM      8  S   UNL d   1      29.929 -14.584  -3.112  0.00  0.00    -0.039 SA
BRANCH   7   9
ATOM      9  N   UNL d   1      27.892 -14.777  -1.256  0.00  0.00    -0.298 N 
ATOM     10  C   UNL d   1      27.462 -16.123  -1.406  0.00  0.00     0.257 C 
ATOM     11  O   UNL d   1      28.163 -17.007  -1.900  0.00  0.00    -0.267 OA
ATOM     12  H   UNL d   1      27.238 -14.128  -0.848  0.00  0.00     0.171 HD
BRANCH  10  13
ATOM     13  C   UNL d   1      26.082 -16.576  -0.996  0.00  0.00     0.032 A 
ATOM     14  C   UNL d   1      25.986 -17.695  -0.131  0.00  0.00     0.020 A 
ATOM     15  C   UNL d   1      24.749 -18.263   0.217  0.00  0.00     0.038 A 
ATOM     16  C   UNL d   1      23.569 -17.683  -0.236  0.00  0.00     0.068 A 
ATOM     17  C   UNL d   1      23.646 -16.551  -1.050  0.00  0.00     0.038 A 
ATOM     18  C   UNL d   1      24.889 -16.001  -1.431  0.00  0.00     0.020 A 
BRANCH  16  19
ATOM     19  O   UNL d   1      22.409 -18.222   0.254  0.00  0.00    -0.349 OA
BRANCH  19  20
ATOM     20  C   UNL d   1      21.856 -19.324  -0.474  0.00  0.00     0.201 C 
BRANCH  20  21
ATOM     21  C   UNL d   1      20.437 -18.968  -0.917  0.00  0.00     0.194 C 
BRANCH  21  22
ATOM     22  O   UNL d   1      19.558 -20.071  -0.679  0.00  0.00    -0.389 OA
BRANCH  22  23
ATOM     23  C   UNL d   1      19.101 -20.075   0.673  0.00  0.00     0.163 C 
ATOM     24  C   UNL d   1      18.320 -21.346   0.937  0.00  0.00     0.033 C 
ENDBRANCH  22  23
ENDBRANCH  21  22
ENDBRANCH  20  21
ENDBRANCH  19  20
ENDBRANCH  16  19
ENDBRANCH  10  13
ENDBRANCH   7   9
ENDBRANCH   5   7
ENDBRANCH   1   5
BRANCH   2  25
ATOM     25  C   UNL d   1      28.462 -13.866   2.856  0.00  0.00     0.033 A 
ATOM     26  C   UNL d   1      27.385 -13.533   3.700  0.00  0.00     0.019 A 
ATOM     27  C   UNL d   1      27.480 -13.671   5.113  0.00  0.00     0.030 A 
ATOM     28  C   UNL d   1      28.635 -14.201   5.705  0.00  0.00     0.035 A 
ATOM     29  C   UNL d   1      29.695 -14.516   4.846  0.00  0.00     0.030 A 
ATOM     30  C   UNL d   1      29.617 -14.363   3.452  0.00  0.00     0.019 A 
BRANCH  28  31
ATOM     31  N   UNL d   1      28.697 -14.429   7.117  0.00  0.00    -0.323 N 
ATOM     32  C   UNL d   1      28.528 -13.443   8.086  0.00  0.00     0.256 C 
ATOM     33  O   UNL d   1      28.256 -12.257   7.879  0.00  0.00    -0.267 OA
ATOM     34  H   UNL d   1      28.904 -15.372   7.429  0.00  0.00     0.169 HD
BRANCH  32  35
ATOM     35  C   UNL d   1      28.706 -13.788   9.518  0.00  0.00     0.032 A 
ATOM     36  C   UNL d   1      28.148 -12.920  10.474  0.00  0.00     0.017 A 
ATOM     37  C   UNL d   1      28.497 -13.025  11.820  0.00  0.00     0.002 A 
ATOM     38  C   UNL d   1      29.363 -14.035  12.230  0.00  0.00     0.007 A 
ATOM     39  C   UNL d   1      29.923 -14.911  11.290  0.00  0.00    -0.061 A 
ATOM     40  C   UNL d   1      30.931 -15.934  11.717  0.00  0.00     0.048 C 
ATOM     41  C   UNL d   1      29.593 -14.785   9.929  0.00  0.00     0.023 A 
ENDBRANCH  32  35
ENDBRANCH  28  31
ENDBRANCH   2  25
TORSDOF 12
ENDMDL
MODEL 6
REMARK VINA RESULT:    -9.457      6.859     10.854
REMARK INTER + INTRA:         -14.961
REMARK INTER:                 -13.037
REMARK INTRA:                  -1.925
REMARK CONF_INDEPENDENT:        3.580
REMARK UNBOUND:                -1.925
REMARK  12 active torsions:
REMARK  status: ('A' for Active; 'I' for Inactive)
REMARK    1  A    between atoms: C_2  and  O_3 
REMARK    2  A    between atoms: O_3  and  C_4 
REMARK    3  A    between atoms: C_4  and  C_5 
REMARK    4  A    between atoms: C_5  and  O_6 
REMARK    5  A    between atoms: O_6  and  C_7 
REMARK    6  A    between atoms: C_10  and  C_11 
REMARK       I    between atoms: C_11  and  N_13 
REMARK    7  A    between atoms: N_13  and  C_14 
REMARK    8  A    between atoms: C_14  and  N_16 
REMARK    9  A    between atoms: N_16  and  N_17 
REMARK       I    between atoms: N_17  and  C_18 
REMARK   10  A    between atoms: C_18  and  C_20 
REMARK   11  A    between atoms: C_23  and  N_24 
REMARK       I    between atoms: N_24  and  C_25 
REMARK   12  A    between atoms: C_25  and  C_27 
ROOT
ATOM      1  N   UNL d   1      28.455 -16.680  -2.082  0.00  0.00    -0.264 N 
ATOM      2  C   UNL d   1      27.278 -15.943  -2.097  0.00  0.00     0.270 C 
ATOM      3  O   UNL d   1      27.189 -14.837  -2.634  0.00  0.00    -0.266 OA
ATOM      4  H   UNL d   1      28.501 -17.629  -1.709  0.00  0.00     0.190 HD
ENDROOT
BRANCH   1   5
ATOM      5  N   UNL d   1      29.679 -16.214  -2.718  0.00  0.00    -0.273 N 
ATOM      6  H   UNL d   1      30.490 -16.177  -2.102  0.00  0.00     0.189 HD
BRANCH   5   7
ATOM      7  C   UNL d   1      29.649 -15.892  -4.090  0.00  0.00     0.193 C 
ATOM      8  S   UNL d   1      30.430 -16.907  -5.193  0.00  0.00    -0.039 SA
BRANCH   7   9
ATOM      9  N   UNL d   1      28.939 -14.712  -4.428  0.00  0.00    -0.298 N 
ATOM     10  C   UNL d   1      28.319 -14.426  -5.675  0.00  0.00     0.257 C 
ATOM     11  O   UNL d   1      28.315 -15.210  -6.624  0.00  0.00    -0.267 OA
ATOM     12  H   UNL d   1      28.894 -13.998  -3.718  0.00  0.00     0.171 HD
BRANCH  10  13
ATOM     13  C   UNL d   1      27.634 -13.109  -5.949  0.00  0.00     0.032 A 
ATOM     14  C   UNL d   1      26.680 -12.654  -5.004  0.00  0.00     0.020 A 
ATOM     15  C   UNL d   1      25.908 -11.501  -5.223  0.00  0.00     0.038 A 
ATOM     16  C   UNL d   1      26.118 -10.732  -6.363  0.00  0.00     0.068 A 
ATOM     17  C   UNL d   1      27.089 -11.142  -7.279  0.00  0.00     0.038 A 
ATOM     18  C   UNL d   1      27.839 -12.321  -7.079  0.00  0.00     0.020 A 
BRANCH  16  19
ATOM     19  O   UNL d   1      25.415  -9.559  -6.434  0.00  0.00    -0.349 OA
BRANCH  19  20
ATOM     20  C   UNL d   1      24.960  -9.007  -5.194  0.00  0.00     0.201 C 
BRANCH  20  21
ATOM     21  C   UNL d   1      23.603  -8.340  -5.413  0.00  0.00     0.194 C 
BRANCH  21  22
ATOM     22  O   UNL d   1      23.784  -6.988  -5.842  0.00  0.00    -0.389 OA
BRANCH  22  23
ATOM     23  C   UNL d   1      23.029  -6.090  -5.028  0.00  0.00     0.163 C 
ATOM     24  C   UNL d   1      23.959  -5.379  -4.065  0.00  0.00     0.033 C 
ENDBRANCH  22  23
ENDBRANCH  21  22
ENDBRANCH  20  21
ENDBRANCH  19  20
ENDBRANCH  16  19
ENDBRANCH  10  13
ENDBRANCH   7   9
ENDBRANCH   5   7
ENDBRANCH   1   5
BRANCH   2  25
ATOM     25  C   UNL d   1      26.081 -16.531  -1.387  0.00  0.00     0.033 A 
ATOM     26  C   UNL d   1      26.220 -17.502  -0.377  0.00  0.00     0.019 A 
ATOM     27  C   UNL d   1      25.089 -18.176   0.165  0.00  0.00     0.030 A 
ATOM     28  C   UNL d   1      23.792 -17.848  -0.252  0.00  0.00     0.035 A 
ATOM     29  C   UNL d   1      23.680 -16.887  -1.264  0.00  0.00     0.030 A 
ATOM     30  C   UNL d   1      24.791 -16.232  -1.819  0.00  0.00     0.019 A 
BRANCH  28  31
ATOM     31  N   UNL d   1      22.648 -18.457   0.358  0.00  0.00    -0.323 N 
ATOM     32  C   UNL d   1      21.525 -18.903  -0.335  0.00  0.00     0.256 C 
ATOM     33  O   UNL d   1      21.369 -18.885  -1.559  0.00  0.00    -0.267 OA
ATOM     34  H   UNL d   1      22.651 -18.545   1.368  0.00  0.00     0.169 HD
BRANCH  32  35
ATOM     35  C   UNL d   1      20.365 -19.435   0.422  0.00  0.00     0.032 A 
ATOM     36  C   UNL d   1      20.464 -19.479   1.825  0.00  0.00     0.017 A 
ATOM     37  C   UNL d   1      19.543 -20.204   2.580  0.00  0.00     0.002 A 
ATOM     38  C   UNL d   1      18.482 -20.843   1.945  0.00  0.00     0.007 A 
ATOM     39  C   UNL d   1      18.367 -20.803   0.548  0.00  0.00    -0.061 A 
ATOM     40  C   UNL d   1      17.282 -21.574  -0.143  0.00  0.00     0.048 C 
ATOM     41  C   UNL d   1      19.314 -20.097  -0.215  0.00  0.00     0.023 A 
ENDBRANCH  32  35
ENDBRANCH  28  31
ENDBRANCH   2  25
TORSDOF 12
ENDMDL
MODEL 7
REMARK VINA RESULT:    -9.113      7.048     10.318
REMARK INTER + INTRA:         -14.738
REMARK INTER:                 -12.693
REMARK INTRA:                  -2.045
REMARK CONF_INDEPENDENT:        3.580
REMARK UNBOUND:                -2.045
REMARK  12 active torsions:
REMARK  status: ('A' for Active; 'I' for Inactive)
REMARK    1  A    between atoms: C_2  and  O_3 
REMARK    2  A    between atoms: O_3  and  C_4 
REMARK    3  A    between atoms: C_4  and  C_5 
REMARK    4  A    between atoms: C_5  and  O_6 
REMARK    5  A    between atoms: O_6  and  C_7 
REMARK    6  A    between atoms: C_10  and  C_11 
REMARK       I    between atoms: C_11  and  N_13 
REMARK    7  A    between atoms: N_13  and  C_14 
REMARK    8  A    between atoms: C_14  and  N_16 
REMARK    9  A    between atoms: N_16  and  N_17 
REMARK       I    between atoms: N_17  and  C_18 
REMARK   10  A    between atoms: C_18  and  C_20 
REMARK   11  A    between atoms: C_23  and  N_24 
REMARK       I    between atoms: N_24  and  C_25 
REMARK   12  A    between atoms: C_25  and  C_27 
ROOT
ATOM      1  N   UNL d   1      26.818 -14.996  -3.213  0.00  0.00    -0.264 N 
ATOM      2  C   UNL d   1      27.130 -15.903  -2.208  0.00  0.00     0.270 C 
ATOM      3  O   UNL d   1      28.290 -16.207  -1.918  0.00  0.00    -0.266 OA
ATOM      4  H   UNL d   1      25.862 -14.688  -3.393  0.00  0.00     0.190 HD
ENDROOT
BRANCH   1   5
ATOM      5  N   UNL d   1      27.838 -14.313  -3.995  0.00  0.00    -0.273 N 
ATOM      6  H   UNL d   1      27.990 -13.339  -3.737  0.00  0.00     0.189 HD
BRANCH   5   7
ATOM      7  C   UNL d   1      28.527 -15.036  -4.991  0.00  0.00     0.193 C 
ATOM      8  S   UNL d   1      28.600 -14.414  -6.560  0.00  0.00    -0.039 SA
BRANCH   7   9
ATOM      9  N   UNL d   1      29.117 -16.254  -4.566  0.00  0.00    -0.298 N 
ATOM     10  C   UNL d   1      30.034 -17.051  -5.304  0.00  0.00     0.257 C 
ATOM     11  O   UNL d   1      30.444 -16.748  -6.425  0.00  0.00    -0.267 OA
ATOM     12  H   UNL d   1      28.836 -16.596  -3.661  0.00  0.00     0.171 HD
BRANCH  10  13
ATOM     13  C   UNL d   1      30.561 -18.364  -4.779  0.00  0.00     0.032 A 
ATOM     14  C   UNL d   1      30.276 -19.534  -5.527  0.00  0.00     0.020 A 
ATOM     15  C   UNL d   1      30.622 -20.815  -5.065  0.00  0.00     0.038 A 
ATOM     16  C   UNL d   1      31.327 -20.956  -3.875  0.00  0.00     0.068 A 
ATOM     17  C   UNL d   1      31.657 -19.808  -3.151  0.00  0.00     0.038 A 
ATOM     18  C   UNL d   1      31.277 -18.522  -3.594  0.00  0.00     0.020 A 
BRANCH  16  19
ATOM     19  O   UNL d   1      31.735 -22.225  -3.565  0.00  0.00    -0.349 OA
BRANCH  19  20
ATOM     20  C   UNL d   1      31.294 -22.753  -2.309  0.00  0.00     0.201 C 
BRANCH  20  21
ATOM     21  C   UNL d   1      30.520 -24.047  -2.556  0.00  0.00     0.194 C 
BRANCH  21  22
ATOM     22  O   UNL d   1      29.208 -23.748  -3.040  0.00  0.00    -0.389 OA
BRANCH  22  23
ATOM     23  C   UNL d   1      28.230 -24.567  -2.398  0.00  0.00     0.163 C 
ATOM     24  C   UNL d   1      28.643 -26.020  -2.500  0.00  0.00     0.033 C 
ENDBRANCH  22  23
ENDBRANCH  21  22
ENDBRANCH  20  21
ENDBRANCH  19  20
ENDBRANCH  16  19
ENDBRANCH  10  13
ENDBRANCH   7   9
ENDBRANCH   5   7
ENDBRANCH   1   5
BRANCH   2  25
ATOM     25  C   UNL d   1      25.979 -16.557  -1.480  0.00  0.00     0.033 A 
ATOM     26  C   UNL d   1      26.181 -17.605  -0.562  0.00  0.00     0.019 A 
ATOM     27  C   UNL d   1      25.087 -18.331  -0.012  0.00  0.00     0.030 A 
ATOM     28  C   UNL d   1      23.767 -17.982  -0.325  0.00  0.00     0.035 A 
ATOM     29  C   UNL d   1      23.591 -16.944  -1.248  0.00  0.00     0.030 A 
ATOM     30  C   UNL d   1      24.665 -16.236  -1.811  0.00  0.00     0.019 A 
BRANCH  28  31
ATOM     31  N   UNL d   1      22.663 -18.649   0.299  0.00  0.00    -0.323 N 
ATOM     32  C   UNL d   1      21.366 -18.679  -0.210  0.00  0.00     0.256 C 
ATOM     33  O   UNL d   1      20.990 -18.187  -1.277  0.00  0.00    -0.267 OA
ATOM     34  H   UNL d   1      22.838 -19.108   1.186  0.00  0.00     0.169 HD
BRANCH  32  35
ATOM     35  C   UNL d   1      20.289 -19.327   0.578  0.00  0.00     0.032 A 
ATOM     36  C   UNL d   1      20.489 -19.474   1.963  0.00  0.00     0.017 A 
ATOM     37  C   UNL d   1      19.659 -20.302   2.718  0.00  0.00     0.002 A 
ATOM     38  C   UNL d   1      18.588 -20.945   2.105  0.00  0.00     0.007 A 
ATOM     39  C   UNL d   1      18.372 -20.805   0.727  0.00  0.00    -0.061 A 
ATOM     40  C   UNL d   1      17.279 -21.576   0.051  0.00  0.00     0.048 C 
ATOM     41  C   UNL d   1      19.228 -19.993  -0.038  0.00  0.00     0.023 A 
ENDBRANCH  32  35
ENDBRANCH  28  31
ENDBRANCH   2  25
TORSDOF 12
ENDMDL
MODEL 8
REMARK VINA RESULT:    -9.036      6.784     11.080
REMARK INTER + INTRA:         -14.847
REMARK INTER:                 -12.616
REMARK INTRA:                  -2.231
REMARK CONF_INDEPENDENT:        3.580
REMARK UNBOUND:                -2.231
REMARK  12 active torsions:
REMARK  status: ('A' for Active; 'I' for Inactive)
REMARK    1  A    between atoms: C_2  and  O_3 
REMARK    2  A    between atoms: O_3  and  C_4 
REMARK    3  A    between atoms: C_4  and  C_5 
REMARK    4  A    between atoms: C_5  and  O_6 
REMARK    5  A    between atoms: O_6  and  C_7 
REMARK    6  A    between atoms: C_10  and  C_11 
REMARK       I    between atoms: C_11  and  N_13 
REMARK    7  A    between atoms: N_13  and  C_14 
REMARK    8  A    between atoms: C_14  and  N_16 
REMARK    9  A    between atoms: N_16  and  N_17 
REMARK       I    between atoms: N_17  and  C_18 
REMARK   10  A    between atoms: C_18  and  C_20 
REMARK   11  A    between atoms: C_23  and  N_24 
REMARK       I    between atoms: N_24  and  C_25 
REMARK   12  A    between atoms: C_25  and  C_27 
ROOT
ATOM      1  N   UNL d   1      27.394 -15.234  -3.019  0.00  0.00    -0.264 N 
ATOM      2  C   UNL d   1      27.604 -16.157  -2.003  0.00  0.00     0.270 C 
ATOM      3  O   UNL d   1      28.727 -16.548  -1.677  0.00  0.00    -0.266 OA
ATOM      4  H   UNL d   1      26.471 -14.854  -3.229  0.00  0.00     0.190 HD
ENDROOT
BRANCH   1   5
ATOM      5  N   UNL d   1      28.487 -14.637  -3.773  0.00  0.00    -0.273 N 
ATOM      6  H   UNL d   1      29.383 -14.629  -3.288  0.00  0.00     0.189 HD
BRANCH   5   7
ATOM      7  C   UNL d   1      28.232 -14.162  -5.076  0.00  0.00     0.193 C 
ATOM      8  S   UNL d   1      28.616 -15.139  -6.400  0.00  0.00    -0.039 SA
BRANCH   7   9
ATOM      9  N   UNL d   1      27.651 -12.870  -5.155  0.00  0.00    -0.298 N 
ATOM     10  C   UNL d   1      26.380 -12.482  -4.651  0.00  0.00     0.257 C 
ATOM     11  O   UNL d   1      25.627 -13.250  -4.052  0.00  0.00    -0.267 OA
ATOM     12  H   UNL d   1      28.188 -12.168  -5.640  0.00  0.00     0.171 HD
BRANCH  10  13
ATOM     13  C   UNL d   1      25.832 -11.088  -4.840  0.00  0.00     0.032 A 
ATOM     14  C   UNL d   1      25.648 -10.627  -6.167  0.00  0.00     0.020 A 
ATOM     15  C   UNL d   1      25.252  -9.309  -6.449  0.00  0.00     0.038 A 
ATOM     16  C   UNL d   1      24.961  -8.435  -5.407  0.00  0.00     0.068 A 
ATOM     17  C   UNL d   1      25.091  -8.890  -4.093  0.00  0.00     0.038 A 
ATOM     18  C   UNL d   1      25.526 -10.203  -3.808  0.00  0.00     0.020 A 
BRANCH  16  19
ATOM     19  O   UNL d   1      24.460  -7.214  -5.770  0.00  0.00    -0.349 OA
BRANCH  19  20
ATOM     20  C   UNL d   1      23.286  -6.771  -5.081  0.00  0.00     0.201 C 
BRANCH  20  21
ATOM     21  C   UNL d   1      22.476  -5.866  -6.007  0.00  0.00     0.194 C 
BRANCH  21  22
ATOM     22  O   UNL d   1      22.316  -6.488  -7.285  0.00  0.00    -0.389 OA
BRANCH  22  23
ATOM     23  C   UNL d   1      21.071  -6.120  -7.879  0.00  0.00     0.163 C 
ATOM     24  C   UNL d   1      19.975  -6.186  -6.834  0.00  0.00     0.033 C 
ENDBRANCH  22  23
ENDBRANCH  21  22
ENDBRANCH  20  21
ENDBRANCH  19  20
ENDBRANCH  16  19
ENDBRANCH  10  13
ENDBRANCH   7   9
ENDBRANCH   5   7
ENDBRANCH   1   5
BRANCH   2  25
ATOM     25  C   UNL d   1      26.385 -16.715  -1.307  0.00  0.00     0.033 A 
ATOM     26  C   UNL d   1      26.491 -17.559  -0.185  0.00  0.00     0.019 A 
ATOM     27  C   UNL d   1      25.353 -18.218   0.359  0.00  0.00     0.030 A 
ATOM     28  C   UNL d   1      24.076 -18.000  -0.176  0.00  0.00     0.035 A 
ATOM     29  C   UNL d   1      23.997 -17.166  -1.297  0.00  0.00     0.030 A 
ATOM     30  C   UNL d   1      25.117 -16.527  -1.853  0.00  0.00     0.019 A 
BRANCH  28  31
ATOM     31  N   UNL d   1      22.917 -18.588   0.427  0.00  0.00    -0.323 N 
ATOM     32  C   UNL d   1      21.702 -18.787  -0.224  0.00  0.00     0.256 C 
ATOM     33  O   UNL d   1      21.459 -18.537  -1.408  0.00  0.00    -0.267 OA
ATOM     34  H   UNL d   1      22.984 -18.853   1.403  0.00  0.00     0.169 HD
BRANCH  32  35
ATOM     35  C   UNL d   1      20.546 -19.324   0.536  0.00  0.00     0.032 A 
ATOM     36  C   UNL d   1      20.642 -19.348   1.940  0.00  0.00     0.017 A 
ATOM     37  C   UNL d   1      19.728 -20.074   2.703  0.00  0.00     0.002 A 
ATOM     38  C   UNL d   1      18.679 -20.736   2.073  0.00  0.00     0.007 A 
ATOM     39  C   UNL d   1      18.566 -20.717   0.676  0.00  0.00    -0.061 A 
ATOM     40  C   UNL d   1      17.494 -21.512  -0.007  0.00  0.00     0.048 C 
ATOM     41  C   UNL d   1      19.506 -20.009  -0.094  0.00  0.00     0.023 A 
ENDBRANCH  32  35
ENDBRANCH  28  31
ENDBRANCH   2  25
TORSDOF 12
ENDMDL
MODEL 9
REMARK VINA RESULT:    -8.864      2.376     10.715
REMARK INTER + INTRA:         -15.038
REMARK INTER:                 -12.443
REMARK INTRA:                  -2.595
REMARK CONF_INDEPENDENT:        3.580
REMARK UNBOUND:                -2.595
REMARK  12 active torsions:
REMARK  status: ('A' for Active; 'I' for Inactive)
REMARK    1  A    between atoms: C_2  and  O_3 
REMARK    2  A    between atoms: O_3  and  C_4 
REMARK    3  A    between atoms: C_4  and  C_5 
REMARK    4  A    between atoms: C_5  and  O_6 
REMARK    5  A    between atoms: O_6  and  C_7 
REMARK    6  A    between atoms: C_10  and  C_11 
REMARK       I    between atoms: C_11  and  N_13 
REMARK    7  A    between atoms: N_13  and  C_14 
REMARK    8  A    between atoms: C_14  and  N_16 
REMARK    9  A    between atoms: N_16  and  N_17 
REMARK       I    between atoms: N_17  and  C_18 
REMARK   10  A    between atoms: C_18  and  C_20 
REMARK   11  A    between atoms: C_23  and  N_24 
REMARK       I    between atoms: N_24  and  C_25 
REMARK   12  A    between atoms: C_25  and  C_27 
ROOT
ATOM      1  N   UNL d   1      28.096 -14.817  -0.923  0.00  0.00    -0.264 N 
ATOM      2  C   UNL d   1      27.531 -15.597  -1.924  0.00  0.00     0.270 C 
ATOM      3  O   UNL d   1      27.898 -15.543  -3.100  0.00  0.00    -0.266 OA
ATOM      4  H   UNL d   1      27.845 -14.924   0.060  0.00  0.00     0.190 HD
ENDROOT
BRANCH   1   5
ATOM      5  N   UNL d   1      29.185 -13.884  -1.178  0.00  0.00    -0.273 N 
ATOM      6  H   UNL d   1      29.717 -14.074  -2.025  0.00  0.00     0.189 HD
BRANCH   5   7
ATOM      7  C   UNL d   1      29.386 -12.817  -0.279  0.00  0.00     0.193 C 
ATOM      8  S   UNL d   1      29.479 -11.240  -0.879  0.00  0.00    -0.039 SA
BRANCH   7   9
ATOM      9  N   UNL d   1      29.488 -13.177   1.089  0.00  0.00    -0.298 N 
ATOM     10  C   UNL d   1      28.419 -13.555   1.946  0.00  0.00     0.257 C 
ATOM     11  O   UNL d   1      27.248 -13.631   1.573  0.00  0.00    -0.267 OA
ATOM     12  H   UNL d   1      30.410 -13.136   1.494  0.00  0.00     0.171 HD
BRANCH  10  13
ATOM     13  C   UNL d   1      28.632 -13.867   3.407  0.00  0.00     0.032 A 
ATOM     14  C   UNL d   1      27.588 -13.542   4.309  0.00  0.00     0.020 A 
ATOM     15  C   UNL d   1      27.733 -13.686   5.699  0.00  0.00     0.038 A 
ATOM     16  C   UNL d   1      28.903 -14.227   6.221  0.00  0.00     0.068 A 
ATOM     17  C   UNL d   1      29.922 -14.597   5.341  0.00  0.00     0.038 A 
ATOM     18  C   UNL d   1      29.793 -14.417   3.946  0.00  0.00     0.020 A 
BRANCH  16  19
ATOM     19  O   UNL d   1      28.910 -14.452   7.571  0.00  0.00    -0.349 OA
BRANCH  19  20
ATOM     20  C   UNL d   1      29.966 -13.837   8.319  0.00  0.00     0.201 C 
BRANCH  20  21
ATOM     21  C   UNL d   1      30.180 -12.415   7.802  0.00  0.00     0.194 C 
BRANCH  21  22
ATOM     22  O   UNL d   1      29.041 -11.606   8.109  0.00  0.00    -0.389 OA
BRANCH  22  23
ATOM     23  C   UNL d   1      28.914 -10.532   7.176  0.00  0.00     0.163 C 
ATOM     24  C   UNL d   1      29.956 -10.684   6.087  0.00  0.00     0.033 C 
ENDBRANCH  22  23
ENDBRANCH  21  22
ENDBRANCH  20  21
ENDBRANCH  19  20
ENDBRANCH  16  19
ENDBRANCH  10  13
ENDBRANCH   7   9
ENDBRANCH   5   7
ENDBRANCH   1   5
BRANCH   2  25
ATOM     25  C   UNL d   1      26.397 -16.515  -1.533  0.00  0.00     0.033 A 
ATOM     26  C   UNL d   1      25.173 -16.520  -2.229  0.00  0.00     0.019 A 
ATOM     27  C   UNL d   1      24.052 -17.258  -1.754  0.00  0.00     0.030 A 
ATOM     28  C   UNL d   1      24.153 -18.051  -0.603  0.00  0.00     0.035 A 
ATOM     29  C   UNL d   1      25.376 -18.021   0.078  0.00  0.00     0.030 A 
ATOM     30  C   UNL d   1      26.481 -17.280  -0.373  0.00  0.00     0.019 A 
BRANCH  28  31
ATOM     31  N   UNL d   1      23.056 -18.867  -0.175  0.00  0.00    -0.323 N 
ATOM     32  C   UNL d   1      21.713 -18.563  -0.388  0.00  0.00     0.256 C 
ATOM     33  O   UNL d   1      21.276 -17.588  -1.007  0.00  0.00    -0.267 OA
ATOM     34  H   UNL d   1      23.277 -19.712   0.340  0.00  0.00     0.169 HD
BRANCH  32  35
ATOM     35  C   UNL d   1      20.666 -19.445   0.183  0.00  0.00     0.032 A 
ATOM     36  C   UNL d   1      19.540 -19.724  -0.613  0.00  0.00     0.017 A 
ATOM     37  C   UNL d   1      18.405 -20.312  -0.058  0.00  0.00     0.002 A 
ATOM     38  C   UNL d   1      18.405 -20.677   1.285  0.00  0.00     0.007 A 
ATOM     39  C   UNL d   1      19.521 -20.411   2.090  0.00  0.00    -0.061 A 
ATOM     40  C   UNL d   1      19.484 -20.713   3.558  0.00  0.00     0.048 C 
ATOM     41  C   UNL d   1      20.655 -19.790   1.536  0.00  0.00     0.023 A 
ENDBRANCH  32  35
ENDBRANCH  28  31
ENDBRANCH   2  25
TORSDOF 12
ENDMDL
