MODEL 1
REMARK VINA RESULT:   -10.374      0.000      0.000
REMARK INTER + INTRA:         -17.424
REMARK INTER:                 -15.147
REMARK INTRA:                  -2.277
REMARK CONF_INDEPENDENT:        4.773
REMARK UNBOUND:                -2.277
REMARK  16 active torsions:
REMARK  status: ('A' for Active; 'I' for Inactive)
REMARK    1  A    between atoms: C_2  and  C_3 
REMARK       I    between atoms: C_2  and  N_26 
REMARK    2  A    between atoms: C_3  and  C_4 
REMARK    3  A    between atoms: C_4  and  C_5 
REMARK    4  A    between atoms: C_5  and  C_6 
REMARK    5  A    between atoms: C_6  and  C_7 
REMARK    6  A    between atoms: C_7  and  C_8 
REMARK    7  A    between atoms: C_8  and  C_9 
REMARK    8  A    between atoms: C_9  and  C_10 
REMARK       I    between atoms: C_10  and  N_12 
REMARK    9  A    between atoms: N_12  and  C_13 
REMARK   10  A    between atoms: C_16  and  O_17 
REMARK   11  A    between atoms: O_17  and  C_18 
REMARK   12  A    between atoms: C_18  and  C_19 
REMARK   13  A    between atoms: N_26  and  C_27 
REMARK   14  A    between atoms: C_30  and  O_31 
REMARK   15  A    between atoms: O_31  and  C_32 
REMARK   16  A    between atoms: C_32  and  C_33 
ROOT
ATOM      1  C   UNL d   1      28.049 -13.028   0.836  0.00  0.00     0.000 C 
ENDROOT
BRANCH   1   2
ATOM      2  C   UNL d   1      26.649 -13.006   1.423  0.00  0.00     0.000 C 
BRANCH   2   3
ATOM      3  C   UNL d   1      26.318 -11.605   1.927  0.00  0.00     0.009 C 
BRANCH   3   4
ATOM      4  C   UNL d   1      27.541 -11.001   2.582  0.00  0.00     0.103 C 
BRANCH   4   5
ATOM      5  C   UNL d   1      27.221  -9.881   3.557  0.00  0.00     0.222 C 
ATOM      6  O   UNL d   1      26.691  -8.823   3.198  0.00  0.00    -0.273 OA
ATOM      7  N   UNL d   1      27.446 -10.100   4.895  0.00  0.00    -0.327 N 
ATOM      8  H   UNL d   1      27.027  -9.407   5.503  0.00  0.00     0.169 HD
BRANCH   7   9
ATOM      9  C   UNL d   1      28.141 -11.167   5.485  0.00  0.00     0.034 A 
ATOM     10  C   UNL d   1      29.440 -10.985   5.956  0.00  0.00     0.032 A 
ATOM     11  C   UNL d   1      30.131 -12.070   6.514  0.00  0.00     0.039 A 
ATOM     12  C   UNL d   1      29.512 -13.319   6.649  0.00  0.00     0.069 A 
ATOM     13  C   UNL d   1      28.231 -13.496   6.153  0.00  0.00     0.039 A 
ATOM     14  C   UNL d   1      27.577 -12.439   5.541  0.00  0.00     0.032 A 
BRANCH  12  15
ATOM     15  O   UNL d   1      30.240 -14.303   7.252  0.00  0.00    -0.349 OA
BRANCH  15  16
ATOM     16  C   UNL d   1      31.051 -13.900   8.370  0.00  0.00     0.207 C 
BRANCH  16  17
ATOM     17  C   UNL d   1      30.207 -13.883   9.643  0.00  0.00     0.145 C 
ATOM     18  C   UNL d   1      29.010 -14.820   9.595  0.00  0.00     0.036 C 
ATOM     19  C   UNL d   1      27.979 -14.089  10.412  0.00  0.00     0.029 C 
ATOM     20  C   UNL d   1      28.302 -12.635  10.150  0.00  0.00     0.168 C 
ATOM     21  O   UNL d   1      29.704 -12.555   9.881  0.00  0.00    -0.384 OA
ENDBRANCH  16  17
ENDBRANCH  15  16
ENDBRANCH  12  15
ENDBRANCH   7   9
ENDBRANCH   4   5
ENDBRANCH   3   4
ENDBRANCH   2   3
ENDBRANCH   1   2
BRANCH   1  22
ATOM     22  C   UNL d   1      28.785 -14.298   1.251  0.00  0.00     0.000 C 
BRANCH  22  23
ATOM     23  C   UNL d   1      28.994 -15.194   0.041  0.00  0.00     0.009 C 
BRANCH  23  24
ATOM     24  C   UNL d   1      28.364 -16.581   0.212  0.00  0.00     0.103 C 
BRANCH  24  25
ATOM     25  C   UNL d   1      26.914 -16.524  -0.237  0.00  0.00     0.222 C 
ATOM     26  O   UNL d   1      26.505 -15.587  -0.928  0.00  0.00    -0.273 OA
ATOM     27  N   UNL d   1      26.111 -17.561   0.209  0.00  0.00    -0.327 N 
ATOM     28  H   UNL d   1      26.449 -18.178   0.937  0.00  0.00     0.169 HD
BRANCH  27  29
ATOM     29  C   UNL d   1      24.760 -17.692  -0.194  0.00  0.00     0.034 A 
ATOM     30  C   UNL d   1      24.004 -16.573  -0.547  0.00  0.00     0.032 A 
ATOM     31  C   UNL d   1      22.642 -16.721  -0.869  0.00  0.00     0.039 A 
ATOM     32  C   UNL d   1      22.034 -17.983  -0.865  0.00  0.00     0.069 A 
ATOM     33  C   UNL d   1      22.796 -19.091  -0.513  0.00  0.00     0.039 A 
ATOM     34  C   UNL d   1      24.144 -18.945  -0.187  0.00  0.00     0.032 A 
BRANCH  32  35
ATOM     35  O   UNL d   1      20.706 -18.026  -1.201  0.00  0.00    -0.349 OA
BRANCH  35  36
ATOM     36  C   UNL d   1      20.091 -19.325  -1.203  0.00  0.00     0.207 C 
BRANCH  36  37
ATOM     37  C   UNL d   1      19.153 -19.494   0.003  0.00  0.00     0.145 C 
ATOM     38  C   UNL d   1      19.892 -19.775   1.308  0.00  0.00     0.036 C 
ATOM     39  C   UNL d   1      18.911 -20.630   2.074  0.00  0.00     0.029 C 
ATOM     40  C   UNL d   1      18.206 -21.398   0.981  0.00  0.00     0.168 C 
ATOM     41  O   UNL d   1      18.241 -20.589  -0.194  0.00  0.00    -0.384 OA
ENDBRANCH  36  37
ENDBRANCH  35  36
ENDBRANCH  32  35
ENDBRANCH  27  29
ENDBRANCH  24  25
ENDBRANCH  23  24
ENDBRANCH  22  23
ENDBRANCH   1  22
TORSDOF 16
ENDMDL
MODEL 2
REMARK VINA RESULT:    -9.664      5.290     10.615
REMARK INTER + INTRA:         -17.424
REMARK INTER:                 -14.437
REMARK INTRA:                  -2.987
REMARK CONF_INDEPENDENT:        4.773
REMARK UNBOUND:                -2.987
REMARK  16 active torsions:
REMARK  status: ('A' for Active; 'I' for Inactive)
REMARK    1  A    between atoms: C_2  and  C_3 
REMARK       I    between atoms: C_2  and  N_26 
REMARK    2  A    between atoms: C_3  and  C_4 
REMARK    3  A    between atoms: C_4  and  C_5 
REMARK    4  A    between atoms: C_5  and  C_6 
REMARK    5  A    between atoms: C_6  and  C_7 
REMARK    6  A    between atoms: C_7  and  C_8 
REMARK    7  A    between atoms: C_8  and  C_9 
REMARK    8  A    between atoms: C_9  and  C_10 
REMARK       I    between atoms: C_10  and  N_12 
REMARK    9  A    between atoms: N_12  and  C_13 
REMARK   10  A    between atoms: C_16  and  O_17 
REMARK   11  A    between atoms: O_17  and  C_18 
REMARK   12  A    between atoms: C_18  and  C_19 
REMARK   13  A    between atoms: N_26  and  C_27 
REMARK   14  A    between atoms: C_30  and  O_31 
REMARK   15  A    between atoms: O_31  and  C_32 
REMARK   16  A    between atoms: C_32  and  C_33 
ROOT
ATOM      1  C   UNL d   1      27.264 -13.609  -1.797  0.00  0.00     0.000 C 
ENDROOT
BRANCH   1   2
ATOM      2  C   UNL d   1      27.540 -13.434  -0.315  0.00  0.00     0.000 C 
BRANCH   2   3
ATOM      3  C   UNL d   1      26.747 -14.459   0.488  0.00  0.00     0.009 C 
BRANCH   3   4
ATOM      4  C   UNL d   1      27.671 -15.564   0.950  0.00  0.00     0.103 C 
BRANCH   4   5
ATOM      5  C   UNL d   1      28.306 -16.345  -0.188  0.00  0.00     0.222 C 
ATOM      6  O   UNL d   1      29.518 -16.292  -0.430  0.00  0.00    -0.273 OA
ATOM      7  N   UNL d   1      27.513 -17.206  -0.907  0.00  0.00    -0.327 N 
ATOM      8  H   UNL d   1      28.029 -17.839  -1.506  0.00  0.00     0.169 HD
BRANCH   7   9
ATOM      9  C   UNL d   1      26.115 -17.319  -0.869  0.00  0.00     0.034 A 
ATOM     10  C   UNL d   1      25.319 -16.432  -1.593  0.00  0.00     0.032 A 
ATOM     11  C   UNL d   1      23.922 -16.539  -1.519  0.00  0.00     0.039 A 
ATOM     12  C   UNL d   1      23.322 -17.557  -0.769  0.00  0.00     0.069 A 
ATOM     13  C   UNL d   1      24.122 -18.415  -0.031  0.00  0.00     0.039 A 
ATOM     14  C   UNL d   1      25.499 -18.263  -0.053  0.00  0.00     0.032 A 
BRANCH  12  15
ATOM     15  O   UNL d   1      21.959 -17.619  -0.796  0.00  0.00    -0.349 OA
BRANCH  15  16
ATOM     16  C   UNL d   1      21.386 -18.927  -0.977  0.00  0.00     0.207 C 
BRANCH  16  17
ATOM     17  C   UNL d   1      20.054 -19.016  -0.235  0.00  0.00     0.145 C 
ATOM     18  C   UNL d   1      20.200 -19.331   1.247  0.00  0.00     0.036 C 
ATOM     19  C   UNL d   1      18.973 -20.152   1.537  0.00  0.00     0.029 C 
ATOM     20  C   UNL d   1      18.731 -20.880   0.233  0.00  0.00     0.168 C 
ATOM     21  O   UNL d   1      19.236 -20.049  -0.815  0.00  0.00    -0.384 OA
ENDBRANCH  16  17
ENDBRANCH  15  16
ENDBRANCH  12  15
ENDBRANCH   7   9
ENDBRANCH   4   5
ENDBRANCH   3   4
ENDBRANCH   2   3
ENDBRANCH   1   2
BRANCH   1  22
ATOM     22  C   UNL d   1      26.069 -12.762  -2.224  0.00  0.00     0.000 C 
BRANCH  22  23
ATOM     23  C   UNL d   1      25.201 -13.543  -3.197  0.00  0.00     0.009 C 
BRANCH  23  24
ATOM     24  C   UNL d   1      25.678 -13.423  -4.649  0.00  0.00     0.103 C 
BRANCH  24  25
ATOM     25  C   UNL d   1      26.545 -14.623  -4.986  0.00  0.00     0.222 C 
ATOM     26  O   UNL d   1      26.073 -15.590  -5.591  0.00  0.00    -0.273 OA
ATOM     27  N   UNL d   1      27.856 -14.557  -4.542  0.00  0.00    -0.327 N 
ATOM     28  H   UNL d   1      28.122 -13.842  -3.877  0.00  0.00     0.169 HD
BRANCH  27  29
ATOM     29  C   UNL d   1      28.806 -15.559  -4.851  0.00  0.00     0.034 A 
ATOM     30  C   UNL d   1      29.243 -16.460  -3.879  0.00  0.00     0.032 A 
ATOM     31  C   UNL d   1      30.245 -17.398  -4.191  0.00  0.00     0.039 A 
ATOM     32  C   UNL d   1      30.796 -17.460  -5.477  0.00  0.00     0.069 A 
ATOM     33  C   UNL d   1      30.354 -16.559  -6.439  0.00  0.00     0.039 A 
ATOM     34  C   UNL d   1      29.367 -15.625  -6.129  0.00  0.00     0.032 A 
BRANCH  32  35
ATOM     35  O   UNL d   1      31.760 -18.412  -5.687  0.00  0.00    -0.349 OA
BRANCH  35  36
ATOM     36  C   UNL d   1      31.327 -19.781  -5.628  0.00  0.00     0.207 C 
BRANCH  36  37
ATOM     37  C   UNL d   1      30.935 -20.298  -7.022  0.00  0.00     0.145 C 
ATOM     38  C   UNL d   1      32.080 -20.995  -7.751  0.00  0.00     0.036 C 
ATOM     39  C   UNL d   1      31.783 -20.702  -9.202  0.00  0.00     0.029 C 
ATOM     40  C   UNL d   1      31.135 -19.338  -9.147  0.00  0.00     0.168 C 
ATOM     41  O   UNL d   1      30.502 -19.223  -7.873  0.00  0.00    -0.384 OA
ENDBRANCH  36  37
ENDBRANCH  35  36
ENDBRANCH  32  35
ENDBRANCH  27  29
ENDBRANCH  24  25
ENDBRANCH  23  24
ENDBRANCH  22  23
ENDBRANCH   1  22
TORSDOF 16
ENDMDL
MODEL 3
REMARK VINA RESULT:    -9.432      3.086      5.798
REMARK INTER + INTRA:         -17.010
REMARK INTER:                 -14.205
REMARK INTRA:                  -2.805
REMARK CONF_INDEPENDENT:        4.773
REMARK UNBOUND:                -2.805
REMARK  16 active torsions:
REMARK  status: ('A' for Active; 'I' for Inactive)
REMARK    1  A    between atoms: C_2  and  C_3 
REMARK       I    between atoms: C_2  and  N_26 
REMARK    2  A    between atoms: C_3  and  C_4 
REMARK    3  A    between atoms: C_4  and  C_5 
REMARK    4  A    between atoms: C_5  and  C_6 
REMARK    5  A    between atoms: C_6  and  C_7 
REMARK    6  A    between atoms: C_7  and  C_8 
REMARK    7  A    between atoms: C_8  and  C_9 
REMARK    8  A    between atoms: C_9  and  C_10 
REMARK       I    between atoms: C_10  and  N_12 
REMARK    9  A    between atoms: N_12  and  C_13 
REMARK   10  A    between atoms: C_16  and  O_17 
REMARK   11  A    between atoms: O_17  and  C_18 
REMARK   12  A    between atoms: C_18  and  C_19 
REMARK   13  A    between atoms: N_26  and  C_27 
REMARK   14  A    between atoms: C_30  and  O_31 
REMARK   15  A    between atoms: O_31  and  C_32 
REMARK   16  A    between atoms: C_32  and  C_33 
ROOT
ATOM      1  C   UNL d   1      29.445 -14.749  -4.620  0.00  0.00     0.000 C 
ENDROOT
BRANCH   1   2
ATOM      2  C   UNL d   1      30.750 -15.413  -5.017  0.00  0.00     0.000 C 
BRANCH   2   3
ATOM      3  C   UNL d   1      31.052 -16.574  -4.074  0.00  0.00     0.009 C 
BRANCH   3   4
ATOM      4  C   UNL d   1      30.067 -16.560  -2.925  0.00  0.00     0.103 C 
BRANCH   4   5
ATOM      5  C   UNL d   1      30.216 -17.740  -1.981  0.00  0.00     0.222 C 
ATOM      6  O   UNL d   1      30.776 -18.790  -2.318  0.00  0.00    -0.273 OA
ATOM      7  N   UNL d   1      29.792 -17.592  -0.682  0.00  0.00    -0.327 N 
ATOM      8  H   UNL d   1      30.101 -18.328  -0.060  0.00  0.00     0.169 HD
BRANCH   7   9
ATOM      9  C   UNL d   1      29.033 -16.541  -0.142  0.00  0.00     0.034 A 
ATOM     10  C   UNL d   1      27.787 -16.796   0.428  0.00  0.00     0.032 A 
ATOM     11  C   UNL d   1      27.028 -15.731   0.935  0.00  0.00     0.039 A 
ATOM     12  C   UNL d   1      27.531 -14.424   0.920  0.00  0.00     0.069 A 
ATOM     13  C   UNL d   1      28.758 -14.179   0.326  0.00  0.00     0.039 A 
ATOM     14  C   UNL d   1      29.475 -15.225  -0.234  0.00  0.00     0.032 A 
BRANCH  12  15
ATOM     15  O   UNL d   1      26.749 -13.458   1.482  0.00  0.00    -0.349 OA
BRANCH  15  16
ATOM     16  C   UNL d   1      27.030 -13.132   2.855  0.00  0.00     0.207 C 
BRANCH  16  17
ATOM     17  C   UNL d   1      27.899 -14.220   3.480  0.00  0.00     0.145 C 
ATOM     18  C   UNL d   1      27.626 -14.446   4.959  0.00  0.00     0.036 C 
ATOM     19  C   UNL d   1      28.981 -14.822   5.496  0.00  0.00     0.029 C 
ATOM     20  C   UNL d   1      29.928 -14.037   4.617  0.00  0.00     0.168 C 
ATOM     21  O   UNL d   1      29.291 -13.874   3.348  0.00  0.00    -0.384 OA
ENDBRANCH  16  17
ENDBRANCH  15  16
ENDBRANCH  12  15
ENDBRANCH   7   9
ENDBRANCH   4   5
ENDBRANCH   3   4
ENDBRANCH   2   3
ENDBRANCH   1   2
BRANCH   1  22
ATOM     22  C   UNL d   1      28.280 -15.338  -5.409  0.00  0.00     0.000 C 
BRANCH  22  23
ATOM     23  C   UNL d   1      27.028 -14.507  -5.184  0.00  0.00     0.009 C 
BRANCH  23  24
ATOM     24  C   UNL d   1      26.878 -14.039  -3.733  0.00  0.00     0.103 C 
BRANCH  24  25
ATOM     25  C   UNL d   1      25.668 -14.720  -3.116  0.00  0.00     0.222 C 
ATOM     26  O   UNL d   1      24.525 -14.387  -3.441  0.00  0.00    -0.273 OA
ATOM     27  N   UNL d   1      25.949 -15.688  -2.165  0.00  0.00    -0.327 N 
ATOM     28  H   UNL d   1      26.887 -15.765  -1.793  0.00  0.00     0.169 HD
BRANCH  27  29
ATOM     29  C   UNL d   1      24.933 -16.467  -1.563  0.00  0.00     0.034 A 
ATOM     30  C   UNL d   1      23.637 -15.969  -1.417  0.00  0.00     0.032 A 
ATOM     31  C   UNL d   1      22.664 -16.732  -0.746  0.00  0.00     0.039 A 
ATOM     32  C   UNL d   1      22.969 -18.003  -0.241  0.00  0.00     0.069 A 
ATOM     33  C   UNL d   1      24.261 -18.490  -0.392  0.00  0.00     0.039 A 
ATOM     34  C   UNL d   1      25.228 -17.732  -1.051  0.00  0.00     0.032 A 
BRANCH  32  35
ATOM     35  O   UNL d   1      21.953 -18.673   0.390  0.00  0.00    -0.349 OA
BRANCH  35  36
ATOM     36  C   UNL d   1      20.997 -19.329  -0.461  0.00  0.00     0.207 C 
BRANCH  36  37
ATOM     37  C   UNL d   1      19.632 -19.454   0.236  0.00  0.00     0.145 C 
ATOM     38  C   UNL d   1      19.714 -20.110   1.612  0.00  0.00     0.036 C 
ATOM     39  C   UNL d   1      18.382 -20.811   1.730  0.00  0.00     0.029 C 
ATOM     40  C   UNL d   1      18.076 -21.200   0.303  0.00  0.00     0.168 C 
ATOM     41  O   UNL d   1      18.720 -20.248  -0.542  0.00  0.00    -0.384 OA
ENDBRANCH  36  37
ENDBRANCH  35  36
ENDBRANCH  32  35
ENDBRANCH  27  29
ENDBRANCH  24  25
ENDBRANCH  23  24
ENDBRANCH  22  23
ENDBRANCH   1  22
TORSDOF 16
ENDMDL
MODEL 4
REMARK VINA RESULT:    -9.273      5.164      9.041
REMARK INTER + INTRA:         -17.124
REMARK INTER:                 -14.046
REMARK INTRA:                  -3.078
REMARK CONF_INDEPENDENT:        4.773
REMARK UNBOUND:                -3.078
REMARK  16 active torsions:
REMARK  status: ('A' for Active; 'I' for Inactive)
REMARK    1  A    between atoms: C_2  and  C_3 
REMARK       I    between atoms: C_2  and  N_26 
REMARK    2  A    between atoms: C_3  and  C_4 
REMARK    3  A    between atoms: C_4  and  C_5 
REMARK    4  A    between atoms: C_5  and  C_6 
REMARK    5  A    between atoms: C_6  and  C_7 
REMARK    6  A    between atoms: C_7  and  C_8 
REMARK    7  A    between atoms: C_8  and  C_9 
REMARK    8  A    between atoms: C_9  and  C_10 
REMARK       I    between atoms: C_10  and  N_12 
REMARK    9  A    between atoms: N_12  and  C_13 
REMARK   10  A    between atoms: C_16  and  O_17 
REMARK   11  A    between atoms: O_17  and  C_18 
REMARK   12  A    between atoms: C_18  and  C_19 
REMARK   13  A    between atoms: N_26  and  C_27 
REMARK   14  A    between atoms: C_30  and  O_31 
REMARK   15  A    between atoms: O_31  and  C_32 
REMARK   16  A    between atoms: C_32  and  C_33 
ROOT
ATOM      1  C   UNL d   1      27.728 -13.201  -0.681  0.00  0.00     0.000 C 
ENDROOT
BRANCH   1   2
ATOM      2  C   UNL d   1      26.873 -13.490  -1.900  0.00  0.00     0.000 C 
BRANCH   2   3
ATOM      3  C   UNL d   1      26.891 -12.294  -2.846  0.00  0.00     0.009 C 
BRANCH   3   4
ATOM      4  C   UNL d   1      26.155 -12.646  -4.121  0.00  0.00     0.103 C 
BRANCH   4   5
ATOM      5  C   UNL d   1      25.435 -13.982  -4.061  0.00  0.00     0.222 C 
ATOM      6  O   UNL d   1      24.281 -14.092  -3.631  0.00  0.00    -0.273 OA
ATOM      7  N   UNL d   1      26.064 -15.084  -4.590  0.00  0.00    -0.327 N 
ATOM      8  H   UNL d   1      25.460 -15.888  -4.704  0.00  0.00     0.169 HD
BRANCH   7   9
ATOM      9  C   UNL d   1      27.399 -15.191  -5.007  0.00  0.00     0.034 A 
ATOM     10  C   UNL d   1      28.360 -15.733  -4.155  0.00  0.00     0.032 A 
ATOM     11  C   UNL d   1      29.696 -15.805  -4.577  0.00  0.00     0.039 A 
ATOM     12  C   UNL d   1      30.063 -15.385  -5.861  0.00  0.00     0.069 A 
ATOM     13  C   UNL d   1      29.106 -14.823  -6.688  0.00  0.00     0.039 A 
ATOM     14  C   UNL d   1      27.800 -14.692  -6.243  0.00  0.00     0.032 A 
BRANCH  12  15
ATOM     15  O   UNL d   1      31.374 -15.541  -6.206  0.00  0.00    -0.349 OA
BRANCH  15  16
ATOM     16  C   UNL d   1      31.635 -16.347  -7.369  0.00  0.00     0.207 C 
BRANCH  16  17
ATOM     17  C   UNL d   1      31.799 -17.809  -6.960  0.00  0.00     0.145 C 
ATOM     18  C   UNL d   1      30.780 -18.740  -7.600  0.00  0.00     0.036 C 
ATOM     19  C   UNL d   1      30.564 -19.782  -6.536  0.00  0.00     0.029 C 
ATOM     20  C   UNL d   1      30.753 -19.004  -5.252  0.00  0.00     0.168 C 
ATOM     21  O   UNL d   1      31.663 -17.939  -5.533  0.00  0.00    -0.384 OA
ENDBRANCH  16  17
ENDBRANCH  15  16
ENDBRANCH  12  15
ENDBRANCH   7   9
ENDBRANCH   4   5
ENDBRANCH   3   4
ENDBRANCH   2   3
ENDBRANCH   1   2
BRANCH   1  22
ATOM     22  C   UNL d   1      27.192 -13.940   0.540  0.00  0.00     0.000 C 
BRANCH  22  23
ATOM     23  C   UNL d   1      28.301 -14.760   1.178  0.00  0.00     0.009 C 
BRANCH  23  24
ATOM     24  C   UNL d   1      28.782 -15.908   0.284  0.00  0.00     0.103 C 
BRANCH  24  25
ATOM     25  C   UNL d   1      27.591 -16.494  -0.454  0.00  0.00     0.222 C 
ATOM     26  O   UNL d   1      27.646 -16.708  -1.668  0.00  0.00    -0.273 OA
ATOM     27  N   UNL d   1      26.465 -16.727   0.320  0.00  0.00    -0.327 N 
ATOM     28  H   UNL d   1      26.411 -16.338   1.253  0.00  0.00     0.169 HD
BRANCH  27  29
ATOM     29  C   UNL d   1      25.307 -17.346  -0.207  0.00  0.00     0.034 A 
ATOM     30  C   UNL d   1      24.542 -16.720  -1.193  0.00  0.00     0.032 A 
ATOM     31  C   UNL d   1      23.353 -17.321  -1.645  0.00  0.00     0.039 A 
ATOM     32  C   UNL d   1      22.933 -18.557  -1.137  0.00  0.00     0.069 A 
ATOM     33  C   UNL d   1      23.701 -19.172  -0.156  0.00  0.00     0.039 A 
ATOM     34  C   UNL d   1      24.876 -18.575   0.298  0.00  0.00     0.032 A 
BRANCH  32  35
ATOM     35  O   UNL d   1      21.766 -19.066  -1.645  0.00  0.00    -0.349 OA
BRANCH  35  36
ATOM     36  C   UNL d   1      20.571 -18.793  -0.894  0.00  0.00     0.207 C 
BRANCH  36  37
ATOM     37  C   UNL d   1      20.198 -19.985   0.003  0.00  0.00     0.145 C 
ATOM     38  C   UNL d   1      18.743 -20.420  -0.145  0.00  0.00     0.036 C 
ATOM     39  C   UNL d   1      18.409 -20.950   1.229  0.00  0.00     0.029 C 
ATOM     40  C   UNL d   1      19.248 -20.084   2.139  0.00  0.00     0.168 C 
ATOM     41  O   UNL d   1      20.392 -19.672   1.393  0.00  0.00    -0.384 OA
ENDBRANCH  36  37
ENDBRANCH  35  36
ENDBRANCH  32  35
ENDBRANCH  27  29
ENDBRANCH  24  25
ENDBRANCH  23  24
ENDBRANCH  22  23
ENDBRANCH   1  22
TORSDOF 16
ENDMDL
MODEL 5
REMARK VINA RESULT:    -9.072      5.607      8.334
REMARK INTER + INTRA:         -17.441
REMARK INTER:                 -13.845
REMARK INTRA:                  -3.596
REMARK CONF_INDEPENDENT:        4.773
REMARK UNBOUND:                -3.596
REMARK  16 active torsions:
REMARK  status: ('A' for Active; 'I' for Inactive)
REMARK    1  A    between atoms: C_2  and  C_3 
REMARK       I    between atoms: C_2  and  N_26 
REMARK    2  A    between atoms: C_3  and  C_4 
REMARK    3  A    between atoms: C_4  and  C_5 
REMARK    4  A    between atoms: C_5  and  C_6 
REMARK    5  A    between atoms: C_6  and  C_7 
REMARK    6  A    between atoms: C_7  and  C_8 
REMARK    7  A    between atoms: C_8  and  C_9 
REMARK    8  A    between atoms: C_9  and  C_10 
REMARK       I    between atoms: C_10  and  N_12 
REMARK    9  A    between atoms: N_12  and  C_13 
REMARK   10  A    between atoms: C_16  and  O_17 
REMARK   11  A    between atoms: O_17  and  C_18 
REMARK   12  A    between atoms: C_18  and  C_19 
REMARK   13  A    between atoms: N_26  and  C_27 
REMARK   14  A    between atoms: C_30  and  O_31 
REMARK   15  A    between atoms: O_31  and  C_32 
REMARK   16  A    between atoms: C_32  and  C_33 
ROOT
ATOM      1  C   UNL d   1      30.356 -16.573  -2.986  0.00  0.00     0.000 C 
ENDROOT
BRANCH   1   2
ATOM      2  C   UNL d   1      31.091 -15.340  -3.479  0.00  0.00     0.000 C 
BRANCH   2   3
ATOM      3  C   UNL d   1      31.041 -15.277  -5.002  0.00  0.00     0.009 C 
BRANCH   3   4
ATOM      4  C   UNL d   1      31.350 -13.868  -5.460  0.00  0.00     0.103 C 
BRANCH   4   5
ATOM      5  C   UNL d   1      31.058 -13.627  -6.931  0.00  0.00     0.222 C 
ATOM      6  O   UNL d   1      31.954 -13.416  -7.757  0.00  0.00    -0.273 OA
ATOM      7  N   UNL d   1      29.759 -13.740  -7.363  0.00  0.00    -0.327 N 
ATOM      8  H   UNL d   1      29.660 -13.772  -8.370  0.00  0.00     0.169 HD
BRANCH   7   9
ATOM      9  C   UNL d   1      28.601 -13.851  -6.578  0.00  0.00     0.034 A 
ATOM     10  C   UNL d   1      28.152 -15.104  -6.162  0.00  0.00     0.032 A 
ATOM     11  C   UNL d   1      26.976 -15.200  -5.405  0.00  0.00     0.039 A 
ATOM     12  C   UNL d   1      26.277 -14.049  -5.019  0.00  0.00     0.069 A 
ATOM     13  C   UNL d   1      26.717 -12.812  -5.462  0.00  0.00     0.039 A 
ATOM     14  C   UNL d   1      27.841 -12.727  -6.267  0.00  0.00     0.032 A 
BRANCH  12  15
ATOM     15  O   UNL d   1      25.174 -14.232  -4.238  0.00  0.00    -0.349 OA
BRANCH  15  16
ATOM     16  C   UNL d   1      25.377 -14.951  -3.009  0.00  0.00     0.207 C 
BRANCH  16  17
ATOM     17  C   UNL d   1      25.713 -13.973  -1.885  0.00  0.00     0.145 C 
ATOM     18  C   UNL d   1      26.740 -12.921  -2.278  0.00  0.00     0.036 C 
ATOM     19  C   UNL d   1      27.489 -12.688  -0.993  0.00  0.00     0.029 C 
ATOM     20  C   UNL d   1      27.440 -14.040  -0.318  0.00  0.00     0.168 C 
ATOM     21  O   UNL d   1      26.242 -14.687  -0.752  0.00  0.00    -0.384 OA
ENDBRANCH  16  17
ENDBRANCH  15  16
ENDBRANCH  12  15
ENDBRANCH   7   9
ENDBRANCH   4   5
ENDBRANCH   3   4
ENDBRANCH   2   3
ENDBRANCH   1   2
BRANCH   1  22
ATOM     22  C   UNL d   1      29.946 -16.407  -1.526  0.00  0.00     0.000 C 
BRANCH  22  23
ATOM     23  C   UNL d   1      28.511 -16.869  -1.334  0.00  0.00     0.009 C 
BRANCH  23  24
ATOM     24  C   UNL d   1      28.229 -17.358   0.090  0.00  0.00     0.103 C 
BRANCH  24  25
ATOM     25  C   UNL d   1      26.772 -17.775   0.192  0.00  0.00     0.222 C 
ATOM     26  O   UNL d   1      26.405 -18.575   1.057  0.00  0.00    -0.273 OA
ATOM     27  N   UNL d   1      25.927 -17.225  -0.759  0.00  0.00    -0.327 N 
ATOM     28  H   UNL d   1      26.320 -16.749  -1.561  0.00  0.00     0.169 HD
BRANCH  27  29
ATOM     29  C   UNL d   1      24.530 -17.452  -0.743  0.00  0.00     0.034 A 
ATOM     30  C   UNL d   1      24.012 -18.746  -0.809  0.00  0.00     0.032 A 
ATOM     31  C   UNL d   1      22.619 -18.942  -0.870  0.00  0.00     0.039 A 
ATOM     32  C   UNL d   1      21.738 -17.853  -0.840  0.00  0.00     0.069 A 
ATOM     33  C   UNL d   1      22.264 -16.568  -0.773  0.00  0.00     0.039 A 
ATOM     34  C   UNL d   1      23.644 -16.373  -0.720  0.00  0.00     0.032 A 
BRANCH  32  35
ATOM     35  O   UNL d   1      20.400 -18.144  -0.895  0.00  0.00    -0.349 OA
BRANCH  35  36
ATOM     36  C   UNL d   1      20.053 -19.475  -1.311  0.00  0.00     0.207 C 
BRANCH  36  37
ATOM     37  C   UNL d   1      19.876 -20.405  -0.099  0.00  0.00     0.145 C 
ATOM     38  C   UNL d   1      18.414 -20.674   0.246  0.00  0.00     0.036 C 
ATOM     39  C   UNL d   1      18.453 -20.869   1.743  0.00  0.00     0.029 C 
ATOM     40  C   UNL d   1      19.571 -19.950   2.176  0.00  0.00     0.168 C 
ATOM     41  O   UNL d   1      20.479 -19.844   1.080  0.00  0.00    -0.384 OA
ENDBRANCH  36  37
ENDBRANCH  35  36
ENDBRANCH  32  35
ENDBRANCH  27  29
ENDBRANCH  24  25
ENDBRANCH  23  24
ENDBRANCH  22  23
ENDBRANCH   1  22
TORSDOF 16
ENDMDL
MODEL 6
REMARK VINA RESULT:    -8.937      5.457      8.263
REMARK INTER + INTRA:         -17.001
REMARK INTER:                 -13.709
REMARK INTRA:                  -3.291
REMARK CONF_INDEPENDENT:        4.773
REMARK UNBOUND:                -3.291
REMARK  16 active torsions:
REMARK  status: ('A' for Active; 'I' for Inactive)
REMARK    1  A    between atoms: C_2  and  C_3 
REMARK       I    between atoms: C_2  and  N_26 
REMARK    2  A    between atoms: C_3  and  C_4 
REMARK    3  A    between atoms: C_4  and  C_5 
REMARK    4  A    between atoms: C_5  and  C_6 
REMARK    5  A    between atoms: C_6  and  C_7 
REMARK    6  A    between atoms: C_7  and  C_8 
REMARK    7  A    between atoms: C_8  and  C_9 
REMARK    8  A    between atoms: C_9  and  C_10 
REMARK       I    between atoms: C_10  and  N_12 
REMARK    9  A    between atoms: N_12  and  C_13 
REMARK   10  A    between atoms: C_16  and  O_17 
REMARK   11  A    between atoms: O_17  and  C_18 
REMARK   12  A    between atoms: C_18  and  C_19 
REMARK   13  A    between atoms: N_26  and  C_27 
REMARK   14  A    between atoms: C_30  and  O_31 
REMARK   15  A    between atoms: O_31  and  C_32 
REMARK   16  A    between atoms: C_32  and  C_33 
ROOT
ATOM      1  C   UNL d   1      28.334 -12.833  -1.323  0.00  0.00     0.000 C 
ENDROOT
BRANCH   1   2
ATOM      2  C   UNL d   1      27.182 -12.023  -0.758  0.00  0.00     0.000 C 
BRANCH   2   3
ATOM      3  C   UNL d   1      27.428 -10.535  -0.988  0.00  0.00     0.009 C 
BRANCH   3   4
ATOM      4  C   UNL d   1      27.394 -10.241  -2.473  0.00  0.00     0.103 C 
BRANCH   4   5
ATOM      5  C   UNL d   1      25.989 -10.157  -3.045  0.00  0.00     0.222 C 
ATOM      6  O   UNL d   1      25.242  -9.196  -2.827  0.00  0.00    -0.273 OA
ATOM      7  N   UNL d   1      25.579 -11.144  -3.908  0.00  0.00    -0.327 N 
ATOM      8  H   UNL d   1      24.725 -10.927  -4.408  0.00  0.00     0.169 HD
BRANCH   7   9
ATOM      9  C   UNL d   1      26.219 -12.362  -4.186  0.00  0.00     0.034 A 
ATOM     10  C   UNL d   1      27.501 -12.372  -4.733  0.00  0.00     0.032 A 
ATOM     11  C   UNL d   1      28.115 -13.597  -5.033  0.00  0.00     0.039 A 
ATOM     12  C   UNL d   1      27.474 -14.808  -4.741  0.00  0.00     0.069 A 
ATOM     13  C   UNL d   1      26.190 -14.785  -4.223  0.00  0.00     0.039 A 
ATOM     14  C   UNL d   1      25.561 -13.573  -3.992  0.00  0.00     0.032 A 
BRANCH  12  15
ATOM     15  O   UNL d   1      28.166 -15.951  -5.016  0.00  0.00    -0.349 OA
BRANCH  15  16
ATOM     16  C   UNL d   1      29.259 -16.262  -4.132  0.00  0.00     0.207 C 
BRANCH  16  17
ATOM     17  C   UNL d   1      30.397 -16.905  -4.921  0.00  0.00     0.145 C 
ATOM     18  C   UNL d   1      30.414 -16.520  -6.393  0.00  0.00     0.036 C 
ATOM     19  C   UNL d   1      30.939 -17.764  -7.058  0.00  0.00     0.029 C 
ATOM     20  C   UNL d   1      30.414 -18.873  -6.174  0.00  0.00     0.168 C 
ATOM     21  O   UNL d   1      30.292 -18.340  -4.854  0.00  0.00    -0.384 OA
ENDBRANCH  16  17
ENDBRANCH  15  16
ENDBRANCH  12  15
ENDBRANCH   7   9
ENDBRANCH   4   5
ENDBRANCH   3   4
ENDBRANCH   2   3
ENDBRANCH   1   2
BRANCH   1  22
ATOM     22  C   UNL d   1      29.173 -13.430  -0.198  0.00  0.00     0.000 C 
BRANCH  22  23
ATOM     23  C   UNL d   1      30.041 -14.553  -0.739  0.00  0.00     0.009 C 
BRANCH  23  24
ATOM     24  C   UNL d   1      29.836 -15.876   0.006  0.00  0.00     0.103 C 
BRANCH  24  25
ATOM     25  C   UNL d   1      28.564 -16.536  -0.497  0.00  0.00     0.222 C 
ATOM     26  O   UNL d   1      28.616 -17.477  -1.294  0.00  0.00    -0.273 OA
ATOM     27  N   UNL d   1      27.381 -15.987  -0.028  0.00  0.00    -0.327 N 
ATOM     28  H   UNL d   1      27.399 -15.095   0.449  0.00  0.00     0.169 HD
BRANCH  27  29
ATOM     29  C   UNL d   1      26.118 -16.544  -0.342  0.00  0.00     0.034 A 
ATOM     30  C   UNL d   1      25.164 -15.811  -1.048  0.00  0.00     0.032 A 
ATOM     31  C   UNL d   1      23.889 -16.359  -1.280  0.00  0.00     0.039 A 
ATOM     32  C   UNL d   1      23.567 -17.647  -0.833  0.00  0.00     0.069 A 
ATOM     33  C   UNL d   1      24.524 -18.369  -0.130  0.00  0.00     0.039 A 
ATOM     34  C   UNL d   1      25.786 -17.825   0.106  0.00  0.00     0.032 A 
BRANCH  32  35
ATOM     35  O   UNL d   1      22.303 -18.096  -1.114  0.00  0.00    -0.349 OA
BRANCH  35  36
ATOM     36  C   UNL d   1      21.897 -19.310  -0.459  0.00  0.00     0.207 C 
BRANCH  36  37
ATOM     37  C   UNL d   1      20.443 -19.214   0.030  0.00  0.00     0.145 C 
ATOM     38  C   UNL d   1      20.281 -19.552   1.510  0.00  0.00     0.036 C 
ATOM     39  C   UNL d   1      18.894 -20.147   1.569  0.00  0.00     0.029 C 
ATOM     40  C   UNL d   1      18.760 -20.829   0.228  0.00  0.00     0.168 C 
ATOM     41  O   UNL d   1      19.589 -20.118  -0.691  0.00  0.00    -0.384 OA
ENDBRANCH  36  37
ENDBRANCH  35  36
ENDBRANCH  32  35
ENDBRANCH  27  29
ENDBRANCH  24  25
ENDBRANCH  23  24
ENDBRANCH  22  23
ENDBRANCH   1  22
TORSDOF 16
ENDMDL
MODEL 7
REMARK VINA RESULT:    -8.774      1.946     10.617
REMARK INTER + INTRA:         -17.196
REMARK INTER:                 -13.546
REMARK INTRA:                  -3.650
REMARK CONF_INDEPENDENT:        4.773
REMARK UNBOUND:                -3.650
REMARK  16 active torsions:
REMARK  status: ('A' for Active; 'I' for Inactive)
REMARK    1  A    between atoms: C_2  and  C_3 
REMARK       I    between atoms: C_2  and  N_26 
REMARK    2  A    between atoms: C_3  and  C_4 
REMARK    3  A    between atoms: C_4  and  C_5 
REMARK    4  A    between atoms: C_5  and  C_6 
REMARK    5  A    between atoms: C_6  and  C_7 
REMARK    6  A    between atoms: C_7  and  C_8 
REMARK    7  A    between atoms: C_8  and  C_9 
REMARK    8  A    between atoms: C_9  and  C_10 
REMARK       I    between atoms: C_10  and  N_12 
REMARK    9  A    between atoms: N_12  and  C_13 
REMARK   10  A    between atoms: C_16  and  O_17 
REMARK   11  A    between atoms: O_17  and  C_18 
REMARK   12  A    between atoms: C_18  and  C_19 
REMARK   13  A    between atoms: N_26  and  C_27 
REMARK   14  A    between atoms: C_30  and  O_31 
REMARK   15  A    between atoms: O_31  and  C_32 
REMARK   16  A    between atoms: C_32  and  C_33 
ROOT
ATOM      1  C   UNL d   1      27.625 -14.192  -3.363  0.00  0.00     0.000 C 
ENDROOT
BRANCH   1   2
ATOM      2  C   UNL d   1      27.362 -15.645  -3.011  0.00  0.00     0.000 C 
BRANCH   2   3
ATOM      3  C   UNL d   1      28.640 -16.294  -2.488  0.00  0.00     0.009 C 
BRANCH   3   4
ATOM      4  C   UNL d   1      28.329 -17.083  -1.234  0.00  0.00     0.103 C 
BRANCH   4   5
ATOM      5  C   UNL d   1      28.038 -16.215  -0.023  0.00  0.00     0.222 C 
ATOM      6  O   UNL d   1      28.919 -15.560   0.547  0.00  0.00    -0.273 OA
ATOM      7  N   UNL d   1      26.733 -16.087   0.388  0.00  0.00    -0.327 N 
ATOM      8  H   UNL d   1      26.582 -15.345   1.060  0.00  0.00     0.169 HD
BRANCH   7   9
ATOM      9  C   UNL d   1      25.622 -16.829  -0.042  0.00  0.00     0.034 A 
ATOM     10  C   UNL d   1      25.508 -18.178   0.290  0.00  0.00     0.032 A 
ATOM     11  C   UNL d   1      24.407 -18.913  -0.174  0.00  0.00     0.039 A 
ATOM     12  C   UNL d   1      23.398 -18.293  -0.922  0.00  0.00     0.069 A 
ATOM     13  C   UNL d   1      23.536 -16.960  -1.269  0.00  0.00     0.039 A 
ATOM     14  C   UNL d   1      24.659 -16.255  -0.866  0.00  0.00     0.032 A 
BRANCH  12  15
ATOM     15  O   UNL d   1      22.338 -19.071  -1.286  0.00  0.00    -0.349 OA
BRANCH  15  16
ATOM     16  C   UNL d   1      21.061 -18.705  -0.733  0.00  0.00     0.207 C 
BRANCH  16  17
ATOM     17  C   UNL d   1      20.415 -19.919  -0.070  0.00  0.00     0.145 C 
ATOM     18  C   UNL d   1      18.936 -20.075  -0.391  0.00  0.00     0.036 C 
ATOM     19  C   UNL d   1      18.380 -20.672   0.874  0.00  0.00     0.029 C 
ATOM     20  C   UNL d   1      19.258 -20.074   1.950  0.00  0.00     0.168 C 
ATOM     21  O   UNL d   1      20.536 -19.820   1.362  0.00  0.00    -0.384 OA
ENDBRANCH  16  17
ENDBRANCH  15  16
ENDBRANCH  12  15
ENDBRANCH   7   9
ENDBRANCH   4   5
ENDBRANCH   3   4
ENDBRANCH   2   3
ENDBRANCH   1   2
BRANCH   1  22
ATOM     22  C   UNL d   1      26.448 -13.317  -2.946  0.00  0.00     0.000 C 
BRANCH  22  23
ATOM     23  C   UNL d   1      26.249 -13.398  -1.442  0.00  0.00     0.009 C 
BRANCH  23  24
ATOM     24  C   UNL d   1      27.363 -12.701  -0.655  0.00  0.00     0.103 C 
BRANCH  24  25
ATOM     25  C   UNL d   1      27.217 -13.041   0.818  0.00  0.00     0.222 C 
ATOM     26  O   UNL d   1      26.152 -13.482   1.259  0.00  0.00    -0.273 OA
ATOM     27  N   UNL d   1      28.332 -12.790   1.601  0.00  0.00    -0.327 N 
ATOM     28  H   UNL d   1      29.092 -12.237   1.226  0.00  0.00     0.169 HD
BRANCH  27  29
ATOM     29  C   UNL d   1      28.377 -13.131   2.974  0.00  0.00     0.034 A 
ATOM     30  C   UNL d   1      28.713 -12.183   3.940  0.00  0.00     0.032 A 
ATOM     31  C   UNL d   1      28.827 -12.565   5.290  0.00  0.00     0.039 A 
ATOM     32  C   UNL d   1      28.583 -13.887   5.686  0.00  0.00     0.069 A 
ATOM     33  C   UNL d   1      28.248 -14.824   4.716  0.00  0.00     0.039 A 
ATOM     34  C   UNL d   1      28.142 -14.448   3.378  0.00  0.00     0.032 A 
BRANCH  32  35
ATOM     35  O   UNL d   1      28.710 -14.161   7.023  0.00  0.00    -0.349 OA
BRANCH  35  36
ATOM     36  C   UNL d   1      29.766 -13.475   7.717  0.00  0.00     0.207 C 
BRANCH  36  37
ATOM     37  C   UNL d   1      29.633 -13.653   9.238  0.00  0.00     0.145 C 
ATOM     38  C   UNL d   1      28.531 -14.630   9.638  0.00  0.00     0.036 C 
ATOM     39  C   UNL d   1      28.065 -14.086  10.968  0.00  0.00     0.029 C 
ATOM     40  C   UNL d   1      28.260 -12.596  10.812  0.00  0.00     0.168 C 
ATOM     41  O   UNL d   1      29.327 -12.405   9.884  0.00  0.00    -0.384 OA
ENDBRANCH  36  37
ENDBRANCH  35  36
ENDBRANCH  32  35
ENDBRANCH  27  29
ENDBRANCH  24  25
ENDBRANCH  23  24
ENDBRANCH  22  23
ENDBRANCH   1  22
TORSDOF 16
ENDMDL
