MODEL 1
REMARK VINA RESULT:    -8.056      0.000      0.000
REMARK INTER + INTRA:         -14.629
REMARK INTER:                 -11.338
REMARK INTRA:                  -3.292
REMARK CONF_INDEPENDENT:        3.281
REMARK UNBOUND:                -3.292
REMARK  11 active torsions:
REMARK  status: ('A' for Active; 'I' for Inactive)
REMARK    1  A    between atoms: C_2  and  N_3 
REMARK    2  A    between atoms: C_5  and  C_6 
REMARK    3  A    between atoms: C_7  and  N_8 
REMARK    4  A    between atoms: C_7  and  C_23 
REMARK       I    between atoms: N_8  and  C_9 
REMARK    5  A    between atoms: C_9  and  C_11 
REMARK    6  A    between atoms: C_13  and  O_14 
REMARK    7  A    between atoms: C_16  and  O_17 
REMARK    8  A    between atoms: C_19  and  O_20 
REMARK       I    between atoms: C_23  and  N_25 
REMARK    9  A    between atoms: N_25  and  CA_26 
REMARK   10  A    between atoms: CA_26  and  C_27 
REMARK   11  A    between atoms: C_27  and  O_28 
ROOT
ATOM      1  C   UNK d   1      25.014 -14.450  -2.732  0.00  0.00     0.043 C 
ATOM      2  C   UNK d   1      26.046 -13.949  -3.501  0.00  0.00     0.084 C 
ENDROOT
BRANCH   2   3
ATOM      3  N   UNK d   1      27.287 -14.589  -3.715  0.00  0.00    -0.220 NA
ATOM      4  C   UNK d   0      27.606 -14.970  -4.996  0.00  0.00     0.235 C 
ATOM      5  O   UNK d   0      26.742 -15.344  -5.769  0.00  0.00    -0.274 OA
ATOM      6  H   UNK d   1      27.514 -15.342  -3.085  0.00  0.00     0.137 HD
BRANCH   4   7
ATOM      7  C   UNK d   0      29.000 -15.245  -5.423  0.00  0.00     0.032 C 
ATOM      8  C   UNK d   0      29.758 -14.744  -6.510  0.00  0.00     0.056 C 
ATOM      9  C   UNK d   0      30.886 -15.459  -6.978  0.00  0.00     0.105 C 
ATOM     10  C   UNK d   0      31.237 -16.664  -6.331  0.00  0.00     0.135 C 
ATOM     11  C   UNK d   0      30.396 -17.193  -5.337  0.00  0.00     0.105 C 
ATOM     12  C   UNK d   0      29.280 -16.499  -4.944  0.00  0.00     0.056 C 
BRANCH   9  13
ATOM     13  O   UNK d   0      31.530 -14.898  -8.068  0.00  0.00    -0.353 OA
ATOM     14  C   UNK d   0      31.646 -13.469  -8.106  0.00  0.00     0.210 C 
ENDBRANCH   9  13
BRANCH  10  15
ATOM     15  O   UNK d   0      32.403 -17.256  -6.724  0.00  0.00    -0.351 OA
ATOM     16  C   UNK d   0      32.419 -18.022  -7.910  0.00  0.00     0.210 C 
ENDBRANCH  10  15
BRANCH  11  17
ATOM     17  O   UNK d   0      30.674 -18.396  -4.760  0.00  0.00    -0.353 OA
ATOM     18  C   UNK d   0      30.405 -19.572  -5.507  0.00  0.00     0.210 C 
ENDBRANCH  11  17
ENDBRANCH   4   7
ENDBRANCH   2   3
BRANCH   2  19
ATOM     19  C   UNK d   1      25.855 -12.558  -4.197  0.00  0.00     0.263 C 
ATOM     20  O   UNK d   1      25.273 -11.620  -3.653  0.00  0.00    -0.267 OA
ATOM     21  N   GLY d   2      26.372 -12.436  -5.482  0.00  0.00    -0.354 N 
ATOM     22  H   GLY d   2      26.879 -13.178  -5.918  0.00  0.00     0.162 HD
BRANCH  21  23
ATOM     23  CA  GLY d   2      26.195 -11.257  -6.326  0.00  0.00     0.149 C 
BRANCH  23  24
ATOM     24  C   GLY d   2      26.469  -9.954  -5.557  0.00  0.00     0.183 C 
BRANCH  24  25
ATOM     25  O   GLY d   2      25.285  -9.419  -4.985  0.00  0.00    -0.399 OA
ATOM     26  H   GLY d   2      24.658 -10.153  -4.856  0.00  0.00     0.209 HD
ENDBRANCH  24  25
ENDBRANCH  23  24
ENDBRANCH  21  23
ENDBRANCH   2  19
BRANCH   1  27
ATOM     27  C   UNK d   1      24.846 -15.676  -1.894  0.00  0.00    -0.006 C 
ATOM     28  C   UNK d   1      23.687 -16.352  -1.630  0.00  0.00     0.103 C 
ATOM     29  N   UNK d   1      23.859 -17.581  -1.086  0.00  0.00    -0.356 N 
ATOM     30  C   UNK d   1      25.124 -17.620  -0.605  0.00  0.00     0.045 A 
ATOM     31  C   UNK d   1      25.701 -18.574   0.230  0.00  0.00     0.030 A 
ATOM     32  C   UNK d   1      25.793 -16.478  -1.128  0.00  0.00     0.002 A 
ATOM     33  C   UNK d   1      27.030 -18.387   0.568  0.00  0.00     0.002 A 
ATOM     34  C   UNK d   1      27.746 -17.302   0.059  0.00  0.00     0.001 A 
ATOM     35  C   UNK d   1      27.156 -16.353  -0.799  0.00  0.00     0.014 A 
BRANCH  29  36
ATOM     36  C   UNK d   1      22.796 -18.577  -1.069  0.00  0.00     0.124 C 
ATOM     37  C   UNK d   1      22.016 -18.581   0.230  0.00  0.00     0.027 C 
ENDBRANCH  29  36
ENDBRANCH   1  27
TORSDOF 11
ENDMDL
MODEL 2
REMARK VINA RESULT:    -7.957      2.858      6.283
REMARK INTER + INTRA:         -14.384
REMARK INTER:                 -11.238
REMARK INTRA:                  -3.145
REMARK CONF_INDEPENDENT:        3.281
REMARK UNBOUND:                -3.145
REMARK  11 active torsions:
REMARK  status: ('A' for Active; 'I' for Inactive)
REMARK    1  A    between atoms: C_2  and  N_3 
REMARK    2  A    between atoms: C_5  and  C_6 
REMARK    3  A    between atoms: C_7  and  N_8 
REMARK    4  A    between atoms: C_7  and  C_23 
REMARK       I    between atoms: N_8  and  C_9 
REMARK    5  A    between atoms: C_9  and  C_11 
REMARK    6  A    between atoms: C_13  and  O_14 
REMARK    7  A    between atoms: C_16  and  O_17 
REMARK    8  A    between atoms: C_19  and  O_20 
REMARK       I    between atoms: C_23  and  N_25 
REMARK    9  A    between atoms: N_25  and  CA_26 
REMARK   10  A    between atoms: CA_26  and  C_27 
REMARK   11  A    between atoms: C_27  and  O_28 
ROOT
ATOM      1  C   UNK d   1      25.455 -17.175  -0.212  0.00  0.00     0.043 C 
ATOM      2  C   UNK d   1      24.709 -17.446  -1.342  0.00  0.00     0.084 C 
ENDROOT
BRANCH   2   3
ATOM      3  N   UNK d   1      24.972 -16.935  -2.633  0.00  0.00    -0.220 NA
ATOM      4  C   UNK d   0      25.061 -15.572  -2.783  0.00  0.00     0.235 C 
ATOM      5  O   UNK d   0      24.373 -14.825  -2.110  0.00  0.00    -0.274 OA
ATOM      6  H   UNK d   1      24.413 -17.310  -3.383  0.00  0.00     0.137 HD
BRANCH   4   7
ATOM      7  C   UNK d   0      25.737 -14.940  -3.942  0.00  0.00     0.032 C 
ATOM      8  C   UNK d   0      26.659 -15.461  -4.882  0.00  0.00     0.056 C 
ATOM      9  C   UNK d   0      27.497 -14.588  -5.615  0.00  0.00     0.105 C 
ATOM     10  C   UNK d   0      27.382 -13.198  -5.394  0.00  0.00     0.135 C 
ATOM     11  C   UNK d   0      26.545 -12.722  -4.370  0.00  0.00     0.105 C 
ATOM     12  C   UNK d   0      25.785 -13.602  -3.642  0.00  0.00     0.056 C 
BRANCH   9  13
ATOM     13  O   UNK d   0      28.385 -15.207  -6.478  0.00  0.00    -0.353 OA
ATOM     14  C   UNK d   0      29.672 -15.568  -5.959  0.00  0.00     0.210 C 
ENDBRANCH   9  13
BRANCH  10  15
ATOM     15  O   UNK d   0      28.111 -12.382  -6.211  0.00  0.00    -0.351 OA
ATOM     16  C   UNK d   0      28.154 -12.658  -7.595  0.00  0.00     0.210 C 
ENDBRANCH  10  15
BRANCH  11  17
ATOM     17  O   UNK d   0      26.483 -11.390  -4.086  0.00  0.00    -0.353 OA
ATOM     18  C   UNK d   0      25.906 -10.528  -5.056  0.00  0.00     0.210 C 
ENDBRANCH  11  17
ENDBRANCH   4   7
ENDBRANCH   2   3
BRANCH   2  19
ATOM     19  C   UNK d   1      23.460 -18.383  -1.209  0.00  0.00     0.263 C 
ATOM     20  O   UNK d   1      23.145 -19.194  -2.078  0.00  0.00    -0.267 OA
ATOM     21  N   GLY d   2      22.708 -18.244  -0.047  0.00  0.00    -0.354 N 
ATOM     22  H   GLY d   2      22.975 -17.616   0.682  0.00  0.00     0.162 HD
BRANCH  21  23
ATOM     23  CA  GLY d   2      21.453 -18.950   0.203  0.00  0.00     0.149 C 
BRANCH  23  24
ATOM     24  C   GLY d   2      20.411 -18.676  -0.894  0.00  0.00     0.183 C 
BRANCH  24  25
ATOM     25  O   GLY d   2      20.397 -19.700  -1.877  0.00  0.00    -0.399 OA
ATOM     26  H   GLY d   2      21.151 -19.550  -2.475  0.00  0.00     0.209 HD
ENDBRANCH  24  25
ENDBRANCH  23  24
ENDBRANCH  21  23
ENDBRANCH   2  19
BRANCH   1  27
ATOM     27  C   UNK d   1      26.644 -16.311   0.063  0.00  0.00    -0.006 C 
ATOM     28  C   UNK d   1      26.653 -15.056   0.606  0.00  0.00     0.103 C 
ATOM     29  N   UNK d   1      27.871 -14.622   1.010  0.00  0.00    -0.356 N 
ATOM     30  C   UNK d   1      28.787 -15.411   0.400  0.00  0.00     0.045 A 
ATOM     31  C   UNK d   1      30.166 -15.229   0.320  0.00  0.00     0.030 A 
ATOM     32  C   UNK d   1      28.071 -16.507  -0.158  0.00  0.00     0.002 A 
ATOM     33  C   UNK d   1      30.885 -16.199  -0.357  0.00  0.00     0.002 A 
ATOM     34  C   UNK d   1      30.240 -17.313  -0.898  0.00  0.00     0.001 A 
ATOM     35  C   UNK d   1      28.848 -17.494  -0.795  0.00  0.00     0.014 A 
BRANCH  29  36
ATOM     36  C   UNK d   1      28.030 -13.494   1.918  0.00  0.00     0.124 C 
ATOM     37  C   UNK d   1      27.847 -13.879   3.372  0.00  0.00     0.027 C 
ENDBRANCH  29  36
ENDBRANCH   1  27
TORSDOF 11
ENDMDL
MODEL 3
REMARK VINA RESULT:    -7.931      2.826      6.479
REMARK INTER + INTRA:         -14.737
REMARK INTER:                 -11.212
REMARK INTRA:                  -3.524
REMARK CONF_INDEPENDENT:        3.281
REMARK UNBOUND:                -3.524
REMARK  11 active torsions:
REMARK  status: ('A' for Active; 'I' for Inactive)
REMARK    1  A    between atoms: C_2  and  N_3 
REMARK    2  A    between atoms: C_5  and  C_6 
REMARK    3  A    between atoms: C_7  and  N_8 
REMARK    4  A    between atoms: C_7  and  C_23 
REMARK       I    between atoms: N_8  and  C_9 
REMARK    5  A    between atoms: C_9  and  C_11 
REMARK    6  A    between atoms: C_13  and  O_14 
REMARK    7  A    between atoms: C_16  and  O_17 
REMARK    8  A    between atoms: C_19  and  O_20 
REMARK       I    between atoms: C_23  and  N_25 
REMARK    9  A    between atoms: N_25  and  CA_26 
REMARK   10  A    between atoms: CA_26  and  C_27 
REMARK   11  A    between atoms: C_27  and  O_28 
ROOT
ATOM      1  C   UNK d   1      25.462 -17.629  -0.205  0.00  0.00     0.043 C 
ATOM      2  C   UNK d   1      24.641 -17.747  -1.309  0.00  0.00     0.084 C 
ENDROOT
BRANCH   2   3
ATOM      3  N   UNK d   1      24.898 -17.180  -2.578  0.00  0.00    -0.220 NA
ATOM      4  C   UNK d   0      24.877 -15.811  -2.690  0.00  0.00     0.235 C 
ATOM      5  O   UNK d   0      24.109 -15.142  -2.020  0.00  0.00    -0.274 OA
ATOM      6  H   UNK d   1      24.394 -17.579  -3.354  0.00  0.00     0.137 HD
BRANCH   4   7
ATOM      7  C   UNK d   0      25.530 -15.092  -3.810  0.00  0.00     0.032 C 
ATOM      8  C   UNK d   0      26.398 -15.551  -4.833  0.00  0.00     0.056 C 
ATOM      9  C   UNK d   0      27.238 -14.638  -5.514  0.00  0.00     0.105 C 
ATOM     10  C   UNK d   0      27.180 -13.273  -5.158  0.00  0.00     0.135 C 
ATOM     11  C   UNK d   0      26.399 -12.870  -4.060  0.00  0.00     0.105 C 
ATOM     12  C   UNK d   0      25.637 -13.791  -3.388  0.00  0.00     0.056 C 
BRANCH   9  13
ATOM     13  O   UNK d   0      28.070 -15.199  -6.467  0.00  0.00    -0.353 OA
ATOM     14  C   UNK d   0      29.485 -15.096  -6.257  0.00  0.00     0.210 C 
ENDBRANCH   9  13
BRANCH  10  15
ATOM     15  O   UNK d   0      27.906 -12.406  -5.923  0.00  0.00    -0.351 OA
ATOM     16  C   UNK d   0      27.230 -11.421  -6.676  0.00  0.00     0.210 C 
ENDBRANCH  10  15
BRANCH  11  17
ATOM     17  O   UNK d   0      26.395 -11.570  -3.650  0.00  0.00    -0.353 OA
ATOM     18  C   UNK d   0      27.046 -11.255  -2.429  0.00  0.00     0.210 C 
ENDBRANCH  11  17
ENDBRANCH   4   7
ENDBRANCH   2   3
BRANCH   2  19
ATOM     19  C   UNK d   1      23.309 -18.560  -1.170  0.00  0.00     0.263 C 
ATOM     20  O   UNK d   1      22.904 -19.323  -2.046  0.00  0.00    -0.267 OA
ATOM     21  N   GLY d   2      22.590 -18.366   0.005  0.00  0.00    -0.354 N 
ATOM     22  H   GLY d   2      22.928 -17.778   0.739  0.00  0.00     0.162 HD
BRANCH  21  23
ATOM     23  CA  GLY d   2      21.276 -18.950   0.264  0.00  0.00     0.149 C 
BRANCH  23  24
ATOM     24  C   GLY d   2      20.297 -18.699  -0.895  0.00  0.00     0.183 C 
BRANCH  24  25
ATOM     25  O   GLY d   2      20.280 -19.780  -1.815  0.00  0.00    -0.399 OA
ATOM     26  H   GLY d   2      20.799 -19.516  -2.595  0.00  0.00     0.209 HD
ENDBRANCH  24  25
ENDBRANCH  23  24
ENDBRANCH  21  23
ENDBRANCH   2  19
BRANCH   1  27
ATOM     27  C   UNK d   1      26.745 -16.911   0.062  0.00  0.00    -0.006 C 
ATOM     28  C   UNK d   1      27.997 -17.452   0.164  0.00  0.00     0.103 C 
ATOM     29  N   UNK d   1      29.008 -16.552   0.122  0.00  0.00    -0.356 N 
ATOM     30  C   UNK d   1      28.462 -15.340   0.381  0.00  0.00     0.045 A 
ATOM     31  C   UNK d   1      29.114 -14.142   0.664  0.00  0.00     0.030 A 
ATOM     32  C   UNK d   1      27.051 -15.505   0.300  0.00  0.00     0.002 A 
ATOM     33  C   UNK d   1      28.315 -13.032   0.879  0.00  0.00     0.002 A 
ATOM     34  C   UNK d   1      26.926 -13.128   0.782  0.00  0.00     0.001 A 
ATOM     35  C   UNK d   1      26.279 -14.340   0.477  0.00  0.00     0.014 A 
BRANCH  29  36
ATOM     36  C   UNK d   1      30.386 -16.945  -0.142  0.00  0.00     0.124 C 
ATOM     37  C   UNK d   1      30.488 -18.162  -1.037  0.00  0.00     0.027 C 
ENDBRANCH  29  36
ENDBRANCH   1  27
TORSDOF 11
ENDMDL
MODEL 4
REMARK VINA RESULT:    -7.396      2.768      6.444
REMARK INTER + INTRA:         -14.404
REMARK INTER:                 -10.677
REMARK INTRA:                  -3.727
REMARK CONF_INDEPENDENT:        3.281
REMARK UNBOUND:                -3.727
REMARK  11 active torsions:
REMARK  status: ('A' for Active; 'I' for Inactive)
REMARK    1  A    between atoms: C_2  and  N_3 
REMARK    2  A    between atoms: C_5  and  C_6 
REMARK    3  A    between atoms: C_7  and  N_8 
REMARK    4  A    between atoms: C_7  and  C_23 
REMARK       I    between atoms: N_8  and  C_9 
REMARK    5  A    between atoms: C_9  and  C_11 
REMARK    6  A    between atoms: C_13  and  O_14 
REMARK    7  A    between atoms: C_16  and  O_17 
REMARK    8  A    between atoms: C_19  and  O_20 
REMARK       I    between atoms: C_23  and  N_25 
REMARK    9  A    between atoms: N_25  and  CA_26 
REMARK   10  A    between atoms: CA_26  and  C_27 
REMARK   11  A    between atoms: C_27  and  O_28 
ROOT
ATOM      1  C   UNK d   1      27.961 -13.349  -6.108  0.00  0.00     0.043 C 
ATOM      2  C   UNK d   1      27.025 -12.594  -5.429  0.00  0.00     0.084 C 
ENDROOT
BRANCH   2   3
ATOM      3  N   UNK d   1      26.593 -12.832  -4.104  0.00  0.00    -0.220 NA
ATOM      4  C   UNK d   0      25.833 -13.952  -3.865  0.00  0.00     0.235 C 
ATOM      5  O   UNK d   0      25.047 -14.363  -4.700  0.00  0.00    -0.274 OA
ATOM      6  H   UNK d   1      26.181 -12.049  -3.623  0.00  0.00     0.137 HD
BRANCH   4   7
ATOM      7  C   UNK d   0      25.683 -14.539  -2.511  0.00  0.00     0.032 C 
ATOM      8  C   UNK d   0      26.392 -14.301  -1.308  0.00  0.00     0.056 C 
ATOM      9  C   UNK d   0      26.381 -15.268  -0.274  0.00  0.00     0.105 C 
ATOM     10  C   UNK d   0      25.645 -16.457  -0.470  0.00  0.00     0.135 C 
ATOM     11  C   UNK d   0      25.054 -16.714  -1.719  0.00  0.00     0.105 C 
ATOM     12  C   UNK d   0      25.128 -15.777  -2.717  0.00  0.00     0.056 C 
BRANCH   9  13
ATOM     13  O   UNK d   0      27.137 -14.948   0.841  0.00  0.00    -0.353 OA
ATOM     14  C   UNK d   0      27.104 -13.588   1.296  0.00  0.00     0.210 C 
ENDBRANCH   9  13
BRANCH  10  15
ATOM     15  O   UNK d   0      25.551 -17.304   0.597  0.00  0.00    -0.351 OA
ATOM     16  C   UNK d   0      26.538 -18.298   0.773  0.00  0.00     0.210 C 
ENDBRANCH  10  15
BRANCH  11  17
ATOM     17  O   UNK d   0      24.409 -17.892  -1.953  0.00  0.00    -0.353 OA
ATOM     18  C   UNK d   0      23.288 -18.211  -1.142  0.00  0.00     0.210 C 
ENDBRANCH  11  17
ENDBRANCH   4   7
ENDBRANCH   2   3
BRANCH   2  19
ATOM     19  C   UNK d   1      26.369 -11.375  -6.163  0.00  0.00     0.263 C 
ATOM     20  O   UNK d   1      26.581 -11.125  -7.349  0.00  0.00    -0.267 OA
ATOM     21  N   GLY d   2      25.533 -10.571  -5.396  0.00  0.00    -0.354 N 
ATOM     22  H   GLY d   2      25.325 -10.787  -4.443  0.00  0.00     0.162 HD
BRANCH  21  23
ATOM     23  CA  GLY d   2      24.923  -9.334  -5.876  0.00  0.00     0.149 C 
BRANCH  23  24
ATOM     24  C   GLY d   2      24.471  -8.429  -4.717  0.00  0.00     0.183 C 
BRANCH  24  25
ATOM     25  O   GLY d   2      24.833  -8.967  -3.455  0.00  0.00    -0.399 OA
ATOM     26  H   GLY d   2      24.408  -8.425  -2.766  0.00  0.00     0.209 HD
ENDBRANCH  24  25
ENDBRANCH  23  24
ENDBRANCH  21  23
ENDBRANCH   2  19
BRANCH   1  27
ATOM     27  C   UNK d   1      28.740 -14.581  -5.774  0.00  0.00    -0.006 C 
ATOM     28  C   UNK d   1      29.319 -15.461  -6.646  0.00  0.00     0.103 C 
ATOM     29  N   UNK d   1      30.201 -16.321  -6.081  0.00  0.00    -0.356 N 
ATOM     30  C   UNK d   1      29.958 -16.308  -4.749  0.00  0.00     0.045 A 
ATOM     31  C   UNK d   1      30.444 -17.176  -3.774  0.00  0.00     0.030 A 
ATOM     32  C   UNK d   1      29.093 -15.204  -4.504  0.00  0.00     0.002 A 
ATOM     33  C   UNK d   1      30.051 -16.934  -2.470  0.00  0.00     0.002 A 
ATOM     34  C   UNK d   1      29.229 -15.847  -2.166  0.00  0.00     0.001 A 
ATOM     35  C   UNK d   1      28.758 -14.966  -3.158  0.00  0.00     0.014 A 
BRANCH  29  36
ATOM     36  C   UNK d   1      31.166 -17.073  -6.871  0.00  0.00     0.124 C 
ATOM     37  C   UNK d   1      30.792 -18.533  -7.021  0.00  0.00     0.027 C 
ENDBRANCH  29  36
ENDBRANCH   1  27
TORSDOF 11
ENDMDL
MODEL 5
REMARK VINA RESULT:    -7.278      1.391      3.321
REMARK INTER + INTRA:         -14.387
REMARK INTER:                 -10.560
REMARK INTRA:                  -3.827
REMARK CONF_INDEPENDENT:        3.281
REMARK UNBOUND:                -3.827
REMARK  11 active torsions:
REMARK  status: ('A' for Active; 'I' for Inactive)
REMARK    1  A    between atoms: C_2  and  N_3 
REMARK    2  A    between atoms: C_5  and  C_6 
REMARK    3  A    between atoms: C_7  and  N_8 
REMARK    4  A    between atoms: C_7  and  C_23 
REMARK       I    between atoms: N_8  and  C_9 
REMARK    5  A    between atoms: C_9  and  C_11 
REMARK    6  A    between atoms: C_13  and  O_14 
REMARK    7  A    between atoms: C_16  and  O_17 
REMARK    8  A    between atoms: C_19  and  O_20 
REMARK       I    between atoms: C_23  and  N_25 
REMARK    9  A    between atoms: N_25  and  CA_26 
REMARK   10  A    between atoms: CA_26  and  C_27 
REMARK   11  A    between atoms: C_27  and  O_28 
ROOT
ATOM      1  C   UNK d   1      25.355 -14.336  -2.690  0.00  0.00     0.043 C 
ATOM      2  C   UNK d   1      26.177 -13.733  -3.621  0.00  0.00     0.084 C 
ENDROOT
BRANCH   2   3
ATOM      3  N   UNK d   1      27.386 -14.276  -4.113  0.00  0.00    -0.220 NA
ATOM      4  C   UNK d   0      27.374 -14.854  -5.359  0.00  0.00     0.235 C 
ATOM      5  O   UNK d   0      26.390 -15.449  -5.761  0.00  0.00    -0.274 OA
ATOM      6  H   UNK d   1      27.896 -14.872  -3.481  0.00  0.00     0.137 HD
BRANCH   4   7
ATOM      7  C   UNK d   0      28.610 -15.064  -6.152  0.00  0.00     0.032 C 
ATOM      8  C   UNK d   0      29.631 -16.040  -6.046  0.00  0.00     0.056 C 
ATOM      9  C   UNK d   0      30.909 -15.794  -6.603  0.00  0.00     0.105 C 
ATOM     10  C   UNK d   0      31.131 -14.569  -7.268  0.00  0.00     0.135 C 
ATOM     11  C   UNK d   0      30.137 -13.575  -7.251  0.00  0.00     0.105 C 
ATOM     12  C   UNK d   0      28.927 -13.828  -6.655  0.00  0.00     0.056 C 
BRANCH   9  13
ATOM     13  O   UNK d   0      31.841 -16.800  -6.409  0.00  0.00    -0.353 OA
ATOM     14  C   UNK d   0      31.355 -18.147  -6.322  0.00  0.00     0.210 C 
ENDBRANCH   9  13
BRANCH  10  15
ATOM     15  O   UNK d   0      32.330 -14.423  -7.904  0.00  0.00    -0.351 OA
ATOM     16  C   UNK d   0      32.781 -15.447  -8.765  0.00  0.00     0.210 C 
ENDBRANCH  10  15
BRANCH  11  17
ATOM     17  O   UNK d   0      30.363 -12.356  -7.816  0.00  0.00    -0.353 OA
ATOM     18  C   UNK d   0      30.236 -12.240  -9.225  0.00  0.00     0.210 C 
ENDBRANCH  11  17
ENDBRANCH   4   7
ENDBRANCH   2   3
BRANCH   2  19
ATOM     19  C   UNK d   1      25.766 -12.331  -4.187  0.00  0.00     0.263 C 
ATOM     20  O   UNK d   1      25.156 -11.499  -3.516  0.00  0.00    -0.267 OA
ATOM     21  N   GLY d   2      26.119 -12.073  -5.508  0.00  0.00    -0.354 N 
ATOM     22  H   GLY d   2      26.646 -12.726  -6.049  0.00  0.00     0.162 HD
BRANCH  21  23
ATOM     23  CA  GLY d   2      25.725 -10.871  -6.238  0.00  0.00     0.149 C 
BRANCH  23  24
ATOM     24  C   GLY d   2      26.697 -10.554  -7.389  0.00  0.00     0.183 C 
BRANCH  24  25
ATOM     25  O   GLY d   2      27.408 -11.708  -7.812  0.00  0.00    -0.399 OA
ATOM     26  H   GLY d   2      28.358 -11.534  -7.689  0.00  0.00     0.209 HD
ENDBRANCH  24  25
ENDBRANCH  23  24
ENDBRANCH  21  23
ENDBRANCH   2  19
BRANCH   1  27
ATOM     27  C   UNK d   1      25.435 -15.605  -1.903  0.00  0.00    -0.006 C 
ATOM     28  C   UNK d   1      26.554 -16.334  -1.610  0.00  0.00     0.103 C 
ATOM     29  N   UNK d   1      26.384 -17.273  -0.648  0.00  0.00    -0.356 N 
ATOM     30  C   UNK d   1      25.050 -17.473  -0.533  0.00  0.00     0.045 A 
ATOM     31  C   UNK d   1      24.385 -18.487   0.155  0.00  0.00     0.030 A 
ATOM     32  C   UNK d   1      24.417 -16.423  -1.256  0.00  0.00     0.002 A 
ATOM     33  C   UNK d   1      23.002 -18.457   0.128  0.00  0.00     0.002 A 
ATOM     34  C   UNK d   1      22.327 -17.433  -0.539  0.00  0.00     0.001 A 
ATOM     35  C   UNK d   1      23.009 -16.404  -1.216  0.00  0.00     0.014 A 
BRANCH  29  36
ATOM     36  C   UNK d   1      27.509 -17.888   0.043  0.00  0.00     0.124 C 
ATOM     37  C   UNK d   1      28.848 -17.467  -0.524  0.00  0.00     0.027 C 
ENDBRANCH  29  36
ENDBRANCH   1  27
TORSDOF 11
ENDMDL
MODEL 6
REMARK VINA RESULT:    -7.188      1.811      3.278
REMARK INTER + INTRA:         -14.499
REMARK INTER:                 -10.470
REMARK INTRA:                  -4.029
REMARK CONF_INDEPENDENT:        3.281
REMARK UNBOUND:                -4.029
REMARK  11 active torsions:
REMARK  status: ('A' for Active; 'I' for Inactive)
REMARK    1  A    between atoms: C_2  and  N_3 
REMARK    2  A    between atoms: C_5  and  C_6 
REMARK    3  A    between atoms: C_7  and  N_8 
REMARK    4  A    between atoms: C_7  and  C_23 
REMARK       I    between atoms: N_8  and  C_9 
REMARK    5  A    between atoms: C_9  and  C_11 
REMARK    6  A    between atoms: C_13  and  O_14 
REMARK    7  A    between atoms: C_16  and  O_17 
REMARK    8  A    between atoms: C_19  and  O_20 
REMARK       I    between atoms: C_23  and  N_25 
REMARK    9  A    between atoms: N_25  and  CA_26 
REMARK   10  A    between atoms: CA_26  and  C_27 
REMARK   11  A    between atoms: C_27  and  O_28 
ROOT
ATOM      1  C   UNK d   1      26.336 -14.519  -3.440  0.00  0.00     0.043 C 
ATOM      2  C   UNK d   1      26.898 -14.310  -4.684  0.00  0.00     0.084 C 
ENDROOT
BRANCH   2   3
ATOM      3  N   UNK d   1      27.701 -15.242  -5.381  0.00  0.00    -0.220 NA
ATOM      4  C   UNK d   0      29.064 -15.062  -5.361  0.00  0.00     0.235 C 
ATOM      5  O   UNK d   0      29.545 -13.943  -5.343  0.00  0.00    -0.274 OA
ATOM      6  H   UNK d   1      27.415 -15.461  -6.321  0.00  0.00     0.137 HD
BRANCH   4   7
ATOM      7  C   UNK d   0      30.017 -16.156  -5.666  0.00  0.00     0.032 C 
ATOM      8  C   UNK d   0      30.406 -16.738  -6.898  0.00  0.00     0.056 C 
ATOM      9  C   UNK d   0      30.975 -18.033  -6.923  0.00  0.00     0.105 C 
ATOM     10  C   UNK d   0      31.153 -18.717  -5.700  0.00  0.00     0.135 C 
ATOM     11  C   UNK d   0      30.647 -18.163  -4.512  0.00  0.00     0.105 C 
ATOM     12  C   UNK d   0      30.052 -16.927  -4.531  0.00  0.00     0.056 C 
BRANCH   9  13
ATOM     13  O   UNK d   0      31.285 -18.518  -8.183  0.00  0.00    -0.353 OA
ATOM     14  C   UNK d   0      30.780 -19.813  -8.537  0.00  0.00     0.210 C 
ENDBRANCH   9  13
BRANCH  10  15
ATOM     15  O   UNK d   0      31.823 -19.905  -5.752  0.00  0.00    -0.351 OA
ATOM     16  C   UNK d   0      31.156 -21.087  -5.364  0.00  0.00     0.210 C 
ENDBRANCH  10  15
BRANCH  11  17
ATOM     17  O   UNK d   0      30.735 -18.845  -3.335  0.00  0.00    -0.353 OA
ATOM     18  C   UNK d   0      32.010 -18.955  -2.722  0.00  0.00     0.210 C 
ENDBRANCH  11  17
ENDBRANCH   4   7
ENDBRANCH   2   3
BRANCH   2  19
ATOM     19  C   UNK d   1      26.650 -12.938  -5.399  0.00  0.00     0.263 C 
ATOM     20  O   UNK d   1      25.797 -12.138  -5.017  0.00  0.00    -0.267 OA
ATOM     21  N   GLY d   2      27.443 -12.671  -6.509  0.00  0.00    -0.354 N 
ATOM     22  H   GLY d   2      28.163 -13.296  -6.806  0.00  0.00     0.162 HD
BRANCH  21  23
ATOM     23  CA  GLY d   2      27.281 -11.498  -7.366  0.00  0.00     0.149 C 
BRANCH  23  24
ATOM     24  C   GLY d   2      28.087 -11.623  -8.670  0.00  0.00     0.183 C 
BRANCH  24  25
ATOM     25  O   GLY d   2      29.118 -12.593  -8.562  0.00  0.00    -0.399 OA
ATOM     26  H   GLY d   2      28.904 -13.324  -9.167  0.00  0.00     0.209 HD
ENDBRANCH  24  25
ENDBRANCH  23  24
ENDBRANCH  21  23
ENDBRANCH   2  19
BRANCH   1  27
ATOM     27  C   UNK d   1      26.391 -15.638  -2.451  0.00  0.00    -0.006 C 
ATOM     28  C   UNK d   1      27.495 -16.331  -2.038  0.00  0.00     0.103 C 
ATOM     29  N   UNK d   1      27.307 -17.091  -0.932  0.00  0.00    -0.356 N 
ATOM     30  C   UNK d   1      25.969 -17.242  -0.788  0.00  0.00     0.045 A 
ATOM     31  C   UNK d   1      25.285 -18.111   0.059  0.00  0.00     0.030 A 
ATOM     32  C   UNK d   1      25.357 -16.315  -1.678  0.00  0.00     0.002 A 
ATOM     33  C   UNK d   1      23.903 -18.058   0.025  0.00  0.00     0.002 A 
ATOM     34  C   UNK d   1      23.248 -17.147  -0.806  0.00  0.00     0.001 A 
ATOM     35  C   UNK d   1      23.950 -16.261  -1.645  0.00  0.00     0.014 A 
BRANCH  29  36
ATOM     36  C   UNK d   1      28.420 -17.604  -0.145  0.00  0.00     0.124 C 
ATOM     37  C   UNK d   1      29.750 -16.998  -0.542  0.00  0.00     0.027 C 
ENDBRANCH  29  36
ENDBRANCH   1  27
TORSDOF 11
ENDMDL
MODEL 7
REMARK VINA RESULT:    -7.173      1.640      2.913
REMARK INTER + INTRA:         -14.605
REMARK INTER:                 -10.454
REMARK INTRA:                  -4.151
REMARK CONF_INDEPENDENT:        3.281
REMARK UNBOUND:                -4.151
REMARK  11 active torsions:
REMARK  status: ('A' for Active; 'I' for Inactive)
REMARK    1  A    between atoms: C_2  and  N_3 
REMARK    2  A    between atoms: C_5  and  C_6 
REMARK    3  A    between atoms: C_7  and  N_8 
REMARK    4  A    between atoms: C_7  and  C_23 
REMARK       I    between atoms: N_8  and  C_9 
REMARK    5  A    between atoms: C_9  and  C_11 
REMARK    6  A    between atoms: C_13  and  O_14 
REMARK    7  A    between atoms: C_16  and  O_17 
REMARK    8  A    between atoms: C_19  and  O_20 
REMARK       I    between atoms: C_23  and  N_25 
REMARK    9  A    between atoms: N_25  and  CA_26 
REMARK   10  A    between atoms: CA_26  and  C_27 
REMARK   11  A    between atoms: C_27  and  O_28 
ROOT
ATOM      1  C   UNK d   1      25.417 -14.536  -3.135  0.00  0.00     0.043 C 
ATOM      2  C   UNK d   1      26.281 -14.486  -4.212  0.00  0.00     0.084 C 
ENDROOT
BRANCH   2   3
ATOM      3  N   UNK d   1      27.130 -15.538  -4.624  0.00  0.00    -0.220 NA
ATOM      4  C   UNK d   0      28.443 -15.506  -4.217  0.00  0.00     0.235 C 
ATOM      5  O   UNK d   0      29.030 -14.447  -4.090  0.00  0.00    -0.274 OA
ATOM      6  H   UNK d   1      27.097 -15.780  -5.601  0.00  0.00     0.137 HD
BRANCH   4   7
ATOM      7  C   UNK d   0      29.304 -16.714  -4.206  0.00  0.00     0.032 C 
ATOM      8  C   UNK d   0      30.036 -17.328  -3.160  0.00  0.00     0.056 C 
ATOM      9  C   UNK d   0      31.118 -18.188  -3.461  0.00  0.00     0.105 C 
ATOM     10  C   UNK d   0      31.436 -18.425  -4.817  0.00  0.00     0.135 C 
ATOM     11  C   UNK d   0      30.769 -17.708  -5.825  0.00  0.00     0.105 C 
ATOM     12  C   UNK d   0      29.759 -16.840  -5.494  0.00  0.00     0.056 C 
BRANCH   9  13
ATOM     13  O   UNK d   0      31.786 -18.704  -2.363  0.00  0.00    -0.353 OA
ATOM     14  C   UNK d   0      31.160 -18.562  -1.080  0.00  0.00     0.210 C 
ENDBRANCH   9  13
BRANCH  10  15
ATOM     15  O   UNK d   0      32.398 -19.360  -5.069  0.00  0.00    -0.351 OA
ATOM     16  C   UNK d   0      32.106 -20.723  -4.845  0.00  0.00     0.210 C 
ENDBRANCH  10  15
BRANCH  11  17
ATOM     17  O   UNK d   0      31.119 -17.861  -7.133  0.00  0.00    -0.353 OA
ATOM     18  C   UNK d   0      30.882 -19.120  -7.744  0.00  0.00     0.210 C 
ENDBRANCH  11  17
ENDBRANCH   4   7
ENDBRANCH   2   3
BRANCH   2  19
ATOM     19  C   UNK d   1      26.353 -13.167  -5.055  0.00  0.00     0.263 C 
ATOM     20  O   UNK d   1      25.493 -12.290  -4.986  0.00  0.00    -0.267 OA
ATOM     21  N   GLY d   2      27.445 -13.040  -5.907  0.00  0.00    -0.354 N 
ATOM     22  H   GLY d   2      28.168 -13.728  -5.943  0.00  0.00     0.162 HD
BRANCH  21  23
ATOM     23  CA  GLY d   2      27.623 -11.936  -6.847  0.00  0.00     0.149 C 
BRANCH  23  24
ATOM     24  C   GLY d   2      28.594 -12.301  -7.983  0.00  0.00     0.183 C 
BRANCH  24  25
ATOM     25  O   GLY d   2      29.053 -13.640  -7.877  0.00  0.00    -0.399 OA
ATOM     26  H   GLY d   2      28.918 -14.071  -8.739  0.00  0.00     0.209 HD
ENDBRANCH  24  25
ENDBRANCH  23  24
ENDBRANCH  21  23
ENDBRANCH   2  19
BRANCH   1  27
ATOM     27  C   UNK d   1      25.118 -15.564  -2.092  0.00  0.00    -0.006 C 
ATOM     28  C   UNK d   1      23.890 -15.941  -1.624  0.00  0.00     0.103 C 
ATOM     29  N   UNK d   1      23.888 -17.085  -0.898  0.00  0.00    -0.356 N 
ATOM     30  C   UNK d   1      25.169 -17.312  -0.524  0.00  0.00     0.045 A 
ATOM     31  C   UNK d   1      25.647 -18.230   0.408  0.00  0.00     0.030 A 
ATOM     32  C   UNK d   1      25.978 -16.421  -1.285  0.00  0.00     0.002 A 
ATOM     33  C   UNK d   1      27.018 -18.272   0.597  0.00  0.00     0.002 A 
ATOM     34  C   UNK d   1      27.862 -17.444  -0.144  0.00  0.00     0.001 A 
ATOM     35  C   UNK d   1      27.369 -16.532  -1.096  0.00  0.00     0.014 A 
BRANCH  29  36
ATOM     36  C   UNK d   1      22.665 -17.828  -0.625  0.00  0.00     0.124 C 
ATOM     37  C   UNK d   1      22.817 -19.317  -0.855  0.00  0.00     0.027 C 
ENDBRANCH  29  36
ENDBRANCH   1  27
TORSDOF 11
ENDMDL
MODEL 8
REMARK VINA RESULT:    -7.107      1.153      2.489
REMARK INTER + INTRA:         -14.396
REMARK INTER:                 -10.389
REMARK INTRA:                  -4.008
REMARK CONF_INDEPENDENT:        3.281
REMARK UNBOUND:                -4.008
REMARK  11 active torsions:
REMARK  status: ('A' for Active; 'I' for Inactive)
REMARK    1  A    between atoms: C_2  and  N_3 
REMARK    2  A    between atoms: C_5  and  C_6 
REMARK    3  A    between atoms: C_7  and  N_8 
REMARK    4  A    between atoms: C_7  and  C_23 
REMARK       I    between atoms: N_8  and  C_9 
REMARK    5  A    between atoms: C_9  and  C_11 
REMARK    6  A    between atoms: C_13  and  O_14 
REMARK    7  A    between atoms: C_16  and  O_17 
REMARK    8  A    between atoms: C_19  and  O_20 
REMARK       I    between atoms: C_23  and  N_25 
REMARK    9  A    between atoms: N_25  and  CA_26 
REMARK   10  A    between atoms: CA_26  and  C_27 
REMARK   11  A    between atoms: C_27  and  O_28 
ROOT
ATOM      1  C   UNK d   1      25.061 -14.252  -2.738  0.00  0.00     0.043 C 
ATOM      2  C   UNK d   1      25.996 -13.718  -3.604  0.00  0.00     0.084 C 
ENDROOT
BRANCH   2   3
ATOM      3  N   UNK d   1      27.194 -14.354  -4.000  0.00  0.00    -0.220 NA
ATOM      4  C   UNK d   0      27.249 -14.899  -5.261  0.00  0.00     0.235 C 
ATOM      5  O   UNK d   0      26.259 -15.395  -5.770  0.00  0.00    -0.274 OA
ATOM      6  H   UNK d   1      27.589 -15.009  -3.344  0.00  0.00     0.137 HD
BRANCH   4   7
ATOM      7  C   UNK d   0      28.530 -15.198  -5.945  0.00  0.00     0.032 C 
ATOM      8  C   UNK d   0      29.492 -16.214  -5.720  0.00  0.00     0.056 C 
ATOM      9  C   UNK d   0      30.820 -16.050  -6.182  0.00  0.00     0.105 C 
ATOM     10  C   UNK d   0      31.152 -14.866  -6.876  0.00  0.00     0.135 C 
ATOM     11  C   UNK d   0      30.208 -13.829  -6.976  0.00  0.00     0.105 C 
ATOM     12  C   UNK d   0      28.945 -14.001  -6.469  0.00  0.00     0.056 C 
BRANCH   9  13
ATOM     13  O   UNK d   0      31.684 -17.088  -5.876  0.00  0.00    -0.353 OA
ATOM     14  C   UNK d   0      31.129 -18.407  -5.778  0.00  0.00     0.210 C 
ENDBRANCH   9  13
BRANCH  10  15
ATOM     15  O   UNK d   0      32.402 -14.801  -7.419  0.00  0.00    -0.351 OA
ATOM     16  C   UNK d   0      32.745 -15.689  -8.462  0.00  0.00     0.210 C 
ENDBRANCH  10  15
BRANCH  11  17
ATOM     17  O   UNK d   0      30.537 -12.646  -7.569  0.00  0.00    -0.353 OA
ATOM     18  C   UNK d   0      30.490 -12.575  -8.986  0.00  0.00     0.210 C 
ENDBRANCH  11  17
ENDBRANCH   4   7
ENDBRANCH   2   3
BRANCH   2  19
ATOM     19  C   UNK d   1      25.736 -12.293  -4.201  0.00  0.00     0.263 C 
ATOM     20  O   UNK d   1      25.165 -11.405  -3.570  0.00  0.00    -0.267 OA
ATOM     21  N   GLY d   2      26.179 -12.082  -5.503  0.00  0.00    -0.354 N 
ATOM     22  H   GLY d   2      26.676 -12.783  -6.010  0.00  0.00     0.162 HD
BRANCH  21  23
ATOM     23  CA  GLY d   2      25.929 -10.859  -6.262  0.00  0.00     0.149 C 
BRANCH  23  24
ATOM     24  C   GLY d   2      26.934 -10.682  -7.413  0.00  0.00     0.183 C 
BRANCH  24  25
ATOM     25  O   GLY d   2      27.585 -11.901  -7.738  0.00  0.00    -0.399 OA
ATOM     26  H   GLY d   2      28.537 -11.783  -7.577  0.00  0.00     0.209 HD
ENDBRANCH  24  25
ENDBRANCH  23  24
ENDBRANCH  21  23
ENDBRANCH   2  19
BRANCH   1  27
ATOM     27  C   UNK d   1      24.984 -15.517  -1.946  0.00  0.00    -0.006 C 
ATOM     28  C   UNK d   1      23.864 -16.236  -1.633  0.00  0.00     0.103 C 
ATOM     29  N   UNK d   1      24.105 -17.482  -1.159  0.00  0.00    -0.356 N 
ATOM     30  C   UNK d   1      25.402 -17.507  -0.770  0.00  0.00     0.045 A 
ATOM     31  C   UNK d   1      26.060 -18.480  -0.021  0.00  0.00     0.030 A 
ATOM     32  C   UNK d   1      26.003 -16.325  -1.286  0.00  0.00     0.002 A 
ATOM     33  C   UNK d   1      27.405 -18.271   0.230  0.00  0.00     0.002 A 
ATOM     34  C   UNK d   1      28.055 -17.144  -0.278  0.00  0.00     0.001 A 
ATOM     35  C   UNK d   1      27.383 -16.177  -1.048  0.00  0.00     0.014 A 
BRANCH  29  36
ATOM     36  C   UNK d   1      23.071 -18.507  -1.112  0.00  0.00     0.124 C 
ATOM     37  C   UNK d   1      22.371 -18.575   0.230  0.00  0.00     0.027 C 
ENDBRANCH  29  36
ENDBRANCH   1  27
TORSDOF 11
ENDMDL
MODEL 9
REMARK VINA RESULT:    -7.016      1.694      2.646
REMARK INTER + INTRA:         -14.511
REMARK INTER:                 -10.297
REMARK INTRA:                  -4.214
REMARK CONF_INDEPENDENT:        3.281
REMARK UNBOUND:                -4.214
REMARK  11 active torsions:
REMARK  status: ('A' for Active; 'I' for Inactive)
REMARK    1  A    between atoms: C_2  and  N_3 
REMARK    2  A    between atoms: C_5  and  C_6 
REMARK    3  A    between atoms: C_7  and  N_8 
REMARK    4  A    between atoms: C_7  and  C_23 
REMARK       I    between atoms: N_8  and  C_9 
REMARK    5  A    between atoms: C_9  and  C_11 
REMARK    6  A    between atoms: C_13  and  O_14 
REMARK    7  A    between atoms: C_16  and  O_17 
REMARK    8  A    between atoms: C_19  and  O_20 
REMARK       I    between atoms: C_23  and  N_25 
REMARK    9  A    between atoms: N_25  and  CA_26 
REMARK   10  A    between atoms: CA_26  and  C_27 
REMARK   11  A    between atoms: C_27  and  O_28 
ROOT
ATOM      1  C   UNK d   1      25.729 -14.376  -3.504  0.00  0.00     0.043 C 
ATOM      2  C   UNK d   1      26.515 -14.209  -4.628  0.00  0.00     0.084 C 
ENDROOT
BRANCH   2   3
ATOM      3  N   UNK d   1      27.401 -15.177  -5.152  0.00  0.00    -0.220 NA
ATOM      4  C   UNK d   0      28.749 -14.995  -4.952  0.00  0.00     0.235 C 
ATOM      5  O   UNK d   0      29.230 -13.876  -4.929  0.00  0.00    -0.274 OA
ATOM      6  H   UNK d   1      27.247 -15.449  -6.110  0.00  0.00     0.137 HD
BRANCH   4   7
ATOM      7  C   UNK d   0      29.728 -16.103  -5.060  0.00  0.00     0.032 C 
ATOM      8  C   UNK d   0      30.142 -16.877  -6.172  0.00  0.00     0.056 C 
ATOM      9  C   UNK d   0      30.739 -18.144  -5.973  0.00  0.00     0.105 C 
ATOM     10  C   UNK d   0      30.917 -18.606  -4.651  0.00  0.00     0.135 C 
ATOM     11  C   UNK d   0      30.387 -17.870  -3.577  0.00  0.00     0.105 C 
ATOM     12  C   UNK d   0      29.767 -16.669  -3.811  0.00  0.00     0.056 C 
BRANCH   9  13
ATOM     13  O   UNK d   0      31.071 -18.829  -7.130  0.00  0.00    -0.353 OA
ATOM     14  C   UNK d   0      30.405 -20.075  -7.378  0.00  0.00     0.210 C 
ENDBRANCH   9  13
BRANCH  10  15
ATOM     15  O   UNK d   0      31.612 -19.771  -4.494  0.00  0.00    -0.351 OA
ATOM     16  C   UNK d   0      30.902 -20.969  -4.265  0.00  0.00     0.210 C 
ENDBRANCH  10  15
BRANCH  11  17
ATOM     17  O   UNK d   0      30.476 -18.341  -2.301  0.00  0.00    -0.353 OA
ATOM     18  C   UNK d   0      31.623 -17.993  -1.541  0.00  0.00     0.210 C 
ENDBRANCH  11  17
ENDBRANCH   4   7
ENDBRANCH   2   3
BRANCH   2  19
ATOM     19  C   UNK d   1      26.445 -12.844  -5.395  0.00  0.00     0.263 C 
ATOM     20  O   UNK d   1      25.596 -11.989  -5.149  0.00  0.00    -0.267 OA
ATOM     21  N   GLY d   2      27.397 -12.649  -6.391  0.00  0.00    -0.354 N 
ATOM     22  H   GLY d   2      28.114 -13.320  -6.573  0.00  0.00     0.162 HD
BRANCH  21  23
ATOM     23  CA  GLY d   2      27.420 -11.492  -7.282  0.00  0.00     0.149 C 
BRANCH  23  24
ATOM     24  C   GLY d   2      28.193 -11.783  -8.580  0.00  0.00     0.183 C 
BRANCH  24  25
ATOM     25  O   GLY d   2      29.019 -12.930  -8.457  0.00  0.00    -0.399 OA
ATOM     26  H   GLY d   2      28.906 -13.468  -9.261  0.00  0.00     0.209 HD
ENDBRANCH  24  25
ENDBRANCH  23  24
ENDBRANCH  21  23
ENDBRANCH   2  19
BRANCH   1  27
ATOM     27  C   UNK d   1      25.566 -15.477  -2.507  0.00  0.00    -0.006 C 
ATOM     28  C   UNK d   1      24.405 -16.089  -2.124  0.00  0.00     0.103 C 
ATOM     29  N   UNK d   1      24.573 -17.239  -1.427  0.00  0.00    -0.356 N 
ATOM     30  C   UNK d   1      25.851 -17.240  -0.980  0.00  0.00     0.045 A 
ATOM     31  C   UNK d   1      26.437 -18.087  -0.043  0.00  0.00     0.030 A 
ATOM     32  C   UNK d   1      26.523 -16.190  -1.668  0.00  0.00     0.002 A 
ATOM     33  C   UNK d   1      27.779 -17.884   0.230  0.00  0.00     0.002 A 
ATOM     34  C   UNK d   1      28.496 -16.890  -0.438  0.00  0.00     0.001 A 
ATOM     35  C   UNK d   1      27.897 -16.051  -1.396  0.00  0.00     0.014 A 
BRANCH  29  36
ATOM     36  C   UNK d   1      23.495 -18.202  -1.248  0.00  0.00     0.124 C 
ATOM     37  C   UNK d   1      22.549 -17.824  -0.127  0.00  0.00     0.027 C 
ENDBRANCH  29  36
ENDBRANCH   1  27
TORSDOF 11
ENDMDL
