MODEL 1
REMARK VINA RESULT:    -9.346      0.000      0.000
REMARK INTER + INTRA:         -14.735
REMARK INTER:                 -12.329
REMARK INTRA:                  -2.406
REMARK CONF_INDEPENDENT:        2.983
REMARK UNBOUND:                -2.406
REMARK  10 active torsions:
REMARK  status: ('A' for Active; 'I' for Inactive)
REMARK    1  A    between atoms: C_2  and  C_3 
REMARK    2  A    between atoms: C_3  and  O_4 
REMARK    3  A    between atoms: C_9  and  N_10 
REMARK    4  A    between atoms: N_10  and  C_11 
REMARK    5  A    between atoms: C_15  and  O_16 
REMARK    6  A    between atoms: C_20  and  C_21 
REMARK    7  A    between atoms: C_21  and  C_22 
REMARK       I    between atoms: C_22  and  N_24 
REMARK    8  A    between atoms: N_24  and  C_25 
REMARK    9  A    between atoms: C_25  and  C_26 
REMARK   10  A    between atoms: C_35  and  O_36 
ROOT
ATOM      1  C   UNL d   1      26.611 -13.182  -0.547  0.00  0.00     0.020 C 
ATOM      2  C   UNL d   1      26.028 -12.928  -2.386  0.00  0.00     0.008 C 
ATOM      3  C   UNL d   1      27.274 -13.571  -2.829  0.00  0.00     0.012 C 
ATOM      4  C   UNL d   1      28.488 -12.468  -2.053  0.00  0.00     0.054 C 
ATOM      5  C   UNL d   1      29.124 -13.354  -1.056  0.00  0.00     0.012 A 
ATOM      6  S   UNL d   1      29.757 -12.738   0.413  0.00  0.00    -0.055 SA
ATOM      7  C   UNL d   1      29.616 -14.329   1.051  0.00  0.00     0.171 A 
ATOM      8  N   UNL d   1      29.135 -15.243   0.232  0.00  0.00    -0.227 NA
ATOM      9  C   UNL d   1      28.799 -14.710  -0.970  0.00  0.00     0.056 A 
ATOM     10  C   UNL d   1      27.757 -15.499  -1.914  0.00  0.00     0.055 C 
ATOM     11  C   UNL d   1      27.769 -14.821  -3.268  0.00  0.00    -0.030 C 
ATOM     12  C   UNL d   1      26.933 -15.575  -4.354  0.00  0.00     0.016 C 
ATOM     13  C   UNL d   1      28.891 -14.027  -3.987  0.00  0.00     0.013 C 
ATOM     14  C   UNL d   1      28.040 -12.467  -4.578  0.00  0.00     0.033 C 
ATOM     15  C   UNL d   1      26.638 -11.743  -3.420  0.00  0.00     0.128 C 
ENDROOT
BRANCH  10  16
ATOM     16  C   UNL d   1      26.005 -15.742  -1.400  0.00  0.00     0.108 C 
BRANCH  16  17
ATOM     17  C   UNL d   1      25.022 -17.196  -1.059  0.00  0.00     0.198 C 
ATOM     18  O   UNL d   1      25.225 -18.049  -0.200  0.00  0.00    -0.280 OA
ATOM     19  N   UNL d   1      23.816 -17.650  -1.384  0.00  0.00    -0.257 NA
ATOM     20  H   UNL d   1      23.101 -16.957  -1.476  0.00  0.00     0.130 HD
BRANCH  19  21
ATOM     21  C   UNL d   1      23.461 -18.955  -0.500  0.00  0.00     0.160 C 
BRANCH  21  22
ATOM     22  C   UNL d   1      22.090 -18.986  -0.526  0.00  0.00     0.065 A 
ATOM     23  C   UNL d   1      21.334 -19.052   0.614  0.00  0.00     0.036 A 
ATOM     24  C   UNL d   1      20.081 -19.325   0.108  0.00  0.00     0.027 A 
ATOM     25  C   UNL d   1      20.182 -19.412  -1.270  0.00  0.00     0.142 A 
ATOM     26  O   UNL d   1      21.455 -19.215  -1.667  0.00  0.00    -0.326 OA
ENDBRANCH  21  22
ENDBRANCH  19  21
ENDBRANCH  16  17
ENDBRANCH  10  16
BRANCH   7  27
ATOM     27  N   UNL d   1      29.956 -14.593   2.325  0.00  0.00    -0.335 N 
ATOM     28  H   UNL d   1      30.589 -15.351   2.538  0.00  0.00     0.168 HD
BRANCH  27  29
ATOM     29  C   UNL d   1      29.256 -14.055   3.415  0.00  0.00     0.036 A 
ATOM     30  C   UNL d   1      28.471 -12.897   3.301  0.00  0.00     0.029 A 
ATOM     31  C   UNL d   1      27.780 -12.388   4.401  0.00  0.00     0.005 A 
ATOM     32  C   UNL d   1      27.879 -13.023   5.639  0.00  0.00     0.036 A 
ATOM     33  C   UNL d   1      28.677 -14.157   5.758  0.00  0.00     0.067 A 
ATOM     34  C   UNL d   1      29.363 -14.668   4.662  0.00  0.00     0.066 A 
BRANCH  33  35
ATOM     35  O   UNL d   1      28.816 -14.824   6.940  0.00  0.00    -0.361 OA
ATOM     36  H   UNL d   1      28.508 -15.737   6.829  0.00  0.00     0.217 HD
ENDBRANCH  33  35
ENDBRANCH  27  29
ENDBRANCH   7  27
BRANCH   2  37
ATOM     37  C   UNL d   1      24.687 -13.697  -3.323  0.00  0.00     0.176 C 
BRANCH  37  38
ATOM     38  O   UNL d   1      24.587 -13.414  -4.713  0.00  0.00    -0.400 OA
ATOM     39  H   UNL d   1      24.735 -12.466  -4.836  0.00  0.00     0.209 HD
ENDBRANCH  37  38
ENDBRANCH   2  37
BRANCH  15  40
ATOM     40  O   UNL d   1      25.615 -10.982  -4.038  0.00  0.00    -0.395 OA
ATOM     41  H   UNL d   1      24.745 -11.378  -3.923  0.00  0.00     0.210 HD
ENDBRANCH  15  40
TORSDOF 10
ENDMDL
MODEL 2
REMARK VINA RESULT:    -7.952      3.556      6.299
REMARK INTER + INTRA:         -14.125
REMARK INTER:                 -10.935
REMARK INTRA:                  -3.189
REMARK CONF_INDEPENDENT:        2.983
REMARK UNBOUND:                -3.189
REMARK  10 active torsions:
REMARK  status: ('A' for Active; 'I' for Inactive)
REMARK    1  A    between atoms: C_2  and  C_3 
REMARK    2  A    between atoms: C_3  and  O_4 
REMARK    3  A    between atoms: C_9  and  N_10 
REMARK    4  A    between atoms: N_10  and  C_11 
REMARK    5  A    between atoms: C_15  and  O_16 
REMARK    6  A    between atoms: C_20  and  C_21 
REMARK    7  A    between atoms: C_21  and  C_22 
REMARK       I    between atoms: C_22  and  N_24 
REMARK    8  A    between atoms: N_24  and  C_25 
REMARK    9  A    between atoms: C_25  and  C_26 
REMARK   10  A    between atoms: C_35  and  O_36 
ROOT
ATOM      1  C   UNL d   1      28.840 -14.372  -2.950  0.00  0.00     0.020 C 
ATOM      2  C   UNL d   1      27.539 -13.375  -1.903  0.00  0.00     0.008 C 
ATOM      3  C   UNL d   1      26.727 -13.232  -3.121  0.00  0.00     0.012 C 
ATOM      4  C   UNL d   1      27.925 -12.396  -4.199  0.00  0.00     0.054 C 
ATOM      5  C   UNL d   1      28.174 -13.416  -5.240  0.00  0.00     0.012 A 
ATOM      6  S   UNL d   1      29.683 -13.521  -6.046  0.00  0.00    -0.055 SA
ATOM      7  C   UNL d   1      29.276 -15.147  -6.430  0.00  0.00     0.171 A 
ATOM      8  N   UNL d   1      28.108 -15.574  -5.991  0.00  0.00    -0.227 NA
ATOM      9  C   UNL d   1      27.469 -14.622  -5.264  0.00  0.00     0.056 A 
ATOM     10  C   UNL d   1      26.309 -15.066  -4.238  0.00  0.00     0.055 C 
ATOM     11  C   UNL d   1      25.610 -13.806  -3.771  0.00  0.00    -0.030 C 
ATOM     12  C   UNL d   1      24.342 -14.080  -2.896  0.00  0.00     0.016 C 
ATOM     13  C   UNL d   1      25.424 -12.437  -4.475  0.00  0.00     0.013 C 
ATOM     14  C   UNL d   1      25.912 -11.183  -3.174  0.00  0.00     0.033 C 
ATOM     15  C   UNL d   1      27.359 -11.698  -1.961  0.00  0.00     0.128 C 
ENDROOT
BRANCH  10  16
ATOM     16  C   UNL d   1      26.690 -16.101  -2.763  0.00  0.00     0.108 C 
BRANCH  16  17
ATOM     17  C   UNL d   1      25.675 -17.062  -1.648  0.00  0.00     0.198 C 
ATOM     18  O   UNL d   1      25.699 -17.052  -0.420  0.00  0.00    -0.280 OA
ATOM     19  N   UNL d   1      24.574 -17.800  -1.731  0.00  0.00    -0.257 NA
ATOM     20  H   UNL d   1      23.886 -17.483  -2.386  0.00  0.00     0.130 HD
BRANCH  19  21
ATOM     21  C   UNL d   1      24.052 -18.184  -0.251  0.00  0.00     0.160 C 
BRANCH  21  22
ATOM     22  C   UNL d   1      22.729 -18.483  -0.453  0.00  0.00     0.065 A 
ATOM     23  C   UNL d   1      21.839 -18.614   0.579  0.00  0.00     0.036 A 
ATOM     24  C   UNL d   1      20.745 -19.161  -0.058  0.00  0.00     0.027 A 
ATOM     25  C   UNL d   1      21.062 -19.324  -1.395  0.00  0.00     0.142 A 
ATOM     26  O   UNL d   1      22.321 -18.911  -1.639  0.00  0.00    -0.326 OA
ENDBRANCH  21  22
ENDBRANCH  19  21
ENDBRANCH  16  17
ENDBRANCH  10  16
BRANCH   7  27
ATOM     27  N   UNL d   1      30.131 -15.928  -7.115  0.00  0.00    -0.335 N 
ATOM     28  H   UNL d   1      30.366 -15.709  -8.073  0.00  0.00     0.168 HD
BRANCH  27  29
ATOM     29  C   UNL d   1      30.502 -17.204  -6.669  0.00  0.00     0.036 A 
ATOM     30  C   UNL d   1      30.891 -18.222  -7.555  0.00  0.00     0.029 A 
ATOM     31  C   UNL d   1      31.262 -19.481  -7.080  0.00  0.00     0.005 A 
ATOM     32  C   UNL d   1      31.232 -19.746  -5.712  0.00  0.00     0.036 A 
ATOM     33  C   UNL d   1      30.823 -18.745  -4.836  0.00  0.00     0.067 A 
ATOM     34  C   UNL d   1      30.457 -17.488  -5.305  0.00  0.00     0.066 A 
BRANCH  33  35
ATOM     35  O   UNL d   1      30.771 -18.939  -3.486  0.00  0.00    -0.361 OA
ATOM     36  H   UNL d   1      31.380 -19.655  -3.243  0.00  0.00     0.217 HD
ENDBRANCH  33  35
ENDBRANCH  27  29
ENDBRANCH   7  27
BRANCH   2  37
ATOM     37  C   UNL d   1      26.414 -13.904  -0.591  0.00  0.00     0.176 C 
BRANCH  37  38
ATOM     38  O   UNL d   1      26.719 -13.537   0.748  0.00  0.00    -0.400 OA
ATOM     39  H   UNL d   1      27.203 -12.700   0.726  0.00  0.00     0.209 HD
ENDBRANCH  37  38
ENDBRANCH   2  37
BRANCH  15  40
ATOM     40  O   UNL d   1      27.367 -11.106  -0.673  0.00  0.00    -0.395 OA
ATOM     41  H   UNL d   1      26.776 -11.557  -0.061  0.00  0.00     0.210 HD
ENDBRANCH  15  40
TORSDOF 10
ENDMDL
MODEL 3
REMARK VINA RESULT:    -7.727      4.137      8.035
REMARK INTER + INTRA:         -13.737
REMARK INTER:                 -10.710
REMARK INTRA:                  -3.026
REMARK CONF_INDEPENDENT:        2.983
REMARK UNBOUND:                -3.026
REMARK  10 active torsions:
REMARK  status: ('A' for Active; 'I' for Inactive)
REMARK    1  A    between atoms: C_2  and  C_3 
REMARK    2  A    between atoms: C_3  and  O_4 
REMARK    3  A    between atoms: C_9  and  N_10 
REMARK    4  A    between atoms: N_10  and  C_11 
REMARK    5  A    between atoms: C_15  and  O_16 
REMARK    6  A    between atoms: C_20  and  C_21 
REMARK    7  A    between atoms: C_21  and  C_22 
REMARK       I    between atoms: C_22  and  N_24 
REMARK    8  A    between atoms: N_24  and  C_25 
REMARK    9  A    between atoms: C_25  and  C_26 
REMARK   10  A    between atoms: C_35  and  O_36 
ROOT
ATOM      1  C   UNL d   1      27.859 -13.104  -2.176  0.00  0.00     0.020 C 
ATOM      2  C   UNL d   1      29.121 -12.660  -3.589  0.00  0.00     0.008 C 
ATOM      3  C   UNL d   1      28.512 -13.716  -4.411  0.00  0.00     0.012 C 
ATOM      4  C   UNL d   1      28.766 -15.146  -3.322  0.00  0.00     0.054 C 
ATOM      5  C   UNL d   1      27.381 -15.507  -2.951  0.00  0.00     0.012 A 
ATOM      6  S   UNL d   1      27.019 -16.230  -1.440  0.00  0.00    -0.055 SA
ATOM      7  C   UNL d   1      25.405 -15.673  -1.648  0.00  0.00     0.171 A 
ATOM      8  N   UNL d   1      25.159 -15.002  -2.756  0.00  0.00    -0.227 NA
ATOM      9  C   UNL d   1      26.281 -14.847  -3.505  0.00  0.00     0.056 A 
ATOM     10  C   UNL d   1      26.333 -13.670  -4.605  0.00  0.00     0.055 C 
ATOM     11  C   UNL d   1      27.569 -13.894  -5.450  0.00  0.00    -0.030 C 
ATOM     12  C   UNL d   1      27.673 -12.927  -6.676  0.00  0.00     0.016 C 
ATOM     13  C   UNL d   1      28.328 -15.200  -5.799  0.00  0.00     0.013 C 
ATOM     14  C   UNL d   1      30.123 -14.789  -5.467  0.00  0.00     0.033 C 
ATOM     15  C   UNL d   1      30.482 -13.581  -3.969  0.00  0.00     0.128 C 
ENDROOT
BRANCH  10  16
ATOM     16  C   UNL d   1      26.284 -11.898  -4.102  0.00  0.00     0.108 C 
BRANCH  16  17
ATOM     17  C   UNL d   1      25.913 -10.388  -4.983  0.00  0.00     0.198 C 
ATOM     18  O   UNL d   1      26.087 -10.158  -6.177  0.00  0.00    -0.280 OA
ATOM     19  N   UNL d   1      25.219  -9.278  -4.757  0.00  0.00    -0.257 NA
ATOM     20  H   UNL d   1      24.385  -9.389  -4.216  0.00  0.00     0.130 HD
BRANCH  19  21
ATOM     21  C   UNL d   1      25.100  -8.414  -6.118  0.00  0.00     0.160 C 
BRANCH  21  22
ATOM     22  C   UNL d   1      23.954  -7.684  -5.925  0.00  0.00     0.065 A 
ATOM     23  C   UNL d   1      23.865  -6.357  -6.250  0.00  0.00     0.036 A 
ATOM     24  C   UNL d   1      22.674  -6.000  -5.654  0.00  0.00     0.027 A 
ATOM     25  C   UNL d   1      22.156  -7.116  -5.020  0.00  0.00     0.142 A 
ATOM     26  O   UNL d   1      22.975  -8.174  -5.178  0.00  0.00    -0.326 OA
ENDBRANCH  21  22
ENDBRANCH  19  21
ENDBRANCH  16  17
ENDBRANCH  10  16
BRANCH   7  27
ATOM     27  N   UNL d   1      24.472 -15.897  -0.705  0.00  0.00    -0.335 N 
ATOM     28  H   UNL d   1      24.462 -15.348   0.143  0.00  0.00     0.168 HD
BRANCH  27  29
ATOM     29  C   UNL d   1      23.674 -17.050  -0.698  0.00  0.00     0.036 A 
ATOM     30  C   UNL d   1      24.217 -18.334  -0.531  0.00  0.00     0.029 A 
ATOM     31  C   UNL d   1      23.397 -19.463  -0.522  0.00  0.00     0.005 A 
ATOM     32  C   UNL d   1      22.021 -19.325  -0.699  0.00  0.00     0.036 A 
ATOM     33  C   UNL d   1      21.486 -18.055  -0.889  0.00  0.00     0.067 A 
ATOM     34  C   UNL d   1      22.300 -16.928  -0.894  0.00  0.00     0.066 A 
BRANCH  33  35
ATOM     35  O   UNL d   1      20.148 -17.851  -1.068  0.00  0.00    -0.361 OA
ATOM     36  H   UNL d   1      20.017 -17.177  -1.753  0.00  0.00     0.217 HD
ENDBRANCH  33  35
ENDBRANCH  27  29
ENDBRANCH   7  27
BRANCH   2  37
ATOM     37  C   UNL d   1      29.256 -11.198  -4.643  0.00  0.00     0.176 C 
BRANCH  37  38
ATOM     38  O   UNL d   1      30.371 -11.099  -5.520  0.00  0.00    -0.400 OA
ATOM     39  H   UNL d   1      30.635 -11.996  -5.769  0.00  0.00     0.209 HD
ENDBRANCH  37  38
ENDBRANCH   2  37
BRANCH  15  40
ATOM     40  O   UNL d   1      31.664 -12.802  -4.033  0.00  0.00    -0.395 OA
ATOM     41  H   UNL d   1      31.610 -12.110  -4.701  0.00  0.00     0.210 HD
ENDBRANCH  15  40
TORSDOF 10
ENDMDL
MODEL 4
REMARK VINA RESULT:    -7.197      2.826      6.826
REMARK INTER + INTRA:         -14.632
REMARK INTER:                 -10.180
REMARK INTRA:                  -4.452
REMARK CONF_INDEPENDENT:        2.983
REMARK UNBOUND:                -4.452
REMARK  10 active torsions:
REMARK  status: ('A' for Active; 'I' for Inactive)
REMARK    1  A    between atoms: C_2  and  C_3 
REMARK    2  A    between atoms: C_3  and  O_4 
REMARK    3  A    between atoms: C_9  and  N_10 
REMARK    4  A    between atoms: N_10  and  C_11 
REMARK    5  A    between atoms: C_15  and  O_16 
REMARK    6  A    between atoms: C_20  and  C_21 
REMARK    7  A    between atoms: C_21  and  C_22 
REMARK       I    between atoms: C_22  and  N_24 
REMARK    8  A    between atoms: N_24  and  C_25 
REMARK    9  A    between atoms: C_25  and  C_26 
REMARK   10  A    between atoms: C_35  and  O_36 
ROOT
ATOM      1  C   UNL d   1      26.351 -12.129   1.681  0.00  0.00     0.020 C 
ATOM      2  C   UNL d   1      26.839 -10.324   2.220  0.00  0.00     0.008 C 
ATOM      3  C   UNL d   1      28.251 -10.725   2.142  0.00  0.00     0.012 C 
ATOM      4  C   UNL d   1      28.252 -12.104   3.321  0.00  0.00     0.054 C 
ATOM      5  C   UNL d   1      28.526 -13.264   2.447  0.00  0.00     0.012 A 
ATOM      6  S   UNL d   1      27.921 -14.825   2.815  0.00  0.00    -0.055 SA
ATOM      7  C   UNL d   1      28.120 -15.210   1.152  0.00  0.00     0.171 A 
ATOM      8  N   UNL d   1      28.598 -14.250   0.385  0.00  0.00    -0.227 NA
ATOM      9  C   UNL d   1      28.799 -13.105   1.086  0.00  0.00     0.056 A 
ATOM     10  C   UNL d   1      28.888 -11.705   0.292  0.00  0.00     0.055 C 
ATOM     11  C   UNL d   1      29.366 -10.657   1.275  0.00  0.00    -0.030 C 
ATOM     12  C   UNL d   1      29.669  -9.271   0.614  0.00  0.00     0.016 C 
ATOM     13  C   UNL d   1      30.251 -10.791   2.541  0.00  0.00     0.013 C 
ATOM     14  C   UNL d   1      29.320  -9.836   3.854  0.00  0.00     0.033 C 
ATOM     15  C   UNL d   1      27.366  -9.906   3.767  0.00  0.00     0.128 C 
ENDROOT
BRANCH  10  16
ATOM     16  C   UNL d   1      27.433 -11.032  -0.615  0.00  0.00     0.108 C 
BRANCH  16  17
ATOM     17  C   UNL d   1      26.644 -11.473  -2.157  0.00  0.00     0.198 C 
ATOM     18  O   UNL d   1      26.941 -11.089  -3.285  0.00  0.00    -0.280 OA
ATOM     19  N   UNL d   1      25.781 -12.392  -2.578  0.00  0.00    -0.257 NA
ATOM     20  H   UNL d   1      25.854 -13.290  -2.141  0.00  0.00     0.130 HD
BRANCH  19  21
ATOM     21  C   UNL d   1      25.693 -12.369  -4.191  0.00  0.00     0.160 C 
BRANCH  21  22
ATOM     22  C   UNL d   1      26.090 -13.634  -4.544  0.00  0.00     0.065 A 
ATOM     23  C   UNL d   1      27.365 -13.916  -4.957  0.00  0.00     0.036 A 
ATOM     24  C   UNL d   1      27.229 -15.199  -5.442  0.00  0.00     0.027 A 
ATOM     25  C   UNL d   1      25.905 -15.576  -5.297  0.00  0.00     0.142 A 
ATOM     26  O   UNL d   1      25.184 -14.580  -4.746  0.00  0.00    -0.326 OA
ENDBRANCH  21  22
ENDBRANCH  19  21
ENDBRANCH  16  17
ENDBRANCH  10  16
BRANCH   7  27
ATOM     27  N   UNL d   1      27.771 -16.420   0.678  0.00  0.00    -0.335 N 
ATOM     28  H   UNL d   1      28.464 -17.148   0.578  0.00  0.00     0.168 HD
BRANCH  27  29
ATOM     29  C   UNL d   1      26.544 -16.649   0.038  0.00  0.00     0.036 A 
ATOM     30  C   UNL d   1      25.810 -17.831   0.230  0.00  0.00     0.029 A 
ATOM     31  C   UNL d   1      24.589 -18.028  -0.415  0.00  0.00     0.005 A 
ATOM     32  C   UNL d   1      24.092 -17.052  -1.278  0.00  0.00     0.036 A 
ATOM     33  C   UNL d   1      24.831 -15.892  -1.487  0.00  0.00     0.067 A 
ATOM     34  C   UNL d   1      26.046 -15.690  -0.842  0.00  0.00     0.066 A 
BRANCH  33  35
ATOM     35  O   UNL d   1      24.401 -14.898  -2.319  0.00  0.00    -0.361 OA
ATOM     36  H   UNL d   1      25.170 -14.452  -2.708  0.00  0.00     0.217 HD
ENDBRANCH  33  35
ENDBRANCH  27  29
ENDBRANCH   7  27
BRANCH   2  37
ATOM     37  C   UNL d   1      26.699  -8.747   1.349  0.00  0.00     0.176 C 
BRANCH  37  38
ATOM     38  O   UNL d   1      25.744  -7.802   1.814  0.00  0.00    -0.400 OA
ATOM     39  H   UNL d   1      25.869  -7.695   2.767  0.00  0.00     0.209 HD
ENDBRANCH  37  38
ENDBRANCH   2  37
BRANCH  15  40
ATOM     40  O   UNL d   1      26.653  -8.806   4.305  0.00  0.00    -0.395 OA
ATOM     41  H   UNL d   1      26.721  -8.761   5.265  0.00  0.00     0.210 HD
ENDBRANCH  15  40
TORSDOF 10
ENDMDL
MODEL 5
REMARK VINA RESULT:    -6.821      2.272      6.635
REMARK INTER + INTRA:         -15.101
REMARK INTER:                  -9.804
REMARK INTRA:                  -5.297
REMARK CONF_INDEPENDENT:        2.983
REMARK UNBOUND:                -5.297
REMARK  10 active torsions:
REMARK  status: ('A' for Active; 'I' for Inactive)
REMARK    1  A    between atoms: C_2  and  C_3 
REMARK    2  A    between atoms: C_3  and  O_4 
REMARK    3  A    between atoms: C_9  and  N_10 
REMARK    4  A    between atoms: N_10  and  C_11 
REMARK    5  A    between atoms: C_15  and  O_16 
REMARK    6  A    between atoms: C_20  and  C_21 
REMARK    7  A    between atoms: C_21  and  C_22 
REMARK       I    between atoms: C_22  and  N_24 
REMARK    8  A    between atoms: N_24  and  C_25 
REMARK    9  A    between atoms: C_25  and  C_26 
REMARK   10  A    between atoms: C_35  and  O_36 
ROOT
ATOM      1  C   UNL d   1      29.781 -13.335   0.540  0.00  0.00     0.020 C 
ATOM      2  C   UNL d   1      30.281 -13.419   2.419  0.00  0.00     0.008 C 
ATOM      3  C   UNL d   1      29.118 -12.573   2.725  0.00  0.00     0.012 C 
ATOM      4  C   UNL d   1      29.505 -11.126   1.700  0.00  0.00     0.054 C 
ATOM      5  C   UNL d   1      28.425 -11.158   0.692  0.00  0.00     0.012 A 
ATOM      6  S   UNL d   1      28.664 -10.558  -0.896  0.00  0.00    -0.055 SA
ATOM      7  C   UNL d   1      27.338 -11.537  -1.383  0.00  0.00     0.171 A 
ATOM      8  N   UNL d   1      26.764 -12.253  -0.436  0.00  0.00    -0.227 NA
ATOM      9  C   UNL d   1      27.391 -12.096   0.758  0.00  0.00     0.056 A 
ATOM     10  C   UNL d   1      27.196 -13.217   1.900  0.00  0.00     0.055 C 
ATOM     11  C   UNL d   1      27.783 -12.664   3.182  0.00  0.00    -0.030 C 
ATOM     12  C   UNL d   1      27.520 -13.567   4.432  0.00  0.00     0.016 C 
ATOM     13  C   UNL d   1      27.940 -11.200   3.669  0.00  0.00     0.013 C 
ATOM     14  C   UNL d   1      29.715 -11.101   4.255  0.00  0.00     0.033 C 
ATOM     15  C   UNL d   1      31.026 -12.161   3.259  0.00  0.00     0.128 C 
ENDROOT
BRANCH  10  16
ATOM     16  C   UNL d   1      27.824 -14.932   1.664  0.00  0.00     0.108 C 
BRANCH  16  17
ATOM     17  C   UNL d   1      27.180 -16.362   0.805  0.00  0.00     0.198 C 
ATOM     18  O   UNL d   1      26.927 -17.466   1.279  0.00  0.00    -0.280 OA
ATOM     19  N   UNL d   1      26.619 -16.615  -0.372  0.00  0.00    -0.257 NA
ATOM     20  H   UNL d   1      26.026 -15.895  -0.735  0.00  0.00     0.130 HD
BRANCH  19  21
ATOM     21  C   UNL d   1      26.036 -18.122  -0.393  0.00  0.00     0.160 C 
BRANCH  21  22
ATOM     22  C   UNL d   1      24.679 -17.934  -0.328  0.00  0.00     0.065 A 
ATOM     23  C   UNL d   1      23.786 -18.953  -0.519  0.00  0.00     0.036 A 
ATOM     24  C   UNL d   1      22.594 -18.269  -0.625  0.00  0.00     0.027 A 
ATOM     25  C   UNL d   1      22.860 -16.917  -0.503  0.00  0.00     0.142 A 
ATOM     26  O   UNL d   1      24.180 -16.706  -0.332  0.00  0.00    -0.326 OA
ENDBRANCH  21  22
ENDBRANCH  19  21
ENDBRANCH  16  17
ENDBRANCH  10  16
BRANCH   7  27
ATOM     27  N   UNL d   1      26.945 -11.576  -2.669  0.00  0.00    -0.335 N 
ATOM     28  H   UNL d   1      26.640 -10.734  -3.135  0.00  0.00     0.168 HD
BRANCH  27  29
ATOM     29  C   UNL d   1      26.660 -12.780  -3.329  0.00  0.00     0.036 A 
ATOM     30  C   UNL d   1      27.104 -13.040  -4.636  0.00  0.00     0.029 A 
ATOM     31  C   UNL d   1      26.810 -14.250  -5.265  0.00  0.00     0.005 A 
ATOM     32  C   UNL d   1      26.051 -15.213  -4.602  0.00  0.00     0.036 A 
ATOM     33  C   UNL d   1      25.590 -14.946  -3.316  0.00  0.00     0.067 A 
ATOM     34  C   UNL d   1      25.885 -13.743  -2.685  0.00  0.00     0.066 A 
BRANCH  33  35
ATOM     35  O   UNL d   1      24.843 -15.845  -2.613  0.00  0.00    -0.361 OA
ATOM     36  H   UNL d   1      25.430 -16.390  -2.066  0.00  0.00     0.217 HD
ENDBRANCH  33  35
ENDBRANCH  27  29
ENDBRANCH   7  27
BRANCH   2  37
ATOM     37  C   UNL d   1      30.247 -14.791   3.595  0.00  0.00     0.176 C 
BRANCH  37  38
ATOM     38  O   UNL d   1      30.406 -14.497   4.978  0.00  0.00    -0.400 OA
ATOM     39  H   UNL d   1      31.286 -14.118   5.103  0.00  0.00     0.209 HD
ENDBRANCH  37  38
ENDBRANCH   2  37
BRANCH  15  40
ATOM     40  O   UNL d   1      32.183 -12.585   3.959  0.00  0.00    -0.395 OA
ATOM     41  H   UNL d   1      32.142 -13.516   4.202  0.00  0.00     0.210 HD
ENDBRANCH  15  40
TORSDOF 10
ENDMDL
