MODEL 1
REMARK VINA RESULT:    -8.052      0.000      0.000
REMARK INTER + INTRA:         -13.598
REMARK INTER:                 -10.736
REMARK INTRA:                  -2.862
REMARK CONF_INDEPENDENT:        2.685
REMARK UNBOUND:                -2.862
REMARK  9 active torsions:
REMARK  status: ('A' for Active; 'I' for Inactive)
REMARK    1  A    between atoms: C_4  and  O_5 
REMARK    2  A    between atoms: O_5  and  C_6 
REMARK    3  A    between atoms: C_6  and  C_7 
REMARK       I    between atoms: C_7  and  N_9 
REMARK    4  A    between atoms: N_9  and  C_10 
REMARK    5  A    between atoms: C_10  and  N_12 
REMARK    6  A    between atoms: N_12  and  N_13 
REMARK       I    between atoms: N_13  and  C_14 
REMARK    7  A    between atoms: C_14  and  C_16 
REMARK    8  A    between atoms: C_16  and  O_17 
REMARK    9  A    between atoms: O_17  and  C_18 
ROOT
ATOM      1  N   UNL d   1      27.851 -12.245  -6.381  0.00  0.00    -0.273 N 
ATOM      2  H   UNL d   1      28.016 -11.272  -6.125  0.00  0.00     0.189 HD
ENDROOT
BRANCH   1   3
ATOM      3  C   UNL d   1      28.498 -12.977  -7.400  0.00  0.00     0.193 C 
ATOM      4  S   UNL d   1      28.250 -12.511  -9.006  0.00  0.00    -0.039 SA
BRANCH   3   5
ATOM      5  N   UNL d   1      29.318 -14.063  -6.979  0.00  0.00    -0.301 N 
ATOM      6  C   UNL d   1      28.884 -15.201  -6.241  0.00  0.00     0.248 C 
ATOM      7  O   UNL d   1      27.710 -15.351  -5.885  0.00  0.00    -0.271 OA
ATOM      8  H   UNL d   1      30.298 -14.025  -7.227  0.00  0.00     0.171 HD
BRANCH   6   9
ATOM      9  C   UNL d   1      29.903 -16.314  -5.854  0.00  0.00     0.278 C 
BRANCH   9  10
ATOM     10  O   UNL d   1      30.473 -16.869  -7.072  0.00  0.00    -0.342 OA
BRANCH  10  11
ATOM     11  C   UNL d   1      30.860 -18.182  -7.122  0.00  0.00     0.070 A 
ATOM     12  C   UNL d   1      30.773 -19.066  -6.051  0.00  0.00     0.044 A 
ATOM     13  C   UNL d   1      31.186 -20.408  -6.167  0.00  0.00    -0.042 A 
ATOM     14  C   UNL d   1      31.066 -21.298  -4.963  0.00  0.00     0.049 C 
ATOM     15  C   UNL d   1      31.695 -20.866  -7.391  0.00  0.00     0.017 A 
ATOM     16  C   UNL d   1      31.792 -19.993  -8.474  0.00  0.00     0.022 A 
ATOM     17 BR   UNL d   1      32.274 -22.660  -7.627  0.00  0.00    -0.051 Br
ATOM     18  C   UNL d   1      31.379 -18.657  -8.337  0.00  0.00     0.038 A 
ENDBRANCH  10  11
ENDBRANCH   9  10
ENDBRANCH   6   9
ENDBRANCH   3   5
ENDBRANCH   1   3
BRANCH   1  19
ATOM     19  N   UNL d   1      26.816 -12.915  -5.571  0.00  0.00    -0.266 N 
ATOM     20  C   UNL d   1      25.929 -12.200  -4.772  0.00  0.00     0.260 C 
ATOM     21  O   UNL d   1      25.990 -10.965  -4.718  0.00  0.00    -0.269 OA
ATOM     22  H   UNL d   1      26.803 -13.933  -5.650  0.00  0.00     0.190 HD
BRANCH  20  23
ATOM     23  C   UNL d   1      24.881 -13.045  -3.961  0.00  0.00     0.280 C 
BRANCH  23  24
ATOM     24  O   UNL d   1      25.040 -14.453  -4.213  0.00  0.00    -0.342 OA
BRANCH  24  25
ATOM     25  C   UNL d   1      25.682 -15.219  -3.271  0.00  0.00     0.070 A 
ATOM     26  C   UNL d   1      27.058 -15.229  -3.064  0.00  0.00     0.037 A 
ATOM     27  C   UNL d   1      27.612 -15.988  -2.020  0.00  0.00     0.015 A 
ATOM     28  C   UNL d   1      26.803 -16.729  -1.142  0.00  0.00    -0.026 A 
ATOM     29  C   UNL d   1      27.356 -17.467  -0.076  0.00  0.00     0.012 A 
ATOM     30  C   UNL d   1      25.405 -16.719  -1.332  0.00  0.00    -0.023 A 
ATOM     31  C   UNL d   1      26.543 -18.197   0.791  0.00  0.00     0.001 A 
ATOM     32  C   UNL d   1      25.165 -18.200   0.605  0.00  0.00     0.001 A 
ATOM     33  C   UNL d   1      24.601 -17.469  -0.447  0.00  0.00     0.012 A 
ATOM     34  C   UNL d   1      24.865 -15.954  -2.395  0.00  0.00     0.049 A 
ENDBRANCH  24  25
ENDBRANCH  23  24
ENDBRANCH  20  23
ENDBRANCH   1  19
TORSDOF 9
ENDMDL
MODEL 2
REMARK VINA RESULT:    -7.867      7.139     10.235
REMARK INTER + INTRA:         -13.348
REMARK INTER:                 -10.552
REMARK INTRA:                  -2.797
REMARK CONF_INDEPENDENT:        2.685
REMARK UNBOUND:                -2.797
REMARK  9 active torsions:
REMARK  status: ('A' for Active; 'I' for Inactive)
REMARK    1  A    between atoms: C_4  and  O_5 
REMARK    2  A    between atoms: O_5  and  C_6 
REMARK    3  A    between atoms: C_6  and  C_7 
REMARK       I    between atoms: C_7  and  N_9 
REMARK    4  A    between atoms: N_9  and  C_10 
REMARK    5  A    between atoms: C_10  and  N_12 
REMARK    6  A    between atoms: N_12  and  N_13 
REMARK       I    between atoms: N_13  and  C_14 
REMARK    7  A    between atoms: C_14  and  C_16 
REMARK    8  A    between atoms: C_16  and  O_17 
REMARK    9  A    between atoms: O_17  and  C_18 
ROOT
ATOM      1  N   UNL d   1      31.948 -15.749   1.229  0.00  0.00    -0.273 N 
ATOM      2  H   UNL d   1      32.850 -16.008   0.828  0.00  0.00     0.189 HD
ENDROOT
BRANCH   1   3
ATOM      3  C   UNL d   1      31.716 -14.840   2.284  0.00  0.00     0.193 C 
ATOM      4  S   UNL d   1      33.014 -13.917   2.850  0.00  0.00    -0.039 SA
BRANCH   3   5
ATOM      5  N   UNL d   1      30.385 -14.779   2.789  0.00  0.00    -0.301 N 
ATOM      6  C   UNL d   1      29.299 -14.072   2.198  0.00  0.00     0.248 C 
ATOM      7  O   UNL d   1      29.421 -13.422   1.155  0.00  0.00    -0.271 OA
ATOM      8  H   UNL d   1      30.192 -15.284   3.644  0.00  0.00     0.171 HD
BRANCH   6   9
ATOM      9  C   UNL d   1      27.894 -14.101   2.870  0.00  0.00     0.278 C 
BRANCH   9  10
ATOM     10  O   UNL d   1      28.007 -14.764   4.160  0.00  0.00    -0.342 OA
BRANCH  10  11
ATOM     11  C   UNL d   1      28.401 -14.063   5.270  0.00  0.00     0.070 A 
ATOM     12  C   UNL d   1      29.368 -14.499   6.169  0.00  0.00     0.044 A 
ATOM     13  C   UNL d   1      29.732 -13.729   7.292  0.00  0.00    -0.042 A 
ATOM     14  C   UNL d   1      30.780 -14.272   8.220  0.00  0.00     0.049 C 
ATOM     15  C   UNL d   1      29.105 -12.493   7.508  0.00  0.00     0.017 A 
ATOM     16  C   UNL d   1      28.131 -12.042   6.618  0.00  0.00     0.022 A 
ATOM     17 BR   UNL d   1      29.539 -11.398   8.999  0.00  0.00    -0.051 Br
ATOM     18  C   UNL d   1      27.780 -12.827   5.506  0.00  0.00     0.038 A 
ENDBRANCH  10  11
ENDBRANCH   9  10
ENDBRANCH   6   9
ENDBRANCH   3   5
ENDBRANCH   1   3
BRANCH   1  19
ATOM     19  N   UNL d   1      30.795 -16.426   0.605  0.00  0.00    -0.266 N 
ATOM     20  C   UNL d   1      30.766 -16.731  -0.753  0.00  0.00     0.260 C 
ATOM     21  O   UNL d   1      31.721 -16.434  -1.482  0.00  0.00    -0.269 OA
ATOM     22  H   UNL d   1      30.033 -16.653   1.247  0.00  0.00     0.190 HD
BRANCH  20  23
ATOM     23  C   UNL d   1      29.472 -17.450  -1.280  0.00  0.00     0.280 C 
BRANCH  23  24
ATOM     24  O   UNL d   1      28.558 -17.733  -0.206  0.00  0.00    -0.342 OA
BRANCH  24  25
ATOM     25  C   UNL d   1      27.257 -17.307  -0.322  0.00  0.00     0.070 A 
ATOM     26  C   UNL d   1      26.876 -16.023  -0.700  0.00  0.00     0.037 A 
ATOM     27  C   UNL d   1      25.517 -15.709  -0.869  0.00  0.00     0.015 A 
ATOM     28  C   UNL d   1      24.513 -16.675  -0.693  0.00  0.00    -0.026 A 
ATOM     29  C   UNL d   1      23.152 -16.367  -0.891  0.00  0.00     0.012 A 
ATOM     30  C   UNL d   1      24.884 -17.984  -0.321  0.00  0.00    -0.023 A 
ATOM     31  C   UNL d   1      22.162 -17.335  -0.716  0.00  0.00     0.001 A 
ATOM     32  C   UNL d   1      22.520 -18.625  -0.340  0.00  0.00     0.001 A 
ATOM     33  C   UNL d   1      23.868 -18.947  -0.144  0.00  0.00     0.012 A 
ATOM     34  C   UNL d   1      26.259 -18.281  -0.148  0.00  0.00     0.049 A 
ENDBRANCH  24  25
ENDBRANCH  23  24
ENDBRANCH  20  23
ENDBRANCH   1  19
TORSDOF 9
ENDMDL
MODEL 3
REMARK VINA RESULT:    -7.592      5.708      7.641
REMARK INTER + INTRA:         -13.517
REMARK INTER:                 -10.276
REMARK INTRA:                  -3.241
REMARK CONF_INDEPENDENT:        2.685
REMARK UNBOUND:                -3.241
REMARK  9 active torsions:
REMARK  status: ('A' for Active; 'I' for Inactive)
REMARK    1  A    between atoms: C_4  and  O_5 
REMARK    2  A    between atoms: O_5  and  C_6 
REMARK    3  A    between atoms: C_6  and  C_7 
REMARK       I    between atoms: C_7  and  N_9 
REMARK    4  A    between atoms: N_9  and  C_10 
REMARK    5  A    between atoms: C_10  and  N_12 
REMARK    6  A    between atoms: N_12  and  N_13 
REMARK       I    between atoms: N_13  and  C_14 
REMARK    7  A    between atoms: C_14  and  C_16 
REMARK    8  A    between atoms: C_16  and  O_17 
REMARK    9  A    between atoms: O_17  and  C_18 
ROOT
ATOM      1  N   UNL d   1      25.600  -8.829  -1.813  0.00  0.00    -0.273 N 
ATOM      2  H   UNL d   1      24.720  -8.315  -1.767  0.00  0.00     0.189 HD
ENDROOT
BRANCH   1   3
ATOM      3  C   UNL d   1      26.048  -9.654  -2.866  0.00  0.00     0.193 C 
ATOM      4  S   UNL d   1      26.160  -8.990  -4.417  0.00  0.00    -0.039 SA
BRANCH   3   5
ATOM      5  N   UNL d   1      26.374 -10.999  -2.525  0.00  0.00    -0.301 N 
ATOM      6  C   UNL d   1      27.405 -11.408  -1.632  0.00  0.00     0.248 C 
ATOM      7  O   UNL d   1      28.138 -10.601  -1.051  0.00  0.00    -0.271 OA
ATOM      8  H   UNL d   1      25.824 -11.730  -2.956  0.00  0.00     0.171 HD
BRANCH   6   9
ATOM      9  C   UNL d   1      27.640 -12.924  -1.356  0.00  0.00     0.278 C 
BRANCH   9  10
ATOM     10  O   UNL d   1      26.740 -13.696  -2.198  0.00  0.00    -0.342 OA
BRANCH  10  11
ATOM     11  C   UNL d   1      26.106 -14.806  -1.703  0.00  0.00     0.070 A 
ATOM     12  C   UNL d   1      26.685 -15.707  -0.816  0.00  0.00     0.044 A 
ATOM     13  C   UNL d   1      25.979 -16.830  -0.340  0.00  0.00    -0.042 A 
ATOM     14  C   UNL d   1      26.676 -17.761   0.610  0.00  0.00     0.049 C 
ATOM     15  C   UNL d   1      24.661 -17.044  -0.770  0.00  0.00     0.017 A 
ATOM     16  C   UNL d   1      24.066 -16.152  -1.661  0.00  0.00     0.022 A 
ATOM     17 BR   UNL d   1      23.643 -18.535  -0.175  0.00  0.00    -0.051 Br
ATOM     18  C   UNL d   1      24.789 -15.040  -2.127  0.00  0.00     0.038 A 
ENDBRANCH  10  11
ENDBRANCH   9  10
ENDBRANCH   6   9
ENDBRANCH   3   5
ENDBRANCH   1   3
BRANCH   1  19
ATOM     19  N   UNL d   1      26.459  -8.659  -0.625  0.00  0.00    -0.266 N 
ATOM     20  C   UNL d   1      25.971  -8.132   0.568  0.00  0.00     0.260 C 
ATOM     21  O   UNL d   1      24.788  -7.784   0.661  0.00  0.00    -0.269 OA
ATOM     22  H   UNL d   1      27.426  -8.963  -0.750  0.00  0.00     0.190 HD
BRANCH  20  23
ATOM     23  C   UNL d   1      27.000  -8.006   1.748  0.00  0.00     0.280 C 
BRANCH  23  24
ATOM     24  O   UNL d   1      26.556  -8.734   2.907  0.00  0.00    -0.342 OA
BRANCH  24  25
ATOM     25  C   UNL d   1      26.759 -10.092   2.947  0.00  0.00     0.070 A 
ATOM     26  C   UNL d   1      26.470 -10.966   1.904  0.00  0.00     0.037 A 
ATOM     27  C   UNL d   1      26.790 -12.329   2.012  0.00  0.00     0.015 A 
ATOM     28  C   UNL d   1      27.433 -12.844   3.151  0.00  0.00    -0.026 A 
ATOM     29  C   UNL d   1      27.780 -14.206   3.248  0.00  0.00     0.012 A 
ATOM     30  C   UNL d   1      27.743 -11.968   4.212  0.00  0.00    -0.023 A 
ATOM     31  C   UNL d   1      28.420 -14.706   4.382  0.00  0.00     0.001 A 
ATOM     32  C   UNL d   1      28.721 -13.851   5.436  0.00  0.00     0.001 A 
ATOM     33  C   UNL d   1      28.386 -12.495   5.353  0.00  0.00     0.012 A 
ATOM     34  C   UNL d   1      27.406 -10.597   4.088  0.00  0.00     0.049 A 
ENDBRANCH  24  25
ENDBRANCH  23  24
ENDBRANCH  20  23
ENDBRANCH   1  19
TORSDOF 9
ENDMDL
MODEL 4
REMARK VINA RESULT:    -7.424      3.116      4.251
REMARK INTER + INTRA:         -14.259
REMARK INTER:                 -10.109
REMARK INTRA:                  -4.150
REMARK CONF_INDEPENDENT:        2.685
REMARK UNBOUND:                -4.150
REMARK  9 active torsions:
REMARK  status: ('A' for Active; 'I' for Inactive)
REMARK    1  A    between atoms: C_4  and  O_5 
REMARK    2  A    between atoms: O_5  and  C_6 
REMARK    3  A    between atoms: C_6  and  C_7 
REMARK       I    between atoms: C_7  and  N_9 
REMARK    4  A    between atoms: N_9  and  C_10 
REMARK    5  A    between atoms: C_10  and  N_12 
REMARK    6  A    between atoms: N_12  and  N_13 
REMARK       I    between atoms: N_13  and  C_14 
REMARK    7  A    between atoms: C_14  and  C_16 
REMARK    8  A    between atoms: C_16  and  O_17 
REMARK    9  A    between atoms: O_17  and  C_18 
ROOT
ATOM      1  N   UNL d   1      26.346 -11.422  -2.840  0.00  0.00    -0.273 N 
ATOM      2  H   UNL d   1      26.349 -10.535  -2.337  0.00  0.00     0.189 HD
ENDROOT
BRANCH   1   3
ATOM      3  C   UNL d   1      26.075 -11.621  -4.211  0.00  0.00     0.193 C 
ATOM      4  S   UNL d   1      25.531 -10.305  -5.122  0.00  0.00    -0.039 SA
BRANCH   3   5
ATOM      5  N   UNL d   1      26.288 -12.936  -4.717  0.00  0.00    -0.301 N 
ATOM      6  C   UNL d   1      25.558 -14.101  -4.346  0.00  0.00     0.248 C 
ATOM      7  O   UNL d   1      24.641 -14.074  -3.519  0.00  0.00    -0.271 OA
ATOM      8  H   UNL d   1      27.022 -13.054  -5.402  0.00  0.00     0.171 HD
BRANCH   6   9
ATOM      9  C   UNL d   1      25.907 -15.476  -4.991  0.00  0.00     0.278 C 
BRANCH   9  10
ATOM     10  O   UNL d   1      27.115 -15.325  -5.786  0.00  0.00    -0.342 OA
BRANCH  10  11
ATOM     11  C   UNL d   1      28.345 -15.576  -5.236  0.00  0.00     0.070 A 
ATOM     12  C   UNL d   1      28.564 -15.810  -3.882  0.00  0.00     0.044 A 
ATOM     13  C   UNL d   1      29.855 -16.065  -3.378  0.00  0.00    -0.042 A 
ATOM     14  C   UNL d   1      30.010 -16.303  -1.903  0.00  0.00     0.049 C 
ATOM     15  C   UNL d   1      30.945 -16.084  -4.260  0.00  0.00     0.017 A 
ATOM     16  C   UNL d   1      30.744 -15.847  -5.620  0.00  0.00     0.022 A 
ATOM     17 BR   UNL d   1      32.716 -16.418  -3.657  0.00  0.00    -0.051 Br
ATOM     18  C   UNL d   1      29.449 -15.591  -6.103  0.00  0.00     0.038 A 
ENDBRANCH  10  11
ENDBRANCH   9  10
ENDBRANCH   6   9
ENDBRANCH   3   5
ENDBRANCH   1   3
BRANCH   1  19
ATOM     19  N   UNL d   1      26.663 -12.593  -2.000  0.00  0.00    -0.266 N 
ATOM     20  C   UNL d   1      27.170 -12.459  -0.710  0.00  0.00     0.260 C 
ATOM     21  O   UNL d   1      27.374 -11.336  -0.232  0.00  0.00    -0.269 OA
ATOM     22  H   UNL d   1      26.476 -13.497  -2.437  0.00  0.00     0.190 HD
BRANCH  20  23
ATOM     23  C   UNL d   1      27.465 -13.791   0.067  0.00  0.00     0.280 C 
BRANCH  23  24
ATOM     24  O   UNL d   1      27.606 -14.902  -0.837  0.00  0.00    -0.342 OA
BRANCH  24  25
ATOM     25  C   UNL d   1      26.737 -15.960  -0.717  0.00  0.00     0.070 A 
ATOM     26  C   UNL d   1      27.102 -17.241  -0.316  0.00  0.00     0.037 A 
ATOM     27  C   UNL d   1      26.124 -18.235  -0.146  0.00  0.00     0.015 A 
ATOM     28  C   UNL d   1      24.759 -17.964  -0.343  0.00  0.00    -0.026 A 
ATOM     29  C   UNL d   1      23.776 -18.954  -0.144  0.00  0.00     0.012 A 
ATOM     30  C   UNL d   1      24.373 -16.666  -0.738  0.00  0.00    -0.023 A 
ATOM     31  C   UNL d   1      22.423 -18.673  -0.340  0.00  0.00     0.001 A 
ATOM     32  C   UNL d   1      22.035 -17.398  -0.739  0.00  0.00     0.001 A 
ATOM     33  C   UNL d   1      23.001 -16.404  -0.936  0.00  0.00     0.012 A 
ATOM     34  C   UNL d   1      25.374 -15.678  -0.912  0.00  0.00     0.049 A 
ENDBRANCH  24  25
ENDBRANCH  23  24
ENDBRANCH  20  23
ENDBRANCH   1  19
TORSDOF 9
ENDMDL
MODEL 5
REMARK VINA RESULT:    -7.131      6.512      8.640
REMARK INTER + INTRA:         -13.740
REMARK INTER:                  -9.816
REMARK INTRA:                  -3.924
REMARK CONF_INDEPENDENT:        2.685
REMARK UNBOUND:                -3.924
REMARK  9 active torsions:
REMARK  status: ('A' for Active; 'I' for Inactive)
REMARK    1  A    between atoms: C_4  and  O_5 
REMARK    2  A    between atoms: O_5  and  C_6 
REMARK    3  A    between atoms: C_6  and  C_7 
REMARK       I    between atoms: C_7  and  N_9 
REMARK    4  A    between atoms: N_9  and  C_10 
REMARK    5  A    between atoms: C_10  and  N_12 
REMARK    6  A    between atoms: N_12  and  N_13 
REMARK       I    between atoms: N_13  and  C_14 
REMARK    7  A    between atoms: C_14  and  C_16 
REMARK    8  A    between atoms: C_16  and  O_17 
REMARK    9  A    between atoms: O_17  and  C_18 
ROOT
ATOM      1  N   UNL d   1      31.351 -14.727   3.604  0.00  0.00    -0.273 N 
ATOM      2  H   UNL d   1      31.905 -14.314   4.354  0.00  0.00     0.189 HD
ENDROOT
BRANCH   1   3
ATOM      3  C   UNL d   1      31.832 -15.278   2.397  0.00  0.00     0.193 C 
ATOM      4  S   UNL d   1      33.495 -15.536   2.237  0.00  0.00    -0.039 SA
BRANCH   3   5
ATOM      5  N   UNL d   1      30.858 -15.575   1.401  0.00  0.00    -0.301 N 
ATOM      6  C   UNL d   1      30.447 -14.708   0.349  0.00  0.00     0.248 C 
ATOM      7  O   UNL d   1      30.918 -13.575   0.202  0.00  0.00    -0.271 OA
ATOM      8  H   UNL d   1      30.417 -16.485   1.443  0.00  0.00     0.171 HD
BRANCH   6   9
ATOM      9  C   UNL d   1      29.366 -15.177  -0.671  0.00  0.00     0.278 C 
BRANCH   9  10
ATOM     10  O   UNL d   1      28.906 -16.502  -0.285  0.00  0.00    -0.342 OA
BRANCH  10  11
ATOM     11  C   UNL d   1      27.570 -16.808  -0.310  0.00  0.00     0.070 A 
ATOM     12  C   UNL d   1      26.638 -16.178  -1.129  0.00  0.00     0.044 A 
ATOM     13  C   UNL d   1      25.277 -16.541  -1.110  0.00  0.00    -0.042 A 
ATOM     14  C   UNL d   1      24.331 -15.810  -2.020  0.00  0.00     0.049 C 
ATOM     15  C   UNL d   1      24.850 -17.561  -0.247  0.00  0.00     0.017 A 
ATOM     16  C   UNL d   1      25.771 -18.200   0.582  0.00  0.00     0.022 A 
ATOM     17 BR   UNL d   1      23.032 -18.106  -0.163  0.00  0.00    -0.051 Br
ATOM     18  C   UNL d   1      27.123 -17.821   0.552  0.00  0.00     0.038 A 
ENDBRANCH  10  11
ENDBRANCH   9  10
ENDBRANCH   6   9
ENDBRANCH   3   5
ENDBRANCH   1   3
BRANCH   1  19
ATOM     19  N   UNL d   1      29.897 -14.721   3.855  0.00  0.00    -0.266 N 
ATOM     20  C   UNL d   1      29.356 -14.232   5.040  0.00  0.00     0.260 C 
ATOM     21  O   UNL d   1      30.093 -13.787   5.928  0.00  0.00    -0.269 OA
ATOM     22  H   UNL d   1      29.330 -15.096   3.092  0.00  0.00     0.190 HD
BRANCH  20  23
ATOM     23  C   UNL d   1      27.791 -14.292   5.171  0.00  0.00     0.280 C 
BRANCH  23  24
ATOM     24  O   UNL d   1      27.166 -14.450   3.885  0.00  0.00    -0.342 OA
BRANCH  24  25
ATOM     25  C   UNL d   1      27.244 -13.414   2.986  0.00  0.00     0.070 A 
ATOM     26  C   UNL d   1      27.646 -12.119   3.304  0.00  0.00     0.037 A 
ATOM     27  C   UNL d   1      27.771 -11.149   2.297  0.00  0.00     0.015 A 
ATOM     28  C   UNL d   1      27.527 -11.456   0.947  0.00  0.00    -0.026 A 
ATOM     29  C   UNL d   1      27.681 -10.490  -0.067  0.00  0.00     0.012 A 
ATOM     30  C   UNL d   1      27.130 -12.767   0.608  0.00  0.00    -0.023 A 
ATOM     31  C   UNL d   1      27.438 -10.806  -1.404  0.00  0.00     0.001 A 
ATOM     32  C   UNL d   1      27.038 -12.093  -1.746  0.00  0.00     0.001 A 
ATOM     33  C   UNL d   1      26.885 -13.064  -0.750  0.00  0.00     0.012 A 
ATOM     34  C   UNL d   1      27.003 -13.731   1.639  0.00  0.00     0.049 A 
ENDBRANCH  24  25
ENDBRANCH  23  24
ENDBRANCH  20  23
ENDBRANCH   1  19
TORSDOF 9
ENDMDL
MODEL 6
REMARK VINA RESULT:    -6.730      3.985      5.173
REMARK INTER + INTRA:         -14.053
REMARK INTER:                  -9.414
REMARK INTRA:                  -4.638
REMARK CONF_INDEPENDENT:        2.685
REMARK UNBOUND:                -4.638
REMARK  9 active torsions:
REMARK  status: ('A' for Active; 'I' for Inactive)
REMARK    1  A    between atoms: C_4  and  O_5 
REMARK    2  A    between atoms: O_5  and  C_6 
REMARK    3  A    between atoms: C_6  and  C_7 
REMARK       I    between atoms: C_7  and  N_9 
REMARK    4  A    between atoms: N_9  and  C_10 
REMARK    5  A    between atoms: C_10  and  N_12 
REMARK    6  A    between atoms: N_12  and  N_13 
REMARK       I    between atoms: N_13  and  C_14 
REMARK    7  A    between atoms: C_14  and  C_16 
REMARK    8  A    between atoms: C_16  and  O_17 
REMARK    9  A    between atoms: O_17  and  C_18 
ROOT
ATOM      1  N   UNL d   1      27.798 -11.048  -3.455  0.00  0.00    -0.273 N 
ATOM      2  H   UNL d   1      28.679 -10.793  -3.902  0.00  0.00     0.189 HD
ENDROOT
BRANCH   1   3
ATOM      3  C   UNL d   1      26.508 -10.586  -3.795  0.00  0.00     0.193 C 
ATOM      4  S   UNL d   1      26.194  -8.929  -3.687  0.00  0.00    -0.039 SA
BRANCH   3   5
ATOM      5  N   UNL d   1      25.567 -11.574  -4.205  0.00  0.00    -0.301 N 
ATOM      6  C   UNL d   1      25.155 -12.703  -3.441  0.00  0.00     0.248 C 
ATOM      7  O   UNL d   1      25.596 -12.936  -2.311  0.00  0.00    -0.271 OA
ATOM      8  H   UNL d   1      25.153 -11.465  -5.121  0.00  0.00     0.171 HD
BRANCH   6   9
ATOM      9  C   UNL d   1      24.110 -13.700  -4.027  0.00  0.00     0.278 C 
BRANCH   9  10
ATOM     10  O   UNL d   1      24.820 -14.809  -4.646  0.00  0.00    -0.342 OA
BRANCH  10  11
ATOM     11  C   UNL d   1      26.188 -14.871  -4.600  0.00  0.00     0.070 A 
ATOM     12  C   UNL d   1      27.030 -14.286  -5.540  0.00  0.00     0.044 A 
ATOM     13  C   UNL d   1      28.432 -14.383  -5.435  0.00  0.00    -0.042 A 
ATOM     14  C   UNL d   1      29.274 -13.730  -6.494  0.00  0.00     0.049 C 
ATOM     15  C   UNL d   1      28.992 -15.084  -4.358  0.00  0.00     0.017 A 
ATOM     16  C   UNL d   1      28.163 -15.679  -3.408  0.00  0.00     0.022 A 
ATOM     17 BR   UNL d   1      30.873 -15.262  -4.147  0.00  0.00    -0.051 Br
ATOM     18  C   UNL d   1      26.767 -15.575  -3.532  0.00  0.00     0.038 A 
ENDBRANCH  10  11
ENDBRANCH   9  10
ENDBRANCH   6   9
ENDBRANCH   3   5
ENDBRANCH   1   3
BRANCH   1  19
ATOM     19  N   UNL d   1      27.943 -12.004  -2.341  0.00  0.00    -0.266 N 
ATOM     20  C   UNL d   1      29.170 -12.570  -2.010  0.00  0.00     0.260 C 
ATOM     21  O   UNL d   1      30.186 -12.284  -2.655  0.00  0.00    -0.269 OA
ATOM     22  H   UNL d   1      27.078 -12.206  -1.836  0.00  0.00     0.190 HD
BRANCH  20  23
ATOM     23  C   UNL d   1      29.174 -13.574  -0.801  0.00  0.00     0.280 C 
BRANCH  23  24
ATOM     24  O   UNL d   1      27.861 -13.703  -0.226  0.00  0.00    -0.342 OA
BRANCH  24  25
ATOM     25  C   UNL d   1      27.267 -14.941  -0.217  0.00  0.00     0.070 A 
ATOM     26  C   UNL d   1      27.871 -16.105   0.251  0.00  0.00     0.037 A 
ATOM     27  C   UNL d   1      27.150 -17.309   0.293  0.00  0.00     0.015 A 
ATOM     28  C   UNL d   1      25.803 -17.373  -0.103  0.00  0.00    -0.026 A 
ATOM     29  C   UNL d   1      25.072 -18.576  -0.032  0.00  0.00     0.012 A 
ATOM     30  C   UNL d   1      25.174 -16.200  -0.568  0.00  0.00    -0.023 A 
ATOM     31  C   UNL d   1      23.734 -18.627  -0.426  0.00  0.00     0.001 A 
ATOM     32  C   UNL d   1      23.109 -17.477  -0.895  0.00  0.00     0.001 A 
ATOM     33  C   UNL d   1      23.822 -16.275  -0.966  0.00  0.00     0.012 A 
ATOM     34  C   UNL d   1      25.919 -14.995  -0.611  0.00  0.00     0.049 A 
ENDBRANCH  24  25
ENDBRANCH  23  24
ENDBRANCH  20  23
ENDBRANCH   1  19
TORSDOF 9
ENDMDL
MODEL 7
REMARK VINA RESULT:    -6.568      3.991      6.291
REMARK INTER + INTRA:         -14.230
REMARK INTER:                  -9.253
REMARK INTRA:                  -4.977
REMARK CONF_INDEPENDENT:        2.685
REMARK UNBOUND:                -4.977
REMARK  9 active torsions:
REMARK  status: ('A' for Active; 'I' for Inactive)
REMARK    1  A    between atoms: C_4  and  O_5 
REMARK    2  A    between atoms: O_5  and  C_6 
REMARK    3  A    between atoms: C_6  and  C_7 
REMARK       I    between atoms: C_7  and  N_9 
REMARK    4  A    between atoms: N_9  and  C_10 
REMARK    5  A    between atoms: C_10  and  N_12 
REMARK    6  A    between atoms: N_12  and  N_13 
REMARK       I    between atoms: N_13  and  C_14 
REMARK    7  A    between atoms: C_14  and  C_16 
REMARK    8  A    between atoms: C_16  and  O_17 
REMARK    9  A    between atoms: O_17  and  C_18 
ROOT
ATOM      1  N   UNL d   1      25.548 -11.632  -4.232  0.00  0.00    -0.273 N 
ATOM      2  H   UNL d   1      24.782 -11.285  -4.809  0.00  0.00     0.189 HD
ENDROOT
BRANCH   1   3
ATOM      3  C   UNL d   1      26.146 -10.981  -3.132  0.00  0.00     0.193 C 
ATOM      4  S   UNL d   1      25.939  -9.310  -2.976  0.00  0.00    -0.039 SA
BRANCH   3   5
ATOM      5  N   UNL d   1      26.884 -11.802  -2.232  0.00  0.00    -0.301 N 
ATOM      6  C   UNL d   1      28.117 -12.456  -2.517  0.00  0.00     0.248 C 
ATOM      7  O   UNL d   1      28.676 -12.367  -3.616  0.00  0.00    -0.271 OA
ATOM      8  H   UNL d   1      26.500 -11.933  -1.305  0.00  0.00     0.171 HD
BRANCH   6   9
ATOM      9  C   UNL d   1      28.810 -13.324  -1.424  0.00  0.00     0.278 C 
BRANCH   9  10
ATOM     10  O   UNL d   1      27.842 -13.614  -0.377  0.00  0.00    -0.342 OA
BRANCH  10  11
ATOM     11  C   UNL d   1      26.987 -14.678  -0.497  0.00  0.00     0.070 A 
ATOM     12  C   UNL d   1      27.127 -15.877   0.195  0.00  0.00     0.044 A 
ATOM     13  C   UNL d   1      26.210 -16.934   0.031  0.00  0.00    -0.042 A 
ATOM     14  C   UNL d   1      26.434 -18.200   0.808  0.00  0.00     0.049 C 
ATOM     15  C   UNL d   1      25.131 -16.775  -0.850  0.00  0.00     0.017 A 
ATOM     16  C   UNL d   1      24.977 -15.581  -1.553  0.00  0.00     0.022 A 
ATOM     17 BR   UNL d   1      23.853 -18.155  -1.128  0.00  0.00    -0.051 Br
ATOM     18  C   UNL d   1      25.904 -14.540  -1.379  0.00  0.00     0.038 A 
ENDBRANCH  10  11
ENDBRANCH   9  10
ENDBRANCH   6   9
ENDBRANCH   3   5
ENDBRANCH   1   3
BRANCH   1  19
ATOM     19  N   UNL d   1      26.051 -12.960  -4.633  0.00  0.00    -0.266 N 
ATOM     20  C   UNL d   1      25.240 -14.091  -4.613  0.00  0.00     0.260 C 
ATOM     21  O   UNL d   1      24.060 -14.010  -4.249  0.00  0.00    -0.269 OA
ATOM     22  H   UNL d   1      27.029 -12.977  -4.927  0.00  0.00     0.190 HD
BRANCH  20  23
ATOM     23  C   UNL d   1      25.909 -15.439  -5.063  0.00  0.00     0.280 C 
BRANCH  23  24
ATOM     24  O   UNL d   1      27.133 -15.199  -5.782  0.00  0.00    -0.342 OA
BRANCH  24  25
ATOM     25  C   UNL d   1      28.321 -15.270  -5.097  0.00  0.00     0.070 A 
ATOM     26  C   UNL d   1      29.496 -14.630  -5.483  0.00  0.00     0.037 A 
ATOM     27  C   UNL d   1      30.639 -14.698  -4.670  0.00  0.00     0.015 A 
ATOM     28  C   UNL d   1      30.626 -15.379  -3.441  0.00  0.00    -0.026 A 
ATOM     29  C   UNL d   1      31.765 -15.422  -2.612  0.00  0.00     0.012 A 
ATOM     30  C   UNL d   1      29.440 -16.022  -3.031  0.00  0.00    -0.023 A 
ATOM     31  C   UNL d   1      31.741 -16.099  -1.392  0.00  0.00     0.001 A 
ATOM     32  C   UNL d   1      30.578 -16.743  -0.985  0.00  0.00     0.001 A 
ATOM     33  C   UNL d   1      29.438 -16.705  -1.796  0.00  0.00     0.012 A 
ATOM     34  C   UNL d   1      28.298 -15.949  -3.867  0.00  0.00     0.049 A 
ENDBRANCH  24  25
ENDBRANCH  23  24
ENDBRANCH  20  23
ENDBRANCH   1  19
TORSDOF 9
ENDMDL
MODEL 8
REMARK VINA RESULT:    -6.257      3.301      5.993
REMARK INTER + INTRA:         -13.598
REMARK INTER:                  -8.942
REMARK INTRA:                  -4.657
REMARK CONF_INDEPENDENT:        2.685
REMARK UNBOUND:                -4.657
REMARK  9 active torsions:
REMARK  status: ('A' for Active; 'I' for Inactive)
REMARK    1  A    between atoms: C_4  and  O_5 
REMARK    2  A    between atoms: O_5  and  C_6 
REMARK    3  A    between atoms: C_6  and  C_7 
REMARK       I    between atoms: C_7  and  N_9 
REMARK    4  A    between atoms: N_9  and  C_10 
REMARK    5  A    between atoms: C_10  and  N_12 
REMARK    6  A    between atoms: N_12  and  N_13 
REMARK       I    between atoms: N_13  and  C_14 
REMARK    7  A    between atoms: C_14  and  C_16 
REMARK    8  A    between atoms: C_16  and  O_17 
REMARK    9  A    between atoms: O_17  and  C_18 
ROOT
ATOM      1  N   UNL d   1      28.704 -13.749  -6.922  0.00  0.00    -0.273 N 
ATOM      2  H   UNL d   1      28.961 -14.018  -7.871  0.00  0.00     0.189 HD
ENDROOT
BRANCH   1   3
ATOM      3  C   UNL d   1      27.699 -12.834  -6.541  0.00  0.00     0.193 C 
ATOM      4  S   UNL d   1      27.691 -11.303  -7.258  0.00  0.00    -0.039 SA
BRANCH   3   5
ATOM      5  N   UNL d   1      26.762 -13.288  -5.568  0.00  0.00    -0.301 N 
ATOM      6  C   UNL d   1      26.065 -12.470  -4.634  0.00  0.00     0.248 C 
ATOM      7  O   UNL d   1      26.219 -11.245  -4.581  0.00  0.00    -0.271 OA
ATOM      8  H   UNL d   1      26.573 -14.281  -5.537  0.00  0.00     0.171 HD
BRANCH   6   9
ATOM      9  C   UNL d   1      25.065 -13.115  -3.627  0.00  0.00     0.278 C 
BRANCH   9  10
ATOM     10  O   UNL d   1      25.041 -14.552  -3.850  0.00  0.00    -0.342 OA
BRANCH  10  11
ATOM     11  C   UNL d   1      25.329 -15.419  -2.829  0.00  0.00     0.070 A 
ATOM     12  C   UNL d   1      24.372 -16.019  -2.018  0.00  0.00     0.044 A 
ATOM     13  C   UNL d   1      24.732 -16.906  -0.984  0.00  0.00    -0.042 A 
ATOM     14  C   UNL d   1      23.640 -17.508  -0.147  0.00  0.00     0.049 C 
ATOM     15  C   UNL d   1      26.088 -17.191  -0.766  0.00  0.00     0.017 A 
ATOM     16  C   UNL d   1      27.061 -16.595  -1.568  0.00  0.00     0.022 A 
ATOM     17 BR   UNL d   1      26.655 -18.373   0.609  0.00  0.00    -0.051 Br
ATOM     18  C   UNL d   1      26.682 -15.711  -2.591  0.00  0.00     0.038 A 
ENDBRANCH  10  11
ENDBRANCH   9  10
ENDBRANCH   6   9
ENDBRANCH   3   5
ENDBRANCH   1   3
BRANCH   1  19
ATOM     19  N   UNL d   1      29.497 -14.415  -5.871  0.00  0.00    -0.266 N 
ATOM     20  C   UNL d   1      29.000 -15.494  -5.146  0.00  0.00     0.260 C 
ATOM     21  O   UNL d   1      27.861 -15.925  -5.365  0.00  0.00    -0.269 OA
ATOM     22  H   UNL d   1      30.430 -14.026  -5.728  0.00  0.00     0.190 HD
BRANCH  20  23
ATOM     23  C   UNL d   1      29.954 -16.102  -4.055  0.00  0.00     0.280 C 
BRANCH  23  24
ATOM     24  O   UNL d   1      30.536 -15.070  -3.238  0.00  0.00    -0.342 OA
BRANCH  24  25
ATOM     25  C   UNL d   1      29.716 -14.358  -2.397  0.00  0.00     0.070 A 
ATOM     26  C   UNL d   1      28.935 -13.273  -2.786  0.00  0.00     0.037 A 
ATOM     27  C   UNL d   1      28.066 -12.661  -1.867  0.00  0.00     0.015 A 
ATOM     28  C   UNL d   1      27.935 -13.137  -0.552  0.00  0.00    -0.026 A 
ATOM     29  C   UNL d   1      27.041 -12.541   0.360  0.00  0.00     0.012 A 
ATOM     30  C   UNL d   1      28.710 -14.244  -0.147  0.00  0.00    -0.023 A 
ATOM     31  C   UNL d   1      26.916 -13.024   1.664  0.00  0.00     0.001 A 
ATOM     32  C   UNL d   1      27.684 -14.109   2.073  0.00  0.00     0.001 A 
ATOM     33  C   UNL d   1      28.573 -14.713   1.177  0.00  0.00     0.012 A 
ATOM     34  C   UNL d   1      29.587 -14.844  -1.085  0.00  0.00     0.049 A 
ENDBRANCH  24  25
ENDBRANCH  23  24
ENDBRANCH  20  23
ENDBRANCH   1  19
TORSDOF 9
ENDMDL
MODEL 9
REMARK VINA RESULT:    -6.076      5.737      7.845
REMARK INTER + INTRA:         -13.362
REMARK INTER:                  -8.761
REMARK INTRA:                  -4.601
REMARK CONF_INDEPENDENT:        2.685
REMARK UNBOUND:                -4.601
REMARK  9 active torsions:
REMARK  status: ('A' for Active; 'I' for Inactive)
REMARK    1  A    between atoms: C_4  and  O_5 
REMARK    2  A    between atoms: O_5  and  C_6 
REMARK    3  A    between atoms: C_6  and  C_7 
REMARK       I    between atoms: C_7  and  N_9 
REMARK    4  A    between atoms: N_9  and  C_10 
REMARK    5  A    between atoms: C_10  and  N_12 
REMARK    6  A    between atoms: N_12  and  N_13 
REMARK       I    between atoms: N_13  and  C_14 
REMARK    7  A    between atoms: C_14  and  C_16 
REMARK    8  A    between atoms: C_16  and  O_17 
REMARK    9  A    between atoms: O_17  and  C_18 
ROOT
ATOM      1  N   UNL d   1      27.162 -12.948   2.805  0.00  0.00    -0.273 N 
ATOM      2  H   UNL d   1      26.319 -12.591   3.256  0.00  0.00     0.189 HD
ENDROOT
BRANCH   1   3
ATOM      3  C   UNL d   1      27.840 -14.150   3.102  0.00  0.00     0.193 C 
ATOM      4  S   UNL d   1      28.211 -14.486   4.717  0.00  0.00    -0.039 SA
BRANCH   3   5
ATOM      5  N   UNL d   1      28.159 -14.990   1.997  0.00  0.00    -0.301 N 
ATOM      6  C   UNL d   1      29.052 -14.668   0.934  0.00  0.00     0.248 C 
ATOM      7  O   UNL d   1      29.650 -13.589   0.874  0.00  0.00    -0.271 OA
ATOM      8  H   UNL d   1      27.713 -15.896   1.962  0.00  0.00     0.171 HD
BRANCH   6   9
ATOM      9  C   UNL d   1      29.302 -15.696  -0.210  0.00  0.00     0.278 C 
BRANCH   9  10
ATOM     10  O   UNL d   1      28.649 -16.949   0.137  0.00  0.00    -0.342 OA
BRANCH  10  11
ATOM     11  C   UNL d   1      27.317 -17.135  -0.126  0.00  0.00     0.070 A 
ATOM     12  C   UNL d   1      26.551 -16.288  -0.921  0.00  0.00     0.044 A 
ATOM     13  C   UNL d   1      25.183 -16.536  -1.156  0.00  0.00    -0.042 A 
ATOM     14  C   UNL d   1      24.422 -15.572  -2.020  0.00  0.00     0.049 C 
ATOM     15  C   UNL d   1      24.580 -17.661  -0.576  0.00  0.00     0.017 A 
ATOM     16  C   UNL d   1      25.333 -18.518   0.226  0.00  0.00     0.022 A 
ATOM     17 BR   UNL d   1      22.742 -18.063  -0.843  0.00  0.00    -0.051 Br
ATOM     18  C   UNL d   1      26.694 -18.252   0.452  0.00  0.00     0.038 A 
ENDBRANCH  10  11
ENDBRANCH   9  10
ENDBRANCH   6   9
ENDBRANCH   3   5
ENDBRANCH   1   3
BRANCH   1  19
ATOM     19  N   UNL d   1      27.687 -12.079   1.735  0.00  0.00    -0.266 N 
ATOM     20  C   UNL d   1      27.116 -10.844   1.442  0.00  0.00     0.260 C 
ATOM     21  O   UNL d   1      26.136 -10.441   2.080  0.00  0.00    -0.269 OA
ATOM     22  H   UNL d   1      28.498 -12.454   1.239  0.00  0.00     0.190 HD
BRANCH  20  23
ATOM     23  C   UNL d   1      27.778 -10.027   0.275  0.00  0.00     0.280 C 
BRANCH  23  24
ATOM     24  O   UNL d   1      28.509 -10.890  -0.616  0.00  0.00    -0.342 OA
BRANCH  24  25
ATOM     25  C   UNL d   1      27.810 -11.602  -1.560  0.00  0.00     0.070 A 
ATOM     26  C   UNL d   1      26.655 -11.153  -2.194  0.00  0.00     0.037 A 
ATOM     27  C   UNL d   1      26.059 -11.923  -3.206  0.00  0.00     0.015 A 
ATOM     28  C   UNL d   1      26.617 -13.142  -3.627  0.00  0.00    -0.026 A 
ATOM     29  C   UNL d   1      26.034 -13.899  -4.663  0.00  0.00     0.012 A 
ATOM     30  C   UNL d   1      27.794 -13.604  -3.002  0.00  0.00    -0.023 A 
ATOM     31  C   UNL d   1      26.598 -15.107  -5.075  0.00  0.00     0.001 A 
ATOM     32  C   UNL d   1      27.753 -15.574  -4.457  0.00  0.00     0.001 A 
ATOM     33  C   UNL d   1      28.345 -14.830  -3.430  0.00  0.00     0.012 A 
ATOM     34  C   UNL d   1      28.378 -12.817  -1.978  0.00  0.00     0.049 A 
ENDBRANCH  24  25
ENDBRANCH  23  24
ENDBRANCH  20  23
ENDBRANCH   1  19
TORSDOF 9
ENDMDL
