MODEL 1
REMARK VINA RESULT:   -29.687      0.000      0.000
REMARK INTER + INTRA:         -31.201
REMARK INTER:                 -30.582
REMARK INTRA:                  -0.620
REMARK CONF_INDEPENDENT:        0.895
REMARK UNBOUND:                -0.620
REMARK  3 active torsions:
REMARK  status: ('A' for Active; 'I' for Inactive)
REMARK    1  A    between atoms: C_7  and  N_8 
REMARK    2  A    between atoms: N_8  and  N_9 
REMARK       I    between atoms: N_9  and  C_10 
REMARK       I    between atoms: C_10  and  N_12 
REMARK    3  A    between atoms: N_12  and  C_13 
ROOT
ATOM      1  N   UNL d   1      19.826 -19.284  -0.963  0.00  0.00    -0.191 NA
ATOM      2  C   UNL d   1      20.924 -18.949  -0.838  0.00  0.00     0.099 C 
ATOM      3  C   UNL d   1      22.288 -18.510  -0.733  0.00  0.00     0.046 A 
ATOM      4  C   UNL d   1      23.253 -19.325  -0.150  0.00  0.00     0.023 A 
ATOM      5  C   UNL d   1      24.579 -18.904  -0.143  0.00  0.00     0.004 A 
ATOM      6  C   UNL d   1      24.933 -17.668  -0.722  0.00  0.00     0.031 A 
ATOM      7  C   UNL d   1      23.965 -16.812  -1.292  0.00  0.00     0.049 A 
ATOM      8  C   UNL d   1      22.643 -17.263  -1.270  0.00  0.00     0.053 A 
ENDROOT
BRANCH   7   9
ATOM      9  N   UNL d   1      24.336 -15.583  -1.867  0.00  0.00    -0.297 N 
ATOM     10  H   UNL d   1      23.652 -14.840  -2.019  0.00  0.00     0.187 HD
BRANCH   9  11
ATOM     11  N   UNL d   1      25.658 -15.318  -2.316  0.00  0.00    -0.251 N 
ATOM     12  C   UNL d   1      25.822 -14.730  -3.568  0.00  0.00     0.339 C 
ATOM     13  O   UNL d   1      24.845 -14.450  -4.263  0.00  0.00    -0.245 OA
ATOM     14  N   UNL d   1      27.151 -14.537  -3.955  0.00  0.00    -0.308 N 
ATOM     15  H   UNL d   1      27.905 -14.932  -3.410  0.00  0.00     0.170 HD
ATOM     16  H   UNL d   1      26.434 -15.545  -1.717  0.00  0.00     0.191 HD
BRANCH  14  17
ATOM     17  C   UNL d   1      27.508 -13.899  -5.179  0.00  0.00     0.036 A 
ATOM     18  C   UNL d   1      28.387 -14.495  -6.097  0.00  0.00     0.029 A 
ATOM     19  C   UNL d   1      28.783 -13.800  -7.257  0.00  0.00     0.002 A 
ATOM     20  C   UNL d   1      28.266 -12.536  -7.534  0.00  0.00     0.000 A 
ATOM     21  C   UNL d   1      27.403 -11.938  -6.623  0.00  0.00     0.002 A 
ATOM     22  C   UNL d   1      27.031 -12.616  -5.460  0.00  0.00     0.029 A 
ENDBRANCH  14  17
ENDBRANCH   9  11
ENDBRANCH   7   9
TORSDOF 3
ENDMDL
MODEL 2
REMARK VINA RESULT:   -29.235      1.531      2.244
REMARK INTER + INTRA:         -30.709
REMARK INTER:                 -30.130
REMARK INTRA:                  -0.579
REMARK CONF_INDEPENDENT:        0.895
REMARK UNBOUND:                -0.579
REMARK  3 active torsions:
REMARK  status: ('A' for Active; 'I' for Inactive)
REMARK    1  A    between atoms: C_7  and  N_8 
REMARK    2  A    between atoms: N_8  and  N_9 
REMARK       I    between atoms: N_9  and  C_10 
REMARK       I    between atoms: C_10  and  N_12 
REMARK    3  A    between atoms: N_12  and  C_13 
ROOT
ATOM      1  N   UNL d   1      19.905 -19.108  -1.070  0.00  0.00    -0.191 NA
ATOM      2  C   UNL d   1      20.978 -18.747  -0.843  0.00  0.00     0.099 C 
ATOM      3  C   UNL d   1      22.327 -18.312  -0.611  0.00  0.00     0.046 A 
ATOM      4  C   UNL d   1      22.959 -18.573   0.600  0.00  0.00     0.023 A 
ATOM      5  C   UNL d   1      24.294 -18.213   0.758  0.00  0.00     0.004 A 
ATOM      6  C   UNL d   1      24.991 -17.594  -0.300  0.00  0.00     0.031 A 
ATOM      7  C   UNL d   1      24.360 -17.294  -1.528  0.00  0.00     0.049 A 
ATOM      8  C   UNL d   1      23.017 -17.659  -1.645  0.00  0.00     0.053 A 
ENDROOT
BRANCH   7   9
ATOM      9  N   UNL d   1      25.071 -16.679  -2.574  0.00  0.00    -0.297 N 
ATOM     10  H   UNL d   1      25.155 -17.121  -3.491  0.00  0.00     0.187 HD
BRANCH   9  11
ATOM     11  N   UNL d   1      25.753 -15.442  -2.410  0.00  0.00    -0.251 N 
ATOM     12  C   UNL d   1      25.548 -14.448  -3.364  0.00  0.00     0.339 C 
ATOM     13  O   UNL d   1      24.797 -14.639  -4.319  0.00  0.00    -0.245 OA
ATOM     14  N   UNL d   1      26.283 -13.278  -3.155  0.00  0.00    -0.308 N 
ATOM     15  H   UNL d   1      27.000 -13.243  -2.443  0.00  0.00     0.170 HD
ATOM     16  H   UNL d   1      26.348 -15.313  -1.609  0.00  0.00     0.191 HD
BRANCH  14  17
ATOM     17  C   UNL d   1      26.159 -12.134  -3.998  0.00  0.00     0.036 A 
ATOM     18  C   UNL d   1      25.719 -10.895  -3.507  0.00  0.00     0.029 A 
ATOM     19  C   UNL d   1      25.529  -9.809  -4.385  0.00  0.00     0.002 A 
ATOM     20  C   UNL d   1      25.827  -9.936  -5.741  0.00  0.00     0.000 A 
ATOM     21  C   UNL d   1      26.254 -11.163  -6.232  0.00  0.00     0.002 A 
ATOM     22  C   UNL d   1      26.417 -12.247  -5.367  0.00  0.00     0.029 A 
ENDBRANCH  14  17
ENDBRANCH   9  11
ENDBRANCH   7   9
TORSDOF 3
ENDMDL
MODEL 3
REMARK VINA RESULT:   -28.633      3.789      4.261
REMARK INTER + INTRA:         -29.960
REMARK INTER:                 -29.528
REMARK INTRA:                  -0.432
REMARK CONF_INDEPENDENT:        0.895
REMARK UNBOUND:                -0.432
REMARK  3 active torsions:
REMARK  status: ('A' for Active; 'I' for Inactive)
REMARK    1  A    between atoms: C_7  and  N_8 
REMARK    2  A    between atoms: N_8  and  N_9 
REMARK       I    between atoms: N_9  and  C_10 
REMARK       I    between atoms: C_10  and  N_12 
REMARK    3  A    between atoms: N_12  and  C_13 
ROOT
ATOM      1  N   UNL d   1      19.903 -19.325  -0.929  0.00  0.00    -0.191 NA
ATOM      2  C   UNL d   1      20.887 -18.723  -0.886  0.00  0.00     0.099 C 
ATOM      3  C   UNL d   1      22.129 -18.007  -0.791  0.00  0.00     0.046 A 
ATOM      4  C   UNL d   1      22.159 -16.620  -0.895  0.00  0.00     0.023 A 
ATOM      5  C   UNL d   1      23.367 -15.954  -0.712  0.00  0.00     0.004 A 
ATOM      6  C   UNL d   1      24.540 -16.681  -0.425  0.00  0.00     0.031 A 
ATOM      7  C   UNL d   1      24.539 -18.091  -0.345  0.00  0.00     0.049 A 
ATOM      8  C   UNL d   1      23.310 -18.726  -0.546  0.00  0.00     0.053 A 
ENDROOT
BRANCH   7   9
ATOM      9  N   UNL d   1      25.717 -18.800  -0.055  0.00  0.00    -0.297 N 
ATOM     10  H   UNL d   1      25.761 -19.817  -0.145  0.00  0.00     0.187 HD
BRANCH   9  11
ATOM     11  N   UNL d   1      26.894 -18.163   0.425  0.00  0.00    -0.251 N 
ATOM     12  C   UNL d   1      27.578 -17.311  -0.438  0.00  0.00     0.339 C 
ATOM     13  O   UNL d   1      27.172 -17.118  -1.584  0.00  0.00    -0.245 OA
ATOM     14  N   UNL d   1      28.745 -16.754   0.093  0.00  0.00    -0.308 N 
ATOM     15  H   UNL d   1      29.107 -17.074   0.980  0.00  0.00     0.170 HD
ATOM     16  H   UNL d   1      27.190 -18.329   1.372  0.00  0.00     0.191 HD
BRANCH  14  17
ATOM     17  C   UNL d   1      29.543 -15.816  -0.627  0.00  0.00     0.036 A 
ATOM     18  C   UNL d   1      29.575 -14.454  -0.288  0.00  0.00     0.029 A 
ATOM     19  C   UNL d   1      30.310 -13.543  -1.072  0.00  0.00     0.002 A 
ATOM     20  C   UNL d   1      31.057 -13.990  -2.160  0.00  0.00     0.000 A 
ATOM     21  C   UNL d   1      31.021 -15.335  -2.505  0.00  0.00     0.002 A 
ATOM     22  C   UNL d   1      30.271 -16.235  -1.743  0.00  0.00     0.029 A 
ENDBRANCH  14  17
ENDBRANCH   9  11
ENDBRANCH   7   9
TORSDOF 3
ENDMDL
MODEL 4
REMARK VINA RESULT:   -27.840      4.133      5.196
REMARK INTER + INTRA:         -29.245
REMARK INTER:                 -28.735
REMARK INTRA:                  -0.510
REMARK CONF_INDEPENDENT:        0.895
REMARK UNBOUND:                -0.510
REMARK  3 active torsions:
REMARK  status: ('A' for Active; 'I' for Inactive)
REMARK    1  A    between atoms: C_7  and  N_8 
REMARK    2  A    between atoms: N_8  and  N_9 
REMARK       I    between atoms: N_9  and  C_10 
REMARK       I    between atoms: C_10  and  N_12 
REMARK    3  A    between atoms: N_12  and  C_13 
ROOT
ATOM      1  N   UNL d   1      19.895 -18.577  -0.922  0.00  0.00    -0.191 NA
ATOM      2  C   UNL d   1      21.029 -18.413  -0.782  0.00  0.00     0.099 C 
ATOM      3  C   UNL d   1      22.441 -18.182  -0.655  0.00  0.00     0.046 A 
ATOM      4  C   UNL d   1      23.283 -19.179  -0.172  0.00  0.00     0.023 A 
ATOM      5  C   UNL d   1      24.656 -18.950  -0.144  0.00  0.00     0.004 A 
ATOM      6  C   UNL d   1      25.179 -17.723  -0.601  0.00  0.00     0.031 A 
ATOM      7  C   UNL d   1      24.340 -16.687  -1.067  0.00  0.00     0.049 A 
ATOM      8  C   UNL d   1      22.967 -16.948  -1.070  0.00  0.00     0.053 A 
ENDROOT
BRANCH   7   9
ATOM      9  N   UNL d   1      24.878 -15.470  -1.522  0.00  0.00    -0.297 N 
ATOM     10  H   UNL d   1      24.293 -14.766  -1.975  0.00  0.00     0.187 HD
BRANCH   9  11
ATOM     11  N   UNL d   1      26.264 -15.166  -1.429  0.00  0.00    -0.251 N 
ATOM     12  C   UNL d   1      26.720 -14.526  -0.279  0.00  0.00     0.339 C 
ATOM     13  O   UNL d   1      25.942 -14.234   0.629  0.00  0.00    -0.245 OA
ATOM     14  N   UNL d   1      28.085 -14.226  -0.279  0.00  0.00    -0.308 N 
ATOM     15  H   UNL d   1      28.636 -14.349  -1.117  0.00  0.00     0.170 HD
ATOM     16  H   UNL d   1      26.876 -15.432  -2.181  0.00  0.00     0.191 HD
BRANCH  14  17
ATOM     17  C   UNL d   1      28.737 -13.622   0.836  0.00  0.00     0.036 A 
ATOM     18  C   UNL d   1      29.476 -12.435   0.710  0.00  0.00     0.029 A 
ATOM     19  C   UNL d   1      30.176 -11.912   1.815  0.00  0.00     0.002 A 
ATOM     20  C   UNL d   1      30.100 -12.536   3.060  0.00  0.00     0.000 A 
ATOM     21  C   UNL d   1      29.378 -13.716   3.187  0.00  0.00     0.002 A 
ATOM     22  C   UNL d   1      28.706 -14.249   2.084  0.00  0.00     0.029 A 
ENDBRANCH  14  17
ENDBRANCH   9  11
ENDBRANCH   7   9
TORSDOF 3
ENDMDL
MODEL 5
REMARK VINA RESULT:   -27.511      2.599      2.749
REMARK INTER + INTRA:         -29.191
REMARK INTER:                 -28.406
REMARK INTRA:                  -0.786
REMARK CONF_INDEPENDENT:        0.895
REMARK UNBOUND:                -0.786
REMARK  3 active torsions:
REMARK  status: ('A' for Active; 'I' for Inactive)
REMARK    1  A    between atoms: C_7  and  N_8 
REMARK    2  A    between atoms: N_8  and  N_9 
REMARK       I    between atoms: N_9  and  C_10 
REMARK       I    between atoms: C_10  and  N_12 
REMARK    3  A    between atoms: N_12  and  C_13 
ROOT
ATOM      1  N   UNL d   1      19.905 -19.019  -0.896  0.00  0.00    -0.191 NA
ATOM      2  C   UNL d   1      20.999 -18.686  -0.740  0.00  0.00     0.099 C 
ATOM      3  C   UNL d   1      22.365 -18.262  -0.601  0.00  0.00     0.046 A 
ATOM      4  C   UNL d   1      23.242 -18.952   0.230  0.00  0.00     0.023 A 
ATOM      5  C   UNL d   1      24.578 -18.564   0.274  0.00  0.00     0.004 A 
ATOM      6  C   UNL d   1      25.029 -17.487  -0.515  0.00  0.00     0.031 A 
ATOM      7  C   UNL d   1      24.150 -16.753  -1.342  0.00  0.00     0.049 A 
ATOM      8  C   UNL d   1      22.814 -17.164  -1.351  0.00  0.00     0.053 A 
ENDROOT
BRANCH   7   9
ATOM      9  N   UNL d   1      24.617 -15.683  -2.124  0.00  0.00    -0.297 N 
ATOM     10  H   UNL d   1      24.436 -15.640  -3.129  0.00  0.00     0.187 HD
BRANCH   9  11
ATOM     11  N   UNL d   1      25.407 -14.630  -1.585  0.00  0.00    -0.251 N 
ATOM     12  C   UNL d   1      25.727 -13.558  -2.415  0.00  0.00     0.339 C 
ATOM     13  O   UNL d   1      25.337 -13.528  -3.582  0.00  0.00    -0.245 OA
ATOM     14  N   UNL d   1      26.538 -12.584  -1.825  0.00  0.00    -0.308 N 
ATOM     15  H   UNL d   1      26.954 -12.746  -0.918  0.00  0.00     0.170 HD
ATOM     16  H   UNL d   1      25.697 -14.678  -0.623  0.00  0.00     0.191 HD
BRANCH  14  17
ATOM     17  C   UNL d   1      26.921 -11.391  -2.505  0.00  0.00     0.036 A 
ATOM     18  C   UNL d   1      28.188 -10.812  -2.332  0.00  0.00     0.029 A 
ATOM     19  C   UNL d   1      28.502  -9.589  -2.956  0.00  0.00     0.002 A 
ATOM     20  C   UNL d   1      27.580  -8.965  -3.794  0.00  0.00     0.000 A 
ATOM     21  C   UNL d   1      26.321  -9.529  -3.960  0.00  0.00     0.002 A 
ATOM     22  C   UNL d   1      26.000 -10.729  -3.321  0.00  0.00     0.029 A 
ENDBRANCH  14  17
ENDBRANCH   9  11
ENDBRANCH   7   9
TORSDOF 3
ENDMDL
