MODEL 1
REMARK VINA RESULT:    -9.253      0.000      0.000
REMARK INTER + INTRA:         -13.387
REMARK INTER:                 -11.639
REMARK INTRA:                  -1.748
REMARK CONF_INDEPENDENT:        2.386
REMARK UNBOUND:                -1.748
REMARK  8 active torsions:
REMARK  status: ('A' for Active; 'I' for Inactive)
REMARK    1  A    between atoms: N_5  and  C_6 
REMARK    2  A    between atoms: C_6  and  C_7 
REMARK    3  A    between atoms: C_7  and  N_8 
REMARK       I    between atoms: N_8  and  C_9 
REMARK    4  A    between atoms: C_9  and  C_11 
REMARK    5  A    between atoms: C_12  and  C_11 
REMARK    6  A    between atoms: C_14  and  O_15 
REMARK    7  A    between atoms: N_16  and  C_17 
REMARK    8  A    between atoms: C_17  and  C_18 
ROOT
ATOM      1  N   UNL d   1      28.113 -13.168  -0.744  0.00  0.00    -0.358 N 
ATOM      2  C   UNL d   1      28.439 -12.090  -1.503  0.00  0.00     0.220 C 
ATOM      3  O   UNL d   1      29.589 -11.663  -1.529  0.00  0.00    -0.274 OA
ATOM      4  H   UNL d   1      27.145 -13.400  -0.740  0.00  0.00     0.162 HD
ENDROOT
BRANCH   2   5
ATOM      5  C   UNL d   1      27.297 -11.418  -2.306  0.00  0.00     0.140 C 
BRANCH   5   6
ATOM      6  C   UNL d   1      26.960 -11.888  -3.737  0.00  0.00     0.213 C 
ATOM      7  N   UNL d   1      25.490 -12.112  -3.949  0.00  0.00    -0.235 NA
ATOM      8  C   UNL d   1      25.406 -13.412  -3.835  0.00  0.00     0.244 C 
ATOM      9  N   UNL d   1      26.483 -14.119  -3.459  0.00  0.00    -0.276 N 
ATOM     10  C   UNL d   1      27.344 -13.306  -4.070  0.00  0.00     0.252 C 
ATOM     11  O   UNL d   1      27.899 -13.670  -5.061  0.00  0.00    -0.270 OA
BRANCH   8  12
ATOM     12  O   UNL d   1      24.301 -14.072  -4.187  0.00  0.00    -0.331 OA
ATOM     13  H   UNL d   1      23.974 -13.687  -5.021  0.00  0.00     0.221 HD
ENDBRANCH   8  12
BRANCH   9  14
ATOM     14  C   UNL d   1      26.721 -15.566  -3.437  0.00  0.00     0.174 C 
BRANCH  14  15
ATOM     15  C   UNL d   1      26.125 -16.324  -2.237  0.00  0.00    -0.037 A 
ATOM     16  C   UNL d   1      26.884 -16.546  -1.063  0.00  0.00     0.012 A 
ATOM     17  C   UNL d   1      26.316 -17.177   0.053  0.00  0.00     0.040 A 
ATOM     18  C   UNL d   1      24.990 -17.578  -0.026  0.00  0.00     0.105 A 
ATOM     19  C   UNL d   1      24.254 -17.393  -1.166  0.00  0.00     0.105 A 
ATOM     20  O   UNL d   1      24.248 -18.203   0.931  0.00  0.00    -0.323 OA
ATOM     21  C   UNL d   1      24.790 -16.780  -2.276  0.00  0.00     0.048 A 
ATOM     22  O   UNL d   1      22.966 -17.820  -1.059  0.00  0.00    -0.323 OA
ATOM     23  C   UNL d   1      22.982 -18.417   0.230  0.00  0.00     0.352 A 
ENDBRANCH  14  15
ENDBRANCH   9  14
ENDBRANCH   5   6
ENDBRANCH   2   5
BRANCH   1  24
ATOM     24  C   UNL d   1      28.995 -13.927   0.147  0.00  0.00     0.164 C 
BRANCH  24  25
ATOM     25  C   UNL d   1      28.780 -13.672   1.720  0.00  0.00     0.175 C 
ATOM     26  C   UNL d   1      27.305 -13.978   2.100  0.00  0.00     0.043 C 
ATOM     27  C   UNL d   1      26.288 -12.994   1.546  0.00  0.00     0.003 C 
ATOM     28  C   UNL d   1      26.675 -11.572   1.919  0.00  0.00     0.000 C 
ATOM     29  C   UNL d   1      28.100 -11.200   1.552  0.00  0.00     0.003 C 
ATOM     30  C   UNL d   1      29.071 -12.201   1.976  0.00  0.00     0.043 C 
BRANCH  25  31
ATOM     31  N   UNL d   1      29.711 -14.540   2.539  0.00  0.00     0.103 N 
ATOM     32  C   UNL d   1      29.522 -14.446   4.017  0.00  0.00     0.301 C 
ATOM     33  C   UNL d   1      29.915 -13.131   4.657  0.00  0.00     0.264 C 
ATOM     34  N   UNL d   1      31.310 -12.763   4.178  0.00  0.00    -0.072 N 
ATOM     35  C   UNL d   1      31.513 -11.375   4.517  0.00  0.00     0.269 C 
ATOM     36  C   UNL d   1      31.746 -13.042   2.733  0.00  0.00     0.264 C 
ATOM     37  H   UNL d   1      31.957 -13.324   4.729  0.00  0.00     0.279 HD
ATOM     38  C   UNL d   1      31.158 -14.360   2.240  0.00  0.00     0.301 C 
ENDBRANCH  25  31
ENDBRANCH  24  25
ENDBRANCH   1  24
TORSDOF 8
ENDMDL
MODEL 2
REMARK VINA RESULT:    -9.189      2.507      4.207
REMARK INTER + INTRA:         -13.283
REMARK INTER:                 -11.575
REMARK INTRA:                  -1.707
REMARK CONF_INDEPENDENT:        2.386
REMARK UNBOUND:                -1.707
REMARK  8 active torsions:
REMARK  status: ('A' for Active; 'I' for Inactive)
REMARK    1  A    between atoms: N_5  and  C_6 
REMARK    2  A    between atoms: C_6  and  C_7 
REMARK    3  A    between atoms: C_7  and  N_8 
REMARK       I    between atoms: N_8  and  C_9 
REMARK    4  A    between atoms: C_9  and  C_11 
REMARK    5  A    between atoms: C_12  and  C_11 
REMARK    6  A    between atoms: C_14  and  O_15 
REMARK    7  A    between atoms: N_16  and  C_17 
REMARK    8  A    between atoms: C_17  and  C_18 
ROOT
ATOM      1  N   UNL d   1      28.547 -16.040  -3.907  0.00  0.00    -0.358 N 
ATOM      2  C   UNL d   1      27.873 -15.542  -4.975  0.00  0.00     0.220 C 
ATOM      3  O   UNL d   1      28.475 -15.071  -5.935  0.00  0.00    -0.274 OA
ATOM      4  H   UNL d   1      27.973 -16.343  -3.153  0.00  0.00     0.162 HD
ENDROOT
BRANCH   2   5
ATOM      5  C   UNL d   1      26.325 -15.575  -4.914  0.00  0.00     0.140 C 
BRANCH   5   6
ATOM      6  C   UNL d   1      25.539 -14.416  -4.266  0.00  0.00     0.213 C 
ATOM      7  N   UNL d   1      26.428 -13.400  -3.608  0.00  0.00    -0.235 NA
ATOM      8  C   UNL d   1      26.338 -13.752  -2.351  0.00  0.00     0.244 C 
ATOM      9  N   UNL d   1      25.681 -14.874  -2.019  0.00  0.00    -0.276 N 
ATOM     10  C   UNL d   1      24.791 -14.754  -3.003  0.00  0.00     0.252 C 
ATOM     11  O   UNL d   1      23.666 -14.450  -2.749  0.00  0.00    -0.270 OA
BRANCH   8  12
ATOM     12  O   UNL d   1      26.794 -12.966  -1.375  0.00  0.00    -0.331 OA
ATOM     13  H   UNL d   1      27.748 -12.827  -1.520  0.00  0.00     0.221 HD
ENDBRANCH   8  12
BRANCH   9  14
ATOM     14  C   UNL d   1      25.270 -15.392  -0.710  0.00  0.00     0.174 C 
BRANCH  14  15
ATOM     15  C   UNL d   1      24.328 -16.610  -0.737  0.00  0.00    -0.037 A 
ATOM     16  C   UNL d   1      24.825 -17.923  -0.562  0.00  0.00     0.012 A 
ATOM     17  C   UNL d   1      23.956 -19.023  -0.519  0.00  0.00     0.040 A 
ATOM     18  C   UNL d   1      22.595 -18.786  -0.655  0.00  0.00     0.105 A 
ATOM     19  C   UNL d   1      22.105 -17.524  -0.851  0.00  0.00     0.105 A 
ATOM     20  O   UNL d   1      21.583 -19.700  -0.643  0.00  0.00    -0.323 OA
ATOM     21  C   UNL d   1      22.938 -16.428  -0.901  0.00  0.00     0.048 A 
ATOM     22  O   UNL d   1      20.748 -17.472  -0.935  0.00  0.00    -0.323 OA
ATOM     23  C   UNL d   1      20.418 -18.854  -0.898  0.00  0.00     0.352 A 
ENDBRANCH  14  15
ENDBRANCH   9  14
ENDBRANCH   5   6
ENDBRANCH   2   5
BRANCH   1  24
ATOM     24  C   UNL d   1      29.999 -16.061  -3.703  0.00  0.00     0.164 C 
BRANCH  24  25
ATOM     25  C   UNL d   1      30.511 -15.457  -2.303  0.00  0.00     0.175 C 
ATOM     26  C   UNL d   1      29.568 -14.307  -1.855  0.00  0.00     0.043 C 
ATOM     27  C   UNL d   1      29.643 -13.053  -2.710  0.00  0.00     0.003 C 
ATOM     28  C   UNL d   1      31.084 -12.579  -2.822  0.00  0.00     0.000 C 
ATOM     29  C   UNL d   1      32.055 -13.651  -3.280  0.00  0.00     0.003 C 
ATOM     30  C   UNL d   1      31.906 -14.900  -2.543  0.00  0.00     0.043 C 
BRANCH  25  31
ATOM     31  N   UNL d   1      30.553 -16.531  -1.236  0.00  0.00     0.103 N 
ATOM     32  C   UNL d   1      29.238 -17.168  -0.933  0.00  0.00     0.301 C 
ATOM     33  C   UNL d   1      28.215 -16.290  -0.243  0.00  0.00     0.264 C 
ATOM     34  N   UNL d   1      28.880 -15.624   0.950  0.00  0.00    -0.072 N 
ATOM     35  C   UNL d   1      28.008 -14.554   1.370  0.00  0.00     0.269 C 
ATOM     36  C   UNL d   1      30.337 -15.144   0.874  0.00  0.00     0.264 C 
ATOM     37  H   UNL d   1      28.905 -16.325   1.689  0.00  0.00     0.279 HD
ATOM     38  C   UNL d   1      31.178 -16.112   0.048  0.00  0.00     0.301 C 
ENDBRANCH  25  31
ENDBRANCH  24  25
ENDBRANCH   1  24
TORSDOF 8
ENDMDL
MODEL 3
REMARK VINA RESULT:    -9.065      1.826      2.668
REMARK INTER + INTRA:         -13.798
REMARK INTER:                 -11.451
REMARK INTRA:                  -2.347
REMARK CONF_INDEPENDENT:        2.386
REMARK UNBOUND:                -2.347
REMARK  8 active torsions:
REMARK  status: ('A' for Active; 'I' for Inactive)
REMARK    1  A    between atoms: N_5  and  C_6 
REMARK    2  A    between atoms: C_6  and  C_7 
REMARK    3  A    between atoms: C_7  and  N_8 
REMARK       I    between atoms: N_8  and  C_9 
REMARK    4  A    between atoms: C_9  and  C_11 
REMARK    5  A    between atoms: C_12  and  C_11 
REMARK    6  A    between atoms: C_14  and  O_15 
REMARK    7  A    between atoms: N_16  and  C_17 
REMARK    8  A    between atoms: C_17  and  C_18 
ROOT
ATOM      1  N   UNL d   1      29.378 -14.586  -2.061  0.00  0.00    -0.358 N 
ATOM      2  C   UNL d   1      29.062 -15.355  -3.135  0.00  0.00     0.220 C 
ATOM      3  O   UNL d   1      28.817 -16.550  -3.001  0.00  0.00    -0.274 OA
ATOM      4  H   UNL d   1      29.621 -13.645  -2.277  0.00  0.00     0.162 HD
ENDROOT
BRANCH   2   5
ATOM      5  C   UNL d   1      29.050 -14.666  -4.522  0.00  0.00     0.140 C 
BRANCH   5   6
ATOM      6  C   UNL d   1      27.782 -14.690  -5.400  0.00  0.00     0.213 C 
ATOM      7  N   UNL d   1      27.320 -13.319  -5.803  0.00  0.00    -0.235 NA
ATOM      8  C   UNL d   1      26.349 -13.111  -4.950  0.00  0.00     0.244 C 
ATOM      9  N   UNL d   1      26.130 -13.993  -3.963  0.00  0.00    -0.276 N 
ATOM     10  C   UNL d   1      26.499 -15.043  -4.694  0.00  0.00     0.252 C 
ATOM     11  O   UNL d   1      25.675 -15.816  -5.077  0.00  0.00    -0.270 OA
BRANCH   8  12
ATOM     12  O   UNL d   1      25.498 -12.095  -5.100  0.00  0.00    -0.331 OA
ATOM     13  H   UNL d   1      24.780 -12.206  -4.449  0.00  0.00     0.221 HD
ENDBRANCH   8  12
BRANCH   9  14
ATOM     14  C   UNL d   1      25.022 -14.108  -3.009  0.00  0.00     0.174 C 
BRANCH  14  15
ATOM     15  C   UNL d   1      25.100 -15.296  -2.032  0.00  0.00    -0.037 A 
ATOM     16  C   UNL d   1      23.937 -16.001  -1.644  0.00  0.00     0.012 A 
ATOM     17  C   UNL d   1      24.019 -17.124  -0.809  0.00  0.00     0.040 A 
ATOM     18  C   UNL d   1      25.275 -17.522  -0.371  0.00  0.00     0.105 A 
ATOM     19  C   UNL d   1      26.405 -16.832  -0.718  0.00  0.00     0.105 A 
ATOM     20  O   UNL d   1      25.582 -18.575   0.439  0.00  0.00    -0.323 OA
ATOM     21  C   UNL d   1      26.349 -15.724  -1.534  0.00  0.00     0.048 A 
ATOM     22  O   UNL d   1      27.550 -17.378  -0.225  0.00  0.00    -0.323 OA
ATOM     23  C   UNL d   1      27.029 -18.424   0.583  0.00  0.00     0.352 A 
ENDBRANCH  14  15
ENDBRANCH   9  14
ENDBRANCH   5   6
ENDBRANCH   2   5
BRANCH   1  24
ATOM     24  C   UNL d   1      29.519 -15.018  -0.667  0.00  0.00     0.164 C 
BRANCH  24  25
ATOM     25  C   UNL d   1      29.482 -13.844   0.431  0.00  0.00     0.175 C 
ATOM     26  C   UNL d   1      28.614 -14.288   1.640  0.00  0.00     0.043 C 
ATOM     27  C   UNL d   1      27.127 -14.403   1.348  0.00  0.00     0.003 C 
ATOM     28  C   UNL d   1      26.610 -13.110   0.738  0.00  0.00     0.000 C 
ATOM     29  C   UNL d   1      27.402 -12.633  -0.466  0.00  0.00     0.003 C 
ATOM     30  C   UNL d   1      28.840 -12.634  -0.232  0.00  0.00     0.043 C 
BRANCH  25  31
ATOM     31  N   UNL d   1      30.880 -13.503   0.901  0.00  0.00     0.103 N 
ATOM     32  C   UNL d   1      31.653 -14.650   1.463  0.00  0.00     0.301 C 
ATOM     33  C   UNL d   1      31.163 -15.200   2.786  0.00  0.00     0.264 C 
ATOM     34  N   UNL d   1      30.975 -14.038   3.748  0.00  0.00    -0.072 N 
ATOM     35  C   UNL d   1      30.197 -14.538   4.856  0.00  0.00     0.269 C 
ATOM     36  C   UNL d   1      30.428 -12.690   3.259  0.00  0.00     0.264 C 
ATOM     37  H   UNL d   1      31.904 -13.801   4.092  0.00  0.00     0.279 HD
ATOM     38  C   UNL d   1      30.957 -12.370   1.864  0.00  0.00     0.301 C 
ENDBRANCH  25  31
ENDBRANCH  24  25
ENDBRANCH   1  24
TORSDOF 8
ENDMDL
MODEL 4
REMARK VINA RESULT:    -8.977      2.093      4.746
REMARK INTER + INTRA:         -13.291
REMARK INTER:                 -11.364
REMARK INTRA:                  -1.927
REMARK CONF_INDEPENDENT:        2.386
REMARK UNBOUND:                -1.927
REMARK  8 active torsions:
REMARK  status: ('A' for Active; 'I' for Inactive)
REMARK    1  A    between atoms: N_5  and  C_6 
REMARK    2  A    between atoms: C_6  and  C_7 
REMARK    3  A    between atoms: C_7  and  N_8 
REMARK       I    between atoms: N_8  and  C_9 
REMARK    4  A    between atoms: C_9  and  C_11 
REMARK    5  A    between atoms: C_12  and  C_11 
REMARK    6  A    between atoms: C_14  and  O_15 
REMARK    7  A    between atoms: N_16  and  C_17 
REMARK    8  A    between atoms: C_17  and  C_18 
ROOT
ATOM      1  N   UNL d   1      29.667 -16.191   0.065  0.00  0.00    -0.358 N 
ATOM      2  C   UNL d   1      28.925 -16.782  -0.907  0.00  0.00     0.220 C 
ATOM      3  O   UNL d   1      29.075 -16.478  -2.086  0.00  0.00    -0.274 OA
ATOM      4  H   UNL d   1      29.431 -16.458   0.994  0.00  0.00     0.162 HD
ENDROOT
BRANCH   2   5
ATOM      5  C   UNL d   1      27.876 -17.830  -0.458  0.00  0.00     0.140 C 
BRANCH   5   6
ATOM      6  C   UNL d   1      26.604 -17.395   0.300  0.00  0.00     0.213 C 
ATOM      7  N   UNL d   1      25.491 -18.398   0.203  0.00  0.00    -0.235 NA
ATOM      8  C   UNL d   1      24.743 -17.867  -0.730  0.00  0.00     0.244 C 
ATOM      9  N   UNL d   1      25.170 -16.778  -1.387  0.00  0.00    -0.276 N 
ATOM     10  C   UNL d   1      25.812 -16.279  -0.332  0.00  0.00     0.252 C 
ATOM     11  O   UNL d   1      25.373 -15.324   0.230  0.00  0.00    -0.270 OA
BRANCH   8  12
ATOM     12  O   UNL d   1      23.511 -18.317  -0.973  0.00  0.00    -0.331 OA
ATOM     13  H   UNL d   1      22.879 -17.718  -0.534  0.00  0.00     0.221 HD
ENDBRANCH   8  12
BRANCH   9  14
ATOM     14  C   UNL d   1      24.474 -15.885  -2.319  0.00  0.00     0.174 C 
BRANCH  14  15
ATOM     15  C   UNL d   1      25.375 -14.999  -3.198  0.00  0.00    -0.037 A 
ATOM     16  C   UNL d   1      25.547 -13.623  -2.915  0.00  0.00     0.012 A 
ATOM     17  C   UNL d   1      26.422 -12.835  -3.676  0.00  0.00     0.040 A 
ATOM     18  C   UNL d   1      27.112 -13.442  -4.716  0.00  0.00     0.105 A 
ATOM     19  C   UNL d   1      26.933 -14.765  -5.016  0.00  0.00     0.105 A 
ATOM     20  O   UNL d   1      28.002 -12.868  -5.574  0.00  0.00    -0.323 OA
ATOM     21  C   UNL d   1      26.078 -15.560  -4.286  0.00  0.00     0.048 A 
ATOM     22  O   UNL d   1      27.709 -15.201  -6.046  0.00  0.00    -0.323 OA
ATOM     23  C   UNL d   1      28.318 -13.986  -6.463  0.00  0.00     0.352 A 
ENDBRANCH  14  15
ENDBRANCH   9  14
ENDBRANCH   5   6
ENDBRANCH   2   5
BRANCH   1  24
ATOM     24  C   UNL d   1      30.668 -15.132  -0.101  0.00  0.00     0.164 C 
BRANCH  24  25
ATOM     25  C   UNL d   1      30.445 -13.819   0.798  0.00  0.00     0.175 C 
ATOM     26  C   UNL d   1      29.163 -13.989   1.660  0.00  0.00     0.043 C 
ATOM     27  C   UNL d   1      27.862 -13.979   0.875  0.00  0.00     0.003 C 
ATOM     28  C   UNL d   1      27.785 -12.735   0.003  0.00  0.00     0.000 C 
ATOM     29  C   UNL d   1      28.998 -12.523  -0.883  0.00  0.00     0.003 C 
ATOM     30  C   UNL d   1      30.256 -12.651  -0.159  0.00  0.00     0.043 C 
BRANCH  25  31
ATOM     31  N   UNL d   1      31.638 -13.571   1.697  0.00  0.00     0.103 N 
ATOM     32  C   UNL d   1      32.074 -14.749   2.503  0.00  0.00     0.301 C 
ATOM     33  C   UNL d   1      31.129 -15.192   3.601  0.00  0.00     0.264 C 
ATOM     34  N   UNL d   1      30.747 -13.974   4.425  0.00  0.00    -0.072 N 
ATOM     35  C   UNL d   1      29.606 -14.353   5.223  0.00  0.00     0.269 C 
ATOM     36  C   UNL d   1      30.518 -12.610   3.758  0.00  0.00     0.264 C 
ATOM     37  H   UNL d   1      31.530 -13.797   5.051  0.00  0.00     0.279 HD
ATOM     38  C   UNL d   1      31.501 -12.403   2.610  0.00  0.00     0.301 C 
ENDBRANCH  25  31
ENDBRANCH  24  25
ENDBRANCH   1  24
TORSDOF 8
ENDMDL
MODEL 5
REMARK VINA RESULT:    -8.971      1.744      2.590
REMARK INTER + INTRA:         -13.592
REMARK INTER:                 -11.358
REMARK INTRA:                  -2.234
REMARK CONF_INDEPENDENT:        2.386
REMARK UNBOUND:                -2.234
REMARK  8 active torsions:
REMARK  status: ('A' for Active; 'I' for Inactive)
REMARK    1  A    between atoms: N_5  and  C_6 
REMARK    2  A    between atoms: C_6  and  C_7 
REMARK    3  A    between atoms: C_7  and  N_8 
REMARK       I    between atoms: N_8  and  C_9 
REMARK    4  A    between atoms: C_9  and  C_11 
REMARK    5  A    between atoms: C_12  and  C_11 
REMARK    6  A    between atoms: C_14  and  O_15 
REMARK    7  A    between atoms: N_16  and  C_17 
REMARK    8  A    between atoms: C_17  and  C_18 
ROOT
ATOM      1  N   UNL d   1      29.500 -14.380  -2.108  0.00  0.00    -0.358 N 
ATOM      2  C   UNL d   1      29.213 -13.918  -3.352  0.00  0.00     0.220 C 
ATOM      3  O   UNL d   1      29.187 -12.713  -3.584  0.00  0.00    -0.274 OA
ATOM      4  H   UNL d   1      29.436 -15.368  -2.003  0.00  0.00     0.162 HD
ENDROOT
BRANCH   2   5
ATOM      5  C   UNL d   1      28.900 -14.970  -4.445  0.00  0.00     0.140 C 
BRANCH   5   6
ATOM      6  C   UNL d   1      27.697 -14.785  -5.393  0.00  0.00     0.213 C 
ATOM      7  N   UNL d   1      27.320 -13.344  -5.588  0.00  0.00    -0.235 NA
ATOM      8  C   UNL d   1      26.301 -13.230  -4.776  0.00  0.00     0.244 C 
ATOM      9  N   UNL d   1      25.977 -14.250  -3.965  0.00  0.00    -0.276 N 
ATOM     10  C   UNL d   1      26.354 -15.183  -4.838  0.00  0.00     0.252 C 
ATOM     11  O   UNL d   1      25.529 -15.838  -5.396  0.00  0.00    -0.270 OA
BRANCH   8  12
ATOM     12  O   UNL d   1      25.503 -12.161  -4.806  0.00  0.00    -0.331 OA
ATOM     13  H   UNL d   1      24.631 -12.445  -5.135  0.00  0.00     0.221 HD
ENDBRANCH   8  12
BRANCH   9  14
ATOM     14  C   UNL d   1      24.801 -14.463  -3.116  0.00  0.00     0.174 C 
BRANCH  14  15
ATOM     15  C   UNL d   1      24.948 -15.542  -2.027  0.00  0.00    -0.037 A 
ATOM     16  C   UNL d   1      23.816 -16.066  -1.359  0.00  0.00     0.012 A 
ATOM     17  C   UNL d   1      23.948 -17.097  -0.418  0.00  0.00     0.040 A 
ATOM     18  C   UNL d   1      25.220 -17.586  -0.158  0.00  0.00     0.105 A 
ATOM     19  C   UNL d   1      26.326 -17.069  -0.778  0.00  0.00     0.105 A 
ATOM     20  O   UNL d   1      25.573 -18.575   0.712  0.00  0.00    -0.323 OA
ATOM     21  C   UNL d   1      26.223 -16.054  -1.703  0.00  0.00     0.048 A 
ATOM     22  O   UNL d   1      27.487 -17.686  -0.426  0.00  0.00    -0.323 OA
ATOM     23  C   UNL d   1      27.030 -18.575   0.583  0.00  0.00     0.352 A 
ENDBRANCH  14  15
ENDBRANCH   9  14
ENDBRANCH   5   6
ENDBRANCH   2   5
BRANCH   1  24
ATOM     24  C   UNL d   1      29.763 -13.588  -0.903  0.00  0.00     0.164 C 
BRANCH  24  25
ATOM     25  C   UNL d   1      28.525 -13.436   0.112  0.00  0.00     0.175 C 
ATOM     26  C   UNL d   1      27.220 -13.184  -0.692  0.00  0.00     0.043 C 
ATOM     27  C   UNL d   1      27.147 -11.830  -1.379  0.00  0.00     0.003 C 
ATOM     28  C   UNL d   1      27.406 -10.717  -0.375  0.00  0.00     0.000 C 
ATOM     29  C   UNL d   1      28.682 -10.891   0.429  0.00  0.00     0.003 C 
ATOM     30  C   UNL d   1      28.816 -12.229   0.991  0.00  0.00     0.043 C 
BRANCH  25  31
ATOM     31  N   UNL d   1      28.371 -14.679   0.963  0.00  0.00     0.103 N 
ATOM     32  C   UNL d   1      28.464 -14.449   2.435  0.00  0.00     0.301 C 
ATOM     33  C   UNL d   1      29.828 -14.055   2.963  0.00  0.00     0.264 C 
ATOM     34  N   UNL d   1      30.855 -15.031   2.414  0.00  0.00    -0.072 N 
ATOM     35  C   UNL d   1      32.152 -14.442   2.642  0.00  0.00     0.269 C 
ATOM     36  C   UNL d   1      30.744 -15.569   0.979  0.00  0.00     0.264 C 
ATOM     37  H   UNL d   1      30.781 -15.872   2.983  0.00  0.00     0.279 HD
ATOM     38  C   UNL d   1      29.283 -15.799   0.605  0.00  0.00     0.301 C 
ENDBRANCH  25  31
ENDBRANCH  24  25
ENDBRANCH   1  24
TORSDOF 8
ENDMDL
MODEL 6
REMARK VINA RESULT:    -8.718      2.475      3.476
REMARK INTER + INTRA:         -13.300
REMARK INTER:                 -11.104
REMARK INTRA:                  -2.196
REMARK CONF_INDEPENDENT:        2.386
REMARK UNBOUND:                -2.196
REMARK  8 active torsions:
REMARK  status: ('A' for Active; 'I' for Inactive)
REMARK    1  A    between atoms: N_5  and  C_6 
REMARK    2  A    between atoms: C_6  and  C_7 
REMARK    3  A    between atoms: C_7  and  N_8 
REMARK       I    between atoms: N_8  and  C_9 
REMARK    4  A    between atoms: C_9  and  C_11 
REMARK    5  A    between atoms: C_12  and  C_11 
REMARK    6  A    between atoms: C_14  and  O_15 
REMARK    7  A    between atoms: N_16  and  C_17 
REMARK    8  A    between atoms: C_17  and  C_18 
ROOT
ATOM      1  N   UNL d   1      30.100 -14.660  -3.077  0.00  0.00    -0.358 N 
ATOM      2  C   UNL d   1      29.051 -15.315  -3.639  0.00  0.00     0.220 C 
ATOM      3  O   UNL d   1      28.436 -16.172  -3.013  0.00  0.00    -0.274 OA
ATOM      4  H   UNL d   1      30.574 -14.029  -3.683  0.00  0.00     0.162 HD
ENDROOT
BRANCH   2   5
ATOM      5  C   UNL d   1      28.688 -14.948  -5.100  0.00  0.00     0.140 C 
BRANCH   5   6
ATOM      6  C   UNL d   1      27.227 -14.647  -5.495  0.00  0.00     0.213 C 
ATOM      7  N   UNL d   1      26.949 -13.177  -5.636  0.00  0.00    -0.235 NA
ATOM      8  C   UNL d   1      26.368 -12.913  -4.493  0.00  0.00     0.244 C 
ATOM      9  N   UNL d   1      26.305 -13.859  -3.543  0.00  0.00    -0.276 N 
ATOM     10  C   UNL d   1      26.197 -14.859  -4.417  0.00  0.00     0.252 C 
ATOM     11  O   UNL d   1      25.155 -15.425  -4.541  0.00  0.00    -0.270 OA
BRANCH   8  12
ATOM     12  O   UNL d   1      25.739 -11.756  -4.285  0.00  0.00    -0.331 OA
ATOM     13  H   UNL d   1      25.125 -11.608  -5.028  0.00  0.00     0.221 HD
ENDBRANCH   8  12
BRANCH   9  14
ATOM     14  C   UNL d   1      25.565 -13.899  -2.278  0.00  0.00     0.174 C 
BRANCH  14  15
ATOM     15  C   UNL d   1      25.316 -15.300  -1.691  0.00  0.00    -0.037 A 
ATOM     16  C   UNL d   1      26.369 -16.048  -1.112  0.00  0.00     0.012 A 
ATOM     17  C   UNL d   1      26.125 -17.294  -0.517  0.00  0.00     0.040 A 
ATOM     18  C   UNL d   1      24.824 -17.774  -0.515  0.00  0.00     0.105 A 
ATOM     19  C   UNL d   1      23.802 -17.073  -1.095  0.00  0.00     0.105 A 
ATOM     20  O   UNL d   1      24.368 -18.950   0.003  0.00  0.00    -0.323 OA
ATOM     21  C   UNL d   1      24.015 -15.849  -1.689  0.00  0.00     0.048 A 
ATOM     22  O   UNL d   1      22.588 -17.677  -0.976  0.00  0.00    -0.323 OA
ATOM     23  C   UNL d   1      22.954 -18.907  -0.365  0.00  0.00     0.352 A 
ENDBRANCH  14  15
ENDBRANCH   9  14
ENDBRANCH   5   6
ENDBRANCH   2   5
BRANCH   1  24
ATOM     24  C   UNL d   1      30.671 -14.876  -1.744  0.00  0.00     0.164 C 
BRANCH  24  25
ATOM     25  C   UNL d   1      30.043 -13.979  -0.566  0.00  0.00     0.175 C 
ATOM     26  C   UNL d   1      28.661 -13.426  -1.013  0.00  0.00     0.043 C 
ATOM     27  C   UNL d   1      28.720 -12.383  -2.117  0.00  0.00     0.003 C 
ATOM     28  C   UNL d   1      29.669 -11.261  -1.729  0.00  0.00     0.000 C 
ATOM     29  C   UNL d   1      31.047 -11.733  -1.305  0.00  0.00     0.003 C 
ATOM     30  C   UNL d   1      30.998 -12.818  -0.333  0.00  0.00     0.043 C 
BRANCH  25  31
ATOM     31  N   UNL d   1      29.885 -14.790   0.703  0.00  0.00     0.103 N 
ATOM     32  C   UNL d   1      31.161 -15.290   1.293  0.00  0.00     0.301 C 
ATOM     33  C   UNL d   1      31.886 -16.360   0.502  0.00  0.00     0.264 C 
ATOM     34  N   UNL d   1      30.890 -17.450   0.144  0.00  0.00    -0.072 N 
ATOM     35  C   UNL d   1      31.510 -18.260  -0.877  0.00  0.00     0.269 C 
ATOM     36  C   UNL d   1      29.444 -17.103  -0.236  0.00  0.00     0.264 C 
ATOM     37  H   UNL d   1      30.780 -18.020   0.980  0.00  0.00     0.279 HD
ATOM     38  C   UNL d   1      28.936 -15.932   0.600  0.00  0.00     0.301 C 
ENDBRANCH  25  31
ENDBRANCH  24  25
ENDBRANCH   1  24
TORSDOF 8
ENDMDL
MODEL 7
REMARK VINA RESULT:    -8.458      2.976      4.584
REMARK INTER + INTRA:         -13.159
REMARK INTER:                 -10.844
REMARK INTRA:                  -2.314
REMARK CONF_INDEPENDENT:        2.386
REMARK UNBOUND:                -2.314
REMARK  8 active torsions:
REMARK  status: ('A' for Active; 'I' for Inactive)
REMARK    1  A    between atoms: N_5  and  C_6 
REMARK    2  A    between atoms: C_6  and  C_7 
REMARK    3  A    between atoms: C_7  and  N_8 
REMARK       I    between atoms: N_8  and  C_9 
REMARK    4  A    between atoms: C_9  and  C_11 
REMARK    5  A    between atoms: C_12  and  C_11 
REMARK    6  A    between atoms: C_14  and  O_15 
REMARK    7  A    between atoms: N_16  and  C_17 
REMARK    8  A    between atoms: C_17  and  C_18 
ROOT
ATOM      1  N   UNL d   1      30.846 -14.795  -3.173  0.00  0.00    -0.358 N 
ATOM      2  C   UNL d   1      29.800 -13.952  -2.975  0.00  0.00     0.220 C 
ATOM      3  O   UNL d   1      29.138 -14.003  -1.943  0.00  0.00    -0.274 OA
ATOM      4  H   UNL d   1      31.283 -14.719  -4.064  0.00  0.00     0.162 HD
ENDROOT
BRANCH   2   5
ATOM      5  C   UNL d   1      29.473 -12.950  -4.110  0.00  0.00     0.140 C 
BRANCH   5   6
ATOM      6  C   UNL d   1      28.589 -13.373  -5.301  0.00  0.00     0.213 C 
ATOM      7  N   UNL d   1      27.789 -12.237  -5.871  0.00  0.00    -0.235 NA
ATOM      8  C   UNL d   1      26.617 -12.447  -5.327  0.00  0.00     0.244 C 
ATOM      9  N   UNL d   1      26.474 -13.409  -4.403  0.00  0.00    -0.276 N 
ATOM     10  C   UNL d   1      27.382 -14.208  -4.961  0.00  0.00     0.252 C 
ATOM     11  O   UNL d   1      27.031 -15.199  -5.524  0.00  0.00    -0.270 OA
BRANCH   8  12
ATOM     12  O   UNL d   1      25.529 -11.798  -5.747  0.00  0.00    -0.331 OA
ATOM     13  H   UNL d   1      24.807 -11.985  -5.119  0.00  0.00     0.221 HD
ENDBRANCH   8  12
BRANCH   9  14
ATOM     14  C   UNL d   1      25.270 -13.975  -3.787  0.00  0.00     0.174 C 
BRANCH  14  15
ATOM     15  C   UNL d   1      25.508 -14.913  -2.589  0.00  0.00    -0.037 A 
ATOM     16  C   UNL d   1      26.320 -14.517  -1.500  0.00  0.00     0.012 A 
ATOM     17  C   UNL d   1      26.479 -15.347  -0.381  0.00  0.00     0.040 A 
ATOM     18  C   UNL d   1      25.820 -16.567  -0.372  0.00  0.00     0.105 A 
ATOM     19  C   UNL d   1      25.052 -16.973  -1.431  0.00  0.00     0.105 A 
ATOM     20  O   UNL d   1      25.835 -17.518   0.605  0.00  0.00    -0.323 OA
ATOM     21  C   UNL d   1      24.883 -16.178  -2.543  0.00  0.00     0.048 A 
ATOM     22  O   UNL d   1      24.456 -18.181  -1.242  0.00  0.00    -0.323 OA
ATOM     23  C   UNL d   1      25.021 -18.573   0.002  0.00  0.00     0.352 A 
ENDBRANCH  14  15
ENDBRANCH   9  14
ENDBRANCH   5   6
ENDBRANCH   2   5
BRANCH   1  24
ATOM     24  C   UNL d   1      31.307 -15.866  -2.283  0.00  0.00     0.164 C 
BRANCH  24  25
ATOM     25  C   UNL d   1      30.733 -17.332  -2.607  0.00  0.00     0.175 C 
ATOM     26  C   UNL d   1      31.800 -18.149  -3.385  0.00  0.00     0.043 C 
ATOM     27  C   UNL d   1      32.063 -17.666  -4.802  0.00  0.00     0.003 C 
ATOM     28  C   UNL d   1      30.758 -17.575  -5.577  0.00  0.00     0.000 C 
ATOM     29  C   UNL d   1      29.678 -16.768  -4.880  0.00  0.00     0.003 C 
ATOM     30  C   UNL d   1      29.504 -17.146  -3.483  0.00  0.00     0.043 C 
BRANCH  25  31
ATOM     31  N   UNL d   1      30.361 -18.059  -1.331  0.00  0.00     0.103 N 
ATOM     32  C   UNL d   1      29.221 -17.460  -0.576  0.00  0.00     0.301 C 
ATOM     33  C   UNL d   1      29.483 -16.115   0.070  0.00  0.00     0.264 C 
ATOM     34  N   UNL d   1      30.780 -16.206   0.858  0.00  0.00    -0.072 N 
ATOM     35  C   UNL d   1      31.174 -14.852   1.165  0.00  0.00     0.269 C 
ATOM     36  C   UNL d   1      31.971 -17.015   0.324  0.00  0.00     0.264 C 
ATOM     37  H   UNL d   1      30.551 -16.678   1.730  0.00  0.00     0.279 HD
ATOM     38  C   UNL d   1      31.488 -18.277  -0.384  0.00  0.00     0.301 C 
ENDBRANCH  25  31
ENDBRANCH  24  25
ENDBRANCH   1  24
TORSDOF 8
ENDMDL
MODEL 8
REMARK VINA RESULT:    -8.352      1.685      2.573
REMARK INTER + INTRA:         -13.574
REMARK INTER:                 -10.739
REMARK INTRA:                  -2.835
REMARK CONF_INDEPENDENT:        2.386
REMARK UNBOUND:                -2.835
REMARK  8 active torsions:
REMARK  status: ('A' for Active; 'I' for Inactive)
REMARK    1  A    between atoms: N_5  and  C_6 
REMARK    2  A    between atoms: C_6  and  C_7 
REMARK    3  A    between atoms: C_7  and  N_8 
REMARK       I    between atoms: N_8  and  C_9 
REMARK    4  A    between atoms: C_9  and  C_11 
REMARK    5  A    between atoms: C_12  and  C_11 
REMARK    6  A    between atoms: C_14  and  O_15 
REMARK    7  A    between atoms: N_16  and  C_17 
REMARK    8  A    between atoms: C_17  and  C_18 
ROOT
ATOM      1  N   UNL d   1      29.389 -13.679  -3.204  0.00  0.00    -0.358 N 
ATOM      2  C   UNL d   1      29.282 -15.018  -3.408  0.00  0.00     0.220 C 
ATOM      3  O   UNL d   1      29.612 -15.815  -2.535  0.00  0.00    -0.274 OA
ATOM      4  H   UNL d   1      29.157 -13.115  -3.991  0.00  0.00     0.162 HD
ENDROOT
BRANCH   2   5
ATOM      5  C   UNL d   1      28.754 -15.484  -4.787  0.00  0.00     0.140 C 
BRANCH   5   6
ATOM      6  C   UNL d   1      27.472 -14.868  -5.387  0.00  0.00     0.213 C 
ATOM      7  N   UNL d   1      27.482 -13.366  -5.374  0.00  0.00    -0.235 NA
ATOM      8  C   UNL d   1      26.741 -13.112  -4.326  0.00  0.00     0.244 C 
ATOM      9  N   UNL d   1      26.331 -14.118  -3.538  0.00  0.00    -0.276 N 
ATOM     10  C   UNL d   1      26.229 -14.985  -4.544  0.00  0.00     0.252 C 
ATOM     11  O   UNL d   1      25.151 -15.325  -4.925  0.00  0.00    -0.270 OA
BRANCH   8  12
ATOM     12  O   UNL d   1      26.289 -11.882  -4.076  0.00  0.00    -0.331 OA
ATOM     13  H   UNL d   1      25.383 -11.816  -4.430  0.00  0.00     0.221 HD
ENDBRANCH   8  12
BRANCH   9  14
ATOM     14  C   UNL d   1      25.361 -14.142  -2.440  0.00  0.00     0.174 C 
BRANCH  14  15
ATOM     15  C   UNL d   1      25.063 -15.528  -1.839  0.00  0.00    -0.037 A 
ATOM     16  C   UNL d   1      26.110 -16.398  -1.452  0.00  0.00     0.012 A 
ATOM     17  C   UNL d   1      25.834 -17.630  -0.843  0.00  0.00     0.040 A 
ATOM     18  C   UNL d   1      24.507 -17.973  -0.632  0.00  0.00     0.105 A 
ATOM     19  C   UNL d   1      23.485 -17.152  -1.026  0.00  0.00     0.105 A 
ATOM     20  O   UNL d   1      24.018 -19.112  -0.062  0.00  0.00    -0.323 OA
ATOM     21  C   UNL d   1      23.729 -15.939  -1.630  0.00  0.00     0.048 A 
ATOM     22  O   UNL d   1      22.249 -17.631  -0.716  0.00  0.00    -0.323 OA
ATOM     23  C   UNL d   1      22.575 -18.911  -0.191  0.00  0.00     0.352 A 
ENDBRANCH  14  15
ENDBRANCH   9  14
ENDBRANCH   5   6
ENDBRANCH   2   5
BRANCH   1  24
ATOM     24  C   UNL d   1      29.919 -13.000  -2.018  0.00  0.00     0.164 C 
BRANCH  24  25
ATOM     25  C   UNL d   1      29.056 -13.177  -0.673  0.00  0.00     0.175 C 
ATOM     26  C   UNL d   1      27.594 -12.719  -0.927  0.00  0.00     0.043 C 
ATOM     27  C   UNL d   1      27.424 -11.223  -1.137  0.00  0.00     0.003 C 
ATOM     28  C   UNL d   1      28.055 -10.456   0.014  0.00  0.00     0.000 C 
ATOM     29  C   UNL d   1      29.495 -10.840   0.299  0.00  0.00     0.003 C 
ATOM     30  C   UNL d   1      29.688 -12.282   0.383  0.00  0.00     0.043 C 
BRANCH  25  31
ATOM     31  N   UNL d   1      29.068 -14.619  -0.211  0.00  0.00     0.103 N 
ATOM     32  C   UNL d   1      28.006 -14.973   0.776  0.00  0.00     0.301 C 
ATOM     33  C   UNL d   1      28.145 -14.357   2.153  0.00  0.00     0.264 C 
ATOM     34  N   UNL d   1      29.564 -14.595   2.644  0.00  0.00    -0.072 N 
ATOM     35  C   UNL d   1      29.765 -13.720   3.774  0.00  0.00     0.269 C 
ATOM     36  C   UNL d   1      30.755 -14.523   1.678  0.00  0.00     0.264 C 
ATOM     37  H   UNL d   1      29.592 -15.557   2.976  0.00  0.00     0.279 HD
ATOM     38  C   UNL d   1      30.376 -15.096   0.316  0.00  0.00     0.301 C 
ENDBRANCH  25  31
ENDBRANCH  24  25
ENDBRANCH   1  24
TORSDOF 8
ENDMDL
MODEL 9
REMARK VINA RESULT:    -8.094      3.678      5.405
REMARK INTER + INTRA:         -13.231
REMARK INTER:                 -10.481
REMARK INTRA:                  -2.750
REMARK CONF_INDEPENDENT:        2.386
REMARK UNBOUND:                -2.750
REMARK  8 active torsions:
REMARK  status: ('A' for Active; 'I' for Inactive)
REMARK    1  A    between atoms: N_5  and  C_6 
REMARK    2  A    between atoms: C_6  and  C_7 
REMARK    3  A    between atoms: C_7  and  N_8 
REMARK       I    between atoms: N_8  and  C_9 
REMARK    4  A    between atoms: C_9  and  C_11 
REMARK    5  A    between atoms: C_12  and  C_11 
REMARK    6  A    between atoms: C_14  and  O_15 
REMARK    7  A    between atoms: N_16  and  C_17 
REMARK    8  A    between atoms: C_17  and  C_18 
ROOT
ATOM      1  N   UNL d   1      28.505 -14.216  -3.075  0.00  0.00    -0.358 N 
ATOM      2  C   UNL d   1      29.546 -13.354  -3.208  0.00  0.00     0.220 C 
ATOM      3  O   UNL d   1      30.570 -13.499  -2.548  0.00  0.00    -0.274 OA
ATOM      4  H   UNL d   1      27.696 -13.981  -3.605  0.00  0.00     0.162 HD
ENDROOT
BRANCH   2   5
ATOM      5  C   UNL d   1      29.371 -12.181  -4.204  0.00  0.00     0.140 C 
BRANCH   5   6
ATOM      6  C   UNL d   1      28.573 -12.371  -5.511  0.00  0.00     0.213 C 
ATOM      7  N   UNL d   1      27.384 -13.274  -5.345  0.00  0.00    -0.235 NA
ATOM      8  C   UNL d   1      27.844 -14.399  -5.828  0.00  0.00     0.244 C 
ATOM      9  N   UNL d   1      29.138 -14.498  -6.170  0.00  0.00    -0.276 N 
ATOM     10  C   UNL d   1      29.226 -13.228  -6.562  0.00  0.00     0.252 C 
ATOM     11  O   UNL d   1      29.312 -12.973  -7.724  0.00  0.00    -0.270 OA
BRANCH   8  12
ATOM     12  O   UNL d   1      27.034 -15.426  -6.092  0.00  0.00    -0.331 OA
ATOM     13  H   UNL d   1      26.116 -15.102  -6.056  0.00  0.00     0.221 HD
ENDBRANCH   8  12
BRANCH   9  14
ATOM     14  C   UNL d   1      29.861 -15.548  -6.895  0.00  0.00     0.174 C 
BRANCH  14  15
ATOM     15  C   UNL d   1      30.190 -16.816  -6.086  0.00  0.00    -0.037 A 
ATOM     16  C   UNL d   1      30.172 -16.805  -4.671  0.00  0.00     0.012 A 
ATOM     17  C   UNL d   1      30.405 -17.978  -3.938  0.00  0.00     0.040 A 
ATOM     18  C   UNL d   1      30.657 -19.148  -4.640  0.00  0.00     0.105 A 
ATOM     19  C   UNL d   1      30.703 -19.165  -6.008  0.00  0.00     0.105 A 
ATOM     20  O   UNL d   1      30.907 -20.389  -4.133  0.00  0.00    -0.323 OA
ATOM     21  C   UNL d   1      30.481 -18.027  -6.750  0.00  0.00     0.048 A 
ATOM     22  O   UNL d   1      30.932 -20.401  -6.531  0.00  0.00    -0.323 OA
ATOM     23  C   UNL d   1      31.155 -21.160  -5.351  0.00  0.00     0.352 A 
ENDBRANCH  14  15
ENDBRANCH   9  14
ENDBRANCH   5   6
ENDBRANCH   2   5
BRANCH   1  24
ATOM     24  C   UNL d   1      28.405 -15.356  -2.157  0.00  0.00     0.164 C 
BRANCH  24  25
ATOM     25  C   UNL d   1      27.003 -15.505  -1.386  0.00  0.00     0.175 C 
ATOM     26  C   UNL d   1      26.007 -16.310  -2.266  0.00  0.00     0.043 C 
ATOM     27  C   UNL d   1      25.530 -15.585  -3.513  0.00  0.00     0.003 C 
ATOM     28  C   UNL d   1      24.969 -14.220  -3.145  0.00  0.00     0.000 C 
ATOM     29  C   UNL d   1      25.904 -13.372  -2.304  0.00  0.00     0.003 C 
ATOM     30  C   UNL d   1      26.461 -14.100  -1.171  0.00  0.00     0.043 C 
BRANCH  25  31
ATOM     31  N   UNL d   1      27.191 -16.203  -0.056  0.00  0.00     0.103 N 
ATOM     32  C   UNL d   1      27.970 -15.430   0.956  0.00  0.00     0.301 C 
ATOM     33  C   UNL d   1      29.443 -15.240   0.659  0.00  0.00     0.264 C 
ATOM     34  N   UNL d   1      30.040 -16.592   0.306  0.00  0.00    -0.072 N 
ATOM     35  C   UNL d   1      31.326 -16.334  -0.296  0.00  0.00     0.269 C 
ATOM     36  C   UNL d   1      29.245 -17.614  -0.520  0.00  0.00     0.264 C 
ATOM     37  H   UNL d   1      30.192 -17.075   1.189  0.00  0.00     0.279 HD
ATOM     38  C   UNL d   1      27.767 -17.573  -0.144  0.00  0.00     0.301 C 
ENDBRANCH  25  31
ENDBRANCH  24  25
ENDBRANCH   1  24
TORSDOF 8
ENDMDL
