MODEL 1
REMARK VINA RESULT:    -7.796      0.000      0.000
REMARK INTER + INTRA:          -9.990
REMARK INTER:                  -8.989
REMARK INTRA:                  -1.001
REMARK CONF_INDEPENDENT:        1.193
REMARK UNBOUND:                -1.001
REMARK  4 active torsions:
REMARK  status: ('A' for Active; 'I' for Inactive)
REMARK    1  A    between atoms: C_5  and  N_6 
REMARK       I    between atoms: N_6  and  C_7 
REMARK    2  A    between atoms: C_7  and  C_9 
REMARK    3  A    between atoms: C_9  and  N_11 
REMARK       I    between atoms: N_11  and  C_12 
REMARK    4  A    between atoms: C_12  and  C_14 
ROOT
ATOM      1  C   UNL d   1      25.613 -17.961  -0.631  0.00  0.00     0.173 C 
ATOM      2  C   UNL d   1      26.069 -17.194   0.604  0.00  0.00     0.042 C 
ENDROOT
BRANCH   1   3
ATOM      3  C   UNL d   1      25.500 -17.006  -1.844  0.00  0.00     0.244 C 
ATOM      4  N   UNL d   1      26.227 -15.814  -1.776  0.00  0.00    -0.325 N 
ATOM      5  H   UNL d   1      26.790 -15.657  -0.951  0.00  0.00     0.169 HD
ATOM      6  O   UNL d   1      24.781 -17.361  -2.782  0.00  0.00    -0.271 OA
BRANCH   4   7
ATOM      7  C   UNL d   1      26.239 -14.784  -2.769  0.00  0.00     0.040 A 
ATOM      8  C   UNL d   1      25.206 -13.840  -2.808  0.00  0.00     0.030 A 
ATOM      9  C   UNL d   1      25.153 -12.815  -3.745  0.00  0.00     0.009 A 
ATOM     10  C   UNL d   1      26.150 -12.682  -4.696  0.00  0.00    -0.061 A 
ATOM     11  C   UNL d   1      26.054 -11.565  -5.692  0.00  0.00     0.048 C 
ATOM     12  C   UNL d   1      27.205 -13.607  -4.687  0.00  0.00     0.015 A 
ATOM     13  C   UNL d   1      27.266 -14.668  -3.735  0.00  0.00    -0.035 A 
ATOM     14  C   UNL d   1      28.448 -15.599  -3.832  0.00  0.00     0.050 C 
ENDBRANCH   4   7
ENDBRANCH   1   3
BRANCH   1  15
ATOM     15  N   UNL d   1      24.278 -18.567  -0.424  0.00  0.00    -0.344 N 
ATOM     16  C   UNL d   1      23.130 -17.828  -0.264  0.00  0.00     0.252 C 
ATOM     17  O   UNL d   1      23.116 -16.599  -0.248  0.00  0.00    -0.268 OA
ATOM     18  H   UNL d   1      24.245 -19.585  -0.480  0.00  0.00     0.163 HD
BRANCH  16  19
ATOM     19  C   UNL d   1      21.841 -18.561  -0.143  0.00  0.00     0.032 A 
ATOM     20  C   UNL d   1      21.110 -18.949  -1.271  0.00  0.00     0.018 A 
ATOM     21  C   UNL d   1      19.936 -19.700  -1.119  0.00  0.00     0.025 A 
ATOM     22  C   UNL d   1      19.491 -20.057   0.156  0.00  0.00     0.034 A 
ATOM     23 CL   UNL d   1      18.035 -20.957   0.334  0.00  0.00    -0.084 Cl
ATOM     24  C   UNL d   1      20.222 -19.690   1.283  0.00  0.00     0.025 A 
ATOM     25  C   UNL d   1      21.401 -18.950   1.133  0.00  0.00     0.018 A 
ENDBRANCH  16  19
ENDBRANCH   1  15
TORSDOF 4
ENDMDL
MODEL 2
REMARK VINA RESULT:    -7.749      2.704      4.833
REMARK INTER + INTRA:          -9.955
REMARK INTER:                  -8.942
REMARK INTRA:                  -1.013
REMARK CONF_INDEPENDENT:        1.193
REMARK UNBOUND:                -1.013
REMARK  4 active torsions:
REMARK  status: ('A' for Active; 'I' for Inactive)
REMARK    1  A    between atoms: C_5  and  N_6 
REMARK       I    between atoms: N_6  and  C_7 
REMARK    2  A    between atoms: C_7  and  C_9 
REMARK    3  A    between atoms: C_9  and  N_11 
REMARK       I    between atoms: N_11  and  C_12 
REMARK    4  A    between atoms: C_12  and  C_14 
ROOT
ATOM      1  C   UNL d   1      26.381 -14.332  -3.362  0.00  0.00     0.173 C 
ATOM      2  C   UNL d   1      25.755 -13.104  -4.010  0.00  0.00     0.042 C 
ENDROOT
BRANCH   1   3
ATOM      3  C   UNL d   1      27.128 -15.175  -4.423  0.00  0.00     0.244 C 
ATOM      4  N   UNL d   1      28.484 -15.420  -4.192  0.00  0.00    -0.325 N 
ATOM      5  H   UNL d   1      28.889 -15.047  -3.344  0.00  0.00     0.169 HD
ATOM      6  O   UNL d   1      26.477 -15.571  -5.394  0.00  0.00    -0.271 OA
BRANCH   4   7
ATOM      7  C   UNL d   1      29.363 -16.147  -5.057  0.00  0.00     0.040 A 
ATOM      8  C   UNL d   1      29.936 -17.348  -4.622  0.00  0.00     0.030 A 
ATOM      9  C   UNL d   1      30.797 -18.104  -5.408  0.00  0.00     0.009 A 
ATOM     10  C   UNL d   1      31.124 -17.688  -6.688  0.00  0.00    -0.061 A 
ATOM     11  C   UNL d   1      32.061 -18.530  -7.503  0.00  0.00     0.048 C 
ATOM     12  C   UNL d   1      30.567 -16.491  -7.162  0.00  0.00     0.015 A 
ATOM     13  C   UNL d   1      29.688 -15.704  -6.361  0.00  0.00    -0.035 A 
ATOM     14  C   UNL d   1      29.158 -14.435  -6.982  0.00  0.00     0.050 C 
ENDBRANCH   4   7
ENDBRANCH   1   3
BRANCH   1  15
ATOM     15  N   UNL d   1      25.350 -15.204  -2.755  0.00  0.00    -0.344 N 
ATOM     16  C   UNL d   1      25.620 -16.118  -1.765  0.00  0.00     0.252 C 
ATOM     17  O   UNL d   1      26.749 -16.313  -1.317  0.00  0.00    -0.268 OA
ATOM     18  H   UNL d   1      24.394 -15.036  -3.068  0.00  0.00     0.163 HD
BRANCH  16  19
ATOM     19  C   UNL d   1      24.479 -16.876  -1.186  0.00  0.00     0.032 A 
ATOM     20  C   UNL d   1      23.221 -16.289  -1.012  0.00  0.00     0.018 A 
ATOM     21  C   UNL d   1      22.152 -17.057  -0.529  0.00  0.00     0.025 A 
ATOM     22  C   UNL d   1      22.341 -18.405  -0.216  0.00  0.00     0.034 A 
ATOM     23 CL   UNL d   1      21.028 -19.332   0.400  0.00  0.00    -0.084 Cl
ATOM     24  C   UNL d   1      23.585 -19.002  -0.402  0.00  0.00     0.025 A 
ATOM     25  C   UNL d   1      24.651 -18.241  -0.895  0.00  0.00     0.018 A 
ENDBRANCH  16  19
ENDBRANCH   1  15
TORSDOF 4
ENDMDL
MODEL 3
REMARK VINA RESULT:    -7.514      4.997      7.909
REMARK INTER + INTRA:         -10.346
REMARK INTER:                  -8.707
REMARK INTRA:                  -1.638
REMARK CONF_INDEPENDENT:        1.193
REMARK UNBOUND:                -1.638
REMARK  4 active torsions:
REMARK  status: ('A' for Active; 'I' for Inactive)
REMARK    1  A    between atoms: C_5  and  N_6 
REMARK       I    between atoms: N_6  and  C_7 
REMARK    2  A    between atoms: C_7  and  C_9 
REMARK    3  A    between atoms: C_9  and  N_11 
REMARK       I    between atoms: N_11  and  C_12 
REMARK    4  A    between atoms: C_12  and  C_14 
ROOT
ATOM      1  C   UNL d   1      29.321 -15.302  -0.228  0.00  0.00     0.173 C 
ATOM      2  C   UNL d   1      29.090 -14.003  -0.990  0.00  0.00     0.042 C 
ENDROOT
BRANCH   1   3
ATOM      3  C   UNL d   1      28.158 -16.288  -0.487  0.00  0.00     0.244 C 
ATOM      4  N   UNL d   1      26.867 -15.826  -0.214  0.00  0.00    -0.325 N 
ATOM      5  H   UNL d   1      26.772 -14.877   0.121  0.00  0.00     0.169 HD
ATOM      6  O   UNL d   1      28.448 -17.409  -0.917  0.00  0.00    -0.271 OA
BRANCH   4   7
ATOM      7  C   UNL d   1      25.661 -16.583  -0.354  0.00  0.00     0.040 A 
ATOM      8  C   UNL d   1      24.587 -16.057  -1.083  0.00  0.00     0.030 A 
ATOM      9  C   UNL d   1      23.388 -16.736  -1.258  0.00  0.00     0.009 A 
ATOM     10  C   UNL d   1      23.206 -17.993  -0.708  0.00  0.00    -0.061 A 
ATOM     11  C   UNL d   1      21.895 -18.690  -0.917  0.00  0.00     0.048 C 
ATOM     12  C   UNL d   1      24.260 -18.556   0.027  0.00  0.00     0.015 A 
ATOM     13  C   UNL d   1      25.494 -17.866   0.219  0.00  0.00    -0.035 A 
ATOM     14  C   UNL d   1      26.548 -18.575   1.032  0.00  0.00     0.050 C 
ENDBRANCH   4   7
ENDBRANCH   1   3
BRANCH   1  15
ATOM     15  N   UNL d   1      29.378 -15.065   1.233  0.00  0.00    -0.344 N 
ATOM     16  C   UNL d   1      28.465 -14.291   1.908  0.00  0.00     0.252 C 
ATOM     17  O   UNL d   1      27.537 -13.704   1.354  0.00  0.00    -0.268 OA
ATOM     18  H   UNL d   1      30.106 -15.575   1.732  0.00  0.00     0.163 HD
BRANCH  16  19
ATOM     19  C   UNL d   1      28.590 -14.198   3.388  0.00  0.00     0.032 A 
ATOM     20  C   UNL d   1      29.802 -14.450   4.038  0.00  0.00     0.018 A 
ATOM     21  C   UNL d   1      29.898 -14.282   5.427  0.00  0.00     0.025 A 
ATOM     22  C   UNL d   1      28.785 -13.871   6.164  0.00  0.00     0.034 A 
ATOM     23 CL   UNL d   1      28.906 -13.693   7.871  0.00  0.00    -0.084 Cl
ATOM     24  C   UNL d   1      27.578 -13.602   5.522  0.00  0.00     0.025 A 
ATOM     25  C   UNL d   1      27.483 -13.757   4.134  0.00  0.00     0.018 A 
ENDBRANCH  16  19
ENDBRANCH   1  15
TORSDOF 4
ENDMDL
MODEL 4
REMARK VINA RESULT:    -7.444      4.322      6.391
REMARK INTER + INTRA:         -10.295
REMARK INTER:                  -8.638
REMARK INTRA:                  -1.658
REMARK CONF_INDEPENDENT:        1.193
REMARK UNBOUND:                -1.658
REMARK  4 active torsions:
REMARK  status: ('A' for Active; 'I' for Inactive)
REMARK    1  A    between atoms: C_5  and  N_6 
REMARK       I    between atoms: N_6  and  C_7 
REMARK    2  A    between atoms: C_7  and  C_9 
REMARK    3  A    between atoms: C_9  and  N_11 
REMARK       I    between atoms: N_11  and  C_12 
REMARK    4  A    between atoms: C_12  and  C_14 
ROOT
ATOM      1  C   UNL d   1      27.989 -14.783  -0.730  0.00  0.00     0.173 C 
ATOM      2  C   UNL d   1      29.158 -15.750  -0.872  0.00  0.00     0.042 C 
ENDROOT
BRANCH   1   3
ATOM      3  C   UNL d   1      28.024 -14.102   0.659  0.00  0.00     0.244 C 
ATOM      4  N   UNL d   1      28.481 -14.876   1.729  0.00  0.00    -0.325 N 
ATOM      5  H   UNL d   1      28.773 -15.823   1.529  0.00  0.00     0.169 HD
ATOM      6  O   UNL d   1      27.648 -12.927   0.724  0.00  0.00    -0.271 OA
BRANCH   4   7
ATOM      7  C   UNL d   1      28.563 -14.451   3.093  0.00  0.00     0.040 A 
ATOM      8  C   UNL d   1      27.402 -14.075   3.779  0.00  0.00     0.030 A 
ATOM      9  C   UNL d   1      27.408 -13.653   5.102  0.00  0.00     0.009 A 
ATOM     10  C   UNL d   1      28.594 -13.590   5.813  0.00  0.00    -0.061 A 
ATOM     11  C   UNL d   1      28.559 -13.124   7.238  0.00  0.00     0.048 C 
ATOM     12  C   UNL d   1      29.780 -13.962   5.161  0.00  0.00     0.015 A 
ATOM     13  C   UNL d   1      29.786 -14.391   3.801  0.00  0.00    -0.035 A 
ATOM     14  C   UNL d   1      31.125 -14.760   3.212  0.00  0.00     0.050 C 
ENDBRANCH   4   7
ENDBRANCH   1   3
BRANCH   1  15
ATOM     15  N   UNL d   1      26.692 -15.489  -0.841  0.00  0.00    -0.344 N 
ATOM     16  C   UNL d   1      26.348 -16.564  -0.057  0.00  0.00     0.252 C 
ATOM     17  O   UNL d   1      27.100 -17.054   0.784  0.00  0.00    -0.268 OA
ATOM     18  H   UNL d   1      26.025 -15.080  -1.494  0.00  0.00     0.163 HD
BRANCH  16  19
ATOM     19  C   UNL d   1      24.983 -17.133  -0.215  0.00  0.00     0.032 A 
ATOM     20  C   UNL d   1      23.883 -16.323  -0.520  0.00  0.00     0.018 A 
ATOM     21  C   UNL d   1      22.624 -16.906  -0.731  0.00  0.00     0.025 A 
ATOM     22  C   UNL d   1      22.465 -18.290  -0.630  0.00  0.00     0.034 A 
ATOM     23 CL   UNL d   1      20.911 -18.991  -0.865  0.00  0.00    -0.084 Cl
ATOM     24  C   UNL d   1      23.558 -19.104  -0.344  0.00  0.00     0.025 A 
ATOM     25  C   UNL d   1      24.817 -18.527  -0.145  0.00  0.00     0.018 A 
ENDBRANCH  16  19
ENDBRANCH   1  15
TORSDOF 4
ENDMDL
MODEL 5
REMARK VINA RESULT:    -7.320      2.041      3.092
REMARK INTER + INTRA:         -10.141
REMARK INTER:                  -8.513
REMARK INTRA:                  -1.628
REMARK CONF_INDEPENDENT:        1.193
REMARK UNBOUND:                -1.628
REMARK  4 active torsions:
REMARK  status: ('A' for Active; 'I' for Inactive)
REMARK    1  A    between atoms: C_5  and  N_6 
REMARK       I    between atoms: N_6  and  C_7 
REMARK    2  A    between atoms: C_7  and  C_9 
REMARK    3  A    between atoms: C_9  and  N_11 
REMARK       I    between atoms: N_11  and  C_12 
REMARK    4  A    between atoms: C_12  and  C_14 
ROOT
ATOM      1  C   UNL d   1      27.994 -16.858  -0.148  0.00  0.00     0.173 C 
ATOM      2  C   UNL d   1      28.044 -15.643   0.770  0.00  0.00     0.042 C 
ENDROOT
BRANCH   1   3
ATOM      3  C   UNL d   1      28.416 -16.462  -1.583  0.00  0.00     0.244 C 
ATOM      4  N   UNL d   1      27.605 -15.537  -2.246  0.00  0.00    -0.325 N 
ATOM      5  H   UNL d   1      26.805 -15.174  -1.745  0.00  0.00     0.169 HD
ATOM      6  O   UNL d   1      29.436 -16.987  -2.041  0.00  0.00    -0.271 OA
BRANCH   4   7
ATOM      7  C   UNL d   1      27.797 -15.061  -3.582  0.00  0.00     0.040 A 
ATOM      8  C   UNL d   1      28.987 -15.351  -4.262  0.00  0.00     0.030 A 
ATOM      9  C   UNL d   1      29.241 -14.921  -5.558  0.00  0.00     0.009 A 
ATOM     10  C   UNL d   1      28.300 -14.174  -6.246  0.00  0.00    -0.061 A 
ATOM     11  C   UNL d   1      28.614 -13.725  -7.642  0.00  0.00     0.048 C 
ATOM     12  C   UNL d   1      27.093 -13.866  -5.600  0.00  0.00     0.015 A 
ATOM     13  C   UNL d   1      26.824 -14.296  -4.267  0.00  0.00    -0.035 A 
ATOM     14  C   UNL d   1      25.493 -13.898  -3.681  0.00  0.00     0.050 C 
ENDBRANCH   4   7
ENDBRANCH   1   3
BRANCH   1  15
ATOM     15  N   UNL d   1      26.623 -17.412  -0.231  0.00  0.00    -0.344 N 
ATOM     16  C   UNL d   1      25.511 -16.643  -0.473  0.00  0.00     0.252 C 
ATOM     17  O   UNL d   1      25.553 -15.421  -0.613  0.00  0.00    -0.268 OA
ATOM     18  H   UNL d   1      26.557 -18.428  -0.169  0.00  0.00     0.163 HD
BRANCH  16  19
ATOM     19  C   UNL d   1      24.202 -17.335  -0.611  0.00  0.00     0.032 A 
ATOM     20  C   UNL d   1      24.084 -18.720  -0.451  0.00  0.00     0.018 A 
ATOM     21  C   UNL d   1      22.821 -19.326  -0.518  0.00  0.00     0.025 A 
ATOM     22  C   UNL d   1      21.682 -18.552  -0.751  0.00  0.00     0.034 A 
ATOM     23 CL   UNL d   1      20.140 -19.310  -0.857  0.00  0.00    -0.084 Cl
ATOM     24  C   UNL d   1      21.788 -17.171  -0.894  0.00  0.00     0.025 A 
ATOM     25  C   UNL d   1      23.046 -16.562  -0.816  0.00  0.00     0.018 A 
ENDBRANCH  16  19
ENDBRANCH   1  15
TORSDOF 4
ENDMDL
MODEL 6
REMARK VINA RESULT:    -7.292      5.009      7.893
REMARK INTER + INTRA:         -10.166
REMARK INTER:                  -8.485
REMARK INTRA:                  -1.680
REMARK CONF_INDEPENDENT:        1.193
REMARK UNBOUND:                -1.680
REMARK  4 active torsions:
REMARK  status: ('A' for Active; 'I' for Inactive)
REMARK    1  A    between atoms: C_5  and  N_6 
REMARK       I    between atoms: N_6  and  C_7 
REMARK    2  A    between atoms: C_7  and  C_9 
REMARK    3  A    between atoms: C_9  and  N_11 
REMARK       I    between atoms: N_11  and  C_12 
REMARK    4  A    between atoms: C_12  and  C_14 
ROOT
ATOM      1  C   UNL d   1      29.496 -15.532  -0.123  0.00  0.00     0.173 C 
ATOM      2  C   UNL d   1      29.327 -14.293  -0.993  0.00  0.00     0.042 C 
ENDROOT
BRANCH   1   3
ATOM      3  C   UNL d   1      28.322 -16.513  -0.356  0.00  0.00     0.244 C 
ATOM      4  N   UNL d   1      27.034 -15.972  -0.325  0.00  0.00    -0.325 N 
ATOM      5  H   UNL d   1      26.949 -14.977  -0.167  0.00  0.00     0.169 HD
ATOM      6  O   UNL d   1      28.603 -17.699  -0.553  0.00  0.00    -0.271 OA
BRANCH   4   7
ATOM      7  C   UNL d   1      25.815 -16.705  -0.484  0.00  0.00     0.040 A 
ATOM      8  C   UNL d   1      25.554 -17.813   0.331  0.00  0.00     0.030 A 
ATOM      9  C   UNL d   1      24.393 -18.570   0.230  0.00  0.00     0.009 A 
ATOM     10  C   UNL d   1      23.423 -18.245  -0.703  0.00  0.00    -0.061 A 
ATOM     11  C   UNL d   1      22.186 -19.090  -0.783  0.00  0.00     0.048 C 
ATOM     12  C   UNL d   1      23.646 -17.138  -1.536  0.00  0.00     0.015 A 
ATOM     13  C   UNL d   1      24.837 -16.358  -1.446  0.00  0.00    -0.035 A 
ATOM     14  C   UNL d   1      24.961 -15.197  -2.400  0.00  0.00     0.050 C 
ENDBRANCH   4   7
ENDBRANCH   1   3
BRANCH   1  15
ATOM     15  N   UNL d   1      29.496 -15.182   1.316  0.00  0.00    -0.344 N 
ATOM     16  C   UNL d   1      28.560 -14.359   1.894  0.00  0.00     0.252 C 
ATOM     17  O   UNL d   1      27.656 -13.817   1.260  0.00  0.00    -0.268 OA
ATOM     18  H   UNL d   1      30.203 -15.653   1.881  0.00  0.00     0.163 HD
BRANCH  16  19
ATOM     19  C   UNL d   1      28.627 -14.152   3.365  0.00  0.00     0.032 A 
ATOM     20  C   UNL d   1      27.492 -13.817   4.111  0.00  0.00     0.018 A 
ATOM     21  C   UNL d   1      27.582 -13.700   5.506  0.00  0.00     0.025 A 
ATOM     22  C   UNL d   1      28.803 -13.910   6.151  0.00  0.00     0.034 A 
ATOM     23 CL   UNL d   1      28.908 -13.738   7.860  0.00  0.00    -0.084 Cl
ATOM     24  C   UNL d   1      29.934 -14.259   5.418  0.00  0.00     0.025 A 
ATOM     25  C   UNL d   1      29.844 -14.389   4.027  0.00  0.00     0.018 A 
ENDBRANCH  16  19
ENDBRANCH   1  15
TORSDOF 4
ENDMDL
MODEL 7
REMARK VINA RESULT:    -7.208      2.189      3.528
REMARK INTER + INTRA:          -9.887
REMARK INTER:                  -8.401
REMARK INTRA:                  -1.486
REMARK CONF_INDEPENDENT:        1.193
REMARK UNBOUND:                -1.486
REMARK  4 active torsions:
REMARK  status: ('A' for Active; 'I' for Inactive)
REMARK    1  A    between atoms: C_5  and  N_6 
REMARK       I    between atoms: N_6  and  C_7 
REMARK    2  A    between atoms: C_7  and  C_9 
REMARK    3  A    between atoms: C_9  and  N_11 
REMARK       I    between atoms: N_11  and  C_12 
REMARK    4  A    between atoms: C_12  and  C_14 
ROOT
ATOM      1  C   UNL d   1      26.612 -14.747  -2.579  0.00  0.00     0.173 C 
ATOM      2  C   UNL d   1      26.825 -13.648  -1.546  0.00  0.00     0.042 C 
ENDROOT
BRANCH   1   3
ATOM      3  C   UNL d   1      26.331 -14.128  -3.970  0.00  0.00     0.244 C 
ATOM      4  N   UNL d   1      27.299 -13.257  -4.477  0.00  0.00    -0.325 N 
ATOM      5  H   UNL d   1      28.124 -13.097  -3.916  0.00  0.00     0.169 HD
ATOM      6  O   UNL d   1      25.279 -14.446  -4.531  0.00  0.00    -0.271 OA
BRANCH   4   7
ATOM      7  C   UNL d   1      27.222 -12.557  -5.723  0.00  0.00     0.040 A 
ATOM      8  C   UNL d   1      26.379 -11.446  -5.850  0.00  0.00     0.030 A 
ATOM      9  C   UNL d   1      26.254 -10.721  -7.029  0.00  0.00     0.009 A 
ATOM     10  C   UNL d   1      26.983 -11.076  -8.150  0.00  0.00    -0.061 A 
ATOM     11  C   UNL d   1      26.818 -10.271  -9.405  0.00  0.00     0.048 C 
ATOM     12  C   UNL d   1      27.843 -12.181  -8.063  0.00  0.00     0.015 A 
ATOM     13  C   UNL d   1      27.974 -12.938  -6.860  0.00  0.00    -0.035 A 
ATOM     14  C   UNL d   1      28.927 -14.106  -6.894  0.00  0.00     0.050 C 
ENDBRANCH   4   7
ENDBRANCH   1   3
BRANCH   1  15
ATOM     15  N   UNL d   1      25.447 -15.593  -2.232  0.00  0.00    -0.344 N 
ATOM     16  C   UNL d   1      25.460 -16.516  -1.214  0.00  0.00     0.252 C 
ATOM     17  O   UNL d   1      26.451 -16.742  -0.521  0.00  0.00    -0.268 OA
ATOM     18  H   UNL d   1      24.593 -15.398  -2.754  0.00  0.00     0.163 HD
BRANCH  16  19
ATOM     19  C   UNL d   1      24.198 -17.245  -0.918  0.00  0.00     0.032 A 
ATOM     20  C   UNL d   1      22.946 -16.653  -1.118  0.00  0.00     0.018 A 
ATOM     21  C   UNL d   1      21.778 -17.397  -0.895  0.00  0.00     0.025 A 
ATOM     22  C   UNL d   1      21.861 -18.724  -0.467  0.00  0.00     0.034 A 
ATOM     23 CL   UNL d   1      20.422 -19.620  -0.171  0.00  0.00    -0.084 Cl
ATOM     24  C   UNL d   1      23.104 -19.325  -0.282  0.00  0.00     0.025 A 
ATOM     25  C   UNL d   1      24.271 -18.589  -0.515  0.00  0.00     0.018 A 
ENDBRANCH  16  19
ENDBRANCH   1  15
TORSDOF 4
ENDMDL
MODEL 8
REMARK VINA RESULT:    -7.087      4.483      7.712
REMARK INTER + INTRA:          -9.887
REMARK INTER:                  -8.281
REMARK INTRA:                  -1.607
REMARK CONF_INDEPENDENT:        1.193
REMARK UNBOUND:                -1.607
REMARK  4 active torsions:
REMARK  status: ('A' for Active; 'I' for Inactive)
REMARK    1  A    between atoms: C_5  and  N_6 
REMARK       I    between atoms: N_6  and  C_7 
REMARK    2  A    between atoms: C_7  and  C_9 
REMARK    3  A    between atoms: C_9  and  N_11 
REMARK       I    between atoms: N_11  and  C_12 
REMARK    4  A    between atoms: C_12  and  C_14 
ROOT
ATOM      1  C   UNL d   1      27.063 -13.947  -1.452  0.00  0.00     0.173 C 
ATOM      2  C   UNL d   1      26.869 -12.693  -2.295  0.00  0.00     0.042 C 
ENDROOT
BRANCH   1   3
ATOM      3  C   UNL d   1      25.869 -14.912  -1.645  0.00  0.00     0.244 C 
ATOM      4  N   UNL d   1      25.514 -15.702  -0.549  0.00  0.00    -0.325 N 
ATOM      5  H   UNL d   1      26.047 -15.586   0.303  0.00  0.00     0.169 HD
ATOM      6  O   UNL d   1      25.314 -14.915  -2.748  0.00  0.00    -0.271 OA
BRANCH   4   7
ATOM      7  C   UNL d   1      24.466 -16.676  -0.524  0.00  0.00     0.040 A 
ATOM      8  C   UNL d   1      23.166 -16.313  -0.896  0.00  0.00     0.030 A 
ATOM      9  C   UNL d   1      22.101 -17.206  -0.895  0.00  0.00     0.009 A 
ATOM     10  C   UNL d   1      22.293 -18.525  -0.520  0.00  0.00    -0.061 A 
ATOM     11  C   UNL d   1      21.117 -19.456  -0.528  0.00  0.00     0.048 C 
ATOM     12  C   UNL d   1      23.583 -18.929  -0.144  0.00  0.00     0.015 A 
ATOM     13  C   UNL d   1      24.682 -18.019  -0.135  0.00  0.00    -0.035 A 
ATOM     14  C   UNL d   1      26.017 -18.574   0.294  0.00  0.00     0.050 C 
ENDBRANCH   4   7
ENDBRANCH   1   3
BRANCH   1  15
ATOM     15  N   UNL d   1      27.133 -13.619  -0.009  0.00  0.00    -0.344 N 
ATOM     16  C   UNL d   1      27.706 -14.446   0.926  0.00  0.00     0.252 C 
ATOM     17  O   UNL d   1      28.185 -15.546   0.652  0.00  0.00    -0.268 OA
ATOM     18  H   UNL d   1      26.790 -12.694   0.247  0.00  0.00     0.163 HD
BRANCH  16  19
ATOM     19  C   UNL d   1      27.782 -13.962   2.331  0.00  0.00     0.032 A 
ATOM     20  C   UNL d   1      28.106 -14.823   3.385  0.00  0.00     0.018 A 
ATOM     21  C   UNL d   1      28.238 -14.314   4.686  0.00  0.00     0.025 A 
ATOM     22  C   UNL d   1      28.040 -12.954   4.932  0.00  0.00     0.034 A 
ATOM     23 CL   UNL d   1      28.179 -12.345   6.536  0.00  0.00    -0.084 Cl
ATOM     24  C   UNL d   1      27.734 -12.088   3.885  0.00  0.00     0.025 A 
ATOM     25  C   UNL d   1      27.614 -12.590   2.584  0.00  0.00     0.018 A 
ENDBRANCH  16  19
ENDBRANCH   1  15
TORSDOF 4
ENDMDL
MODEL 9
REMARK VINA RESULT:    -7.058      1.965      2.715
REMARK INTER + INTRA:          -9.933
REMARK INTER:                  -8.251
REMARK INTRA:                  -1.683
REMARK CONF_INDEPENDENT:        1.193
REMARK UNBOUND:                -1.683
REMARK  4 active torsions:
REMARK  status: ('A' for Active; 'I' for Inactive)
REMARK    1  A    between atoms: C_5  and  N_6 
REMARK       I    between atoms: N_6  and  C_7 
REMARK    2  A    between atoms: C_7  and  C_9 
REMARK    3  A    between atoms: C_9  and  N_11 
REMARK       I    between atoms: N_11  and  C_12 
REMARK    4  A    between atoms: C_12  and  C_14 
ROOT
ATOM      1  C   UNL d   1      27.933 -16.436  -1.067  0.00  0.00     0.173 C 
ATOM      2  C   UNL d   1      28.275 -15.807   0.277  0.00  0.00     0.042 C 
ENDROOT
BRANCH   1   3
ATOM      3  C   UNL d   1      27.852 -15.347  -2.163  0.00  0.00     0.244 C 
ATOM      4  N   UNL d   1      26.872 -14.364  -2.003  0.00  0.00    -0.325 N 
ATOM      5  H   UNL d   1      26.289 -14.415  -1.178  0.00  0.00     0.169 HD
ATOM      6  O   UNL d   1      28.655 -15.421  -3.098  0.00  0.00    -0.271 OA
BRANCH   4   7
ATOM      7  C   UNL d   1      26.609 -13.289  -2.911  0.00  0.00     0.040 A 
ATOM      8  C   UNL d   1      26.790 -11.964  -2.496  0.00  0.00     0.030 A 
ATOM      9  C   UNL d   1      26.553 -10.873  -3.324  0.00  0.00     0.009 A 
ATOM     10  C   UNL d   1      26.121 -11.062  -4.625  0.00  0.00    -0.061 A 
ATOM     11  C   UNL d   1      25.872  -9.858  -5.485  0.00  0.00     0.048 C 
ATOM     12  C   UNL d   1      25.931 -12.375  -5.080  0.00  0.00     0.015 A 
ATOM     13  C   UNL d   1      26.165 -13.502  -4.237  0.00  0.00    -0.035 A 
ATOM     14  C   UNL d   1      25.920 -14.863  -4.841  0.00  0.00     0.050 C 
ENDBRANCH   4   7
ENDBRANCH   1   3
BRANCH   1  15
ATOM     15  N   UNL d   1      26.616 -17.113  -1.023  0.00  0.00    -0.344 N 
ATOM     16  C   UNL d   1      25.473 -16.511  -0.555  0.00  0.00     0.252 C 
ATOM     17  O   UNL d   1      25.449 -15.367  -0.103  0.00  0.00    -0.268 OA
ATOM     18  H   UNL d   1      26.589 -18.045  -1.435  0.00  0.00     0.163 HD
BRANCH  16  19
ATOM     19  C   UNL d   1      24.199 -17.275  -0.639  0.00  0.00     0.032 A 
ATOM     20  C   UNL d   1      24.155 -18.654  -0.408  0.00  0.00     0.018 A 
ATOM     21  C   UNL d   1      22.924 -19.326  -0.426  0.00  0.00     0.025 A 
ATOM     22  C   UNL d   1      21.744 -18.623  -0.681  0.00  0.00     0.034 A 
ATOM     23 CL   UNL d   1      20.241 -19.462  -0.726  0.00  0.00    -0.084 Cl
ATOM     24  C   UNL d   1      21.777 -17.247  -0.895  0.00  0.00     0.025 A 
ATOM     25  C   UNL d   1      23.003 -16.572  -0.865  0.00  0.00     0.018 A 
ENDBRANCH  16  19
ENDBRANCH   1  15
TORSDOF 4
ENDMDL
