MODEL 1
REMARK VINA RESULT:    -9.780      0.000      0.000
REMARK INTER + INTRA:         -12.643
REMARK INTER:                 -11.272
REMARK INTRA:                  -1.371
REMARK CONF_INDEPENDENT:        1.492
REMARK UNBOUND:                -1.371
REMARK  5 active torsions:
REMARK  status: ('A' for Active; 'I' for Inactive)
REMARK    1  A    between atoms: C_14  and  N_15 
REMARK       I    between atoms: N_15  and  C_16 
REMARK    2  A    between atoms: C_16  and  C_18 
REMARK    3  A    between atoms: C_18  and  S_19 
REMARK    4  A    between atoms: S_19  and  C_20 
REMARK    5  A    between atoms: C_23  and  C_24 
ROOT
ATOM      1  N   UNL d   1      26.564 -16.069  -1.949  0.00  0.00    -0.305 N 
ATOM      2  C   UNL d   1      27.470 -16.018  -0.890  0.00  0.00     0.233 C 
ATOM      3  O   UNL d   1      28.593 -15.525  -1.015  0.00  0.00    -0.272 OA
ATOM      4  H   UNL d   1      25.636 -16.464  -1.865  0.00  0.00     0.171 HD
ENDROOT
BRANCH   1   5
ATOM      5  C   UNL d   1      26.948 -15.555  -3.183  0.00  0.00     0.173 A 
ATOM      6  S   UNL d   1      25.724 -14.879  -4.173  0.00  0.00    -0.061 SA
ATOM      7  C   UNL d   1      26.912 -14.529  -5.391  0.00  0.00     0.085 A 
ATOM      8  C   UNL d   1      28.150 -14.964  -4.965  0.00  0.00     0.075 A 
ATOM      9  C   UNL d   1      29.378 -14.948  -5.693  0.00  0.00     0.006 A 
ATOM     10  N   UNL d   1      28.152 -15.530  -3.712  0.00  0.00    -0.223 NA
ATOM     11  C   UNL d   1      30.156 -15.986  -6.047  0.00  0.00     0.001 A 
ATOM     12  C   UNL d   1      30.018 -13.635  -6.098  0.00  0.00     0.114 A 
ATOM     13  C   UNL d   1      30.076 -17.409  -5.917  0.00  0.00     0.014 A 
ATOM     14  C   UNL d   1      31.323 -15.384  -6.722  0.00  0.00     0.039 A 
ATOM     15  C   UNL d   1      31.059 -18.163  -6.440  0.00  0.00     0.001 A 
ATOM     16  C   UNL d   1      32.204 -17.582  -7.125  0.00  0.00     0.002 A 
ATOM     17  C   UNL d   1      32.368 -16.256  -7.281  0.00  0.00     0.030 A 
ATOM     18  N   UNL d   1      31.269 -14.104  -6.751  0.00  0.00    -0.381 N 
ATOM     19  H   UNL d   1      31.988 -13.538  -7.191  0.00  0.00     0.160 HD
ATOM     20  C   UNL d   1      29.250 -12.829  -7.134  0.00  0.00     0.037 C 
ENDBRANCH   1   5
BRANCH   2  21
ATOM     21  C   UNL d   1      27.010 -16.618   0.472  0.00  0.00     0.185 C 
BRANCH  21  22
ATOM     22  S   UNL d   1      26.200 -18.234   0.164  0.00  0.00    -0.083 SA
BRANCH  22  23
ATOM     23  C   UNL d   1      24.513 -18.010  -0.107  0.00  0.00     0.167 A 
ATOM     24  N   UNL d   1      23.992 -16.888  -0.552  0.00  0.00    -0.235 NA
ATOM     25  C   UNL d   1      22.635 -17.075  -0.522  0.00  0.00     0.149 A 
ATOM     26  C   UNL d   1      22.316 -18.338  -0.057  0.00  0.00     0.062 A 
ATOM     27  N   UNL d   1      23.540 -18.916   0.204  0.00  0.00    -0.333 N 
ATOM     28  H   UNL d   1      23.686 -19.839   0.575  0.00  0.00     0.168 HD
BRANCH  26  29
ATOM     29  C   UNL d   1      21.017 -18.951   0.179  0.00  0.00    -0.008 A 
ATOM     30  C   UNL d   1      20.646 -19.330   1.477  0.00  0.00     0.014 A 
ATOM     31  C   UNL d   1      19.505 -20.109   1.690  0.00  0.00     0.001 A 
ATOM     32  C   UNL d   1      18.670 -20.426   0.622  0.00  0.00     0.000 A 
ATOM     33  C   UNL d   1      18.970 -19.955  -0.654  0.00  0.00     0.001 A 
ATOM     34  C   UNL d   1      20.165 -19.265  -0.885  0.00  0.00     0.014 A 
ENDBRANCH  26  29
ENDBRANCH  22  23
ENDBRANCH  21  22
ENDBRANCH   2  21
TORSDOF 5
ENDMDL
MODEL 2
REMARK VINA RESULT:    -9.716      4.515      7.713
REMARK INTER + INTRA:         -11.711
REMARK INTER:                 -11.207
REMARK INTRA:                  -0.504
REMARK CONF_INDEPENDENT:        1.492
REMARK UNBOUND:                -0.504
REMARK  5 active torsions:
REMARK  status: ('A' for Active; 'I' for Inactive)
REMARK    1  A    between atoms: C_14  and  N_15 
REMARK       I    between atoms: N_15  and  C_16 
REMARK    2  A    between atoms: C_16  and  C_18 
REMARK    3  A    between atoms: C_18  and  S_19 
REMARK    4  A    between atoms: S_19  and  C_20 
REMARK    5  A    between atoms: C_23  and  C_24 
ROOT
ATOM      1  N   UNL d   1      26.283 -14.601  -0.031  0.00  0.00    -0.305 N 
ATOM      2  C   UNL d   1      26.992 -15.508  -0.817  0.00  0.00     0.233 C 
ATOM      3  O   UNL d   1      28.220 -15.467  -0.915  0.00  0.00    -0.272 OA
ATOM      4  H   UNL d   1      25.276 -14.621   0.066  0.00  0.00     0.171 HD
ENDROOT
BRANCH   1   5
ATOM      5  C   UNL d   1      26.987 -13.616   0.654  0.00  0.00     0.173 A 
ATOM      6  S   UNL d   1      28.067 -12.642  -0.252  0.00  0.00    -0.061 SA
ATOM      7  C   UNL d   1      28.495 -11.783   1.196  0.00  0.00     0.085 A 
ATOM      8  C   UNL d   1      27.798 -12.307   2.265  0.00  0.00     0.075 A 
ATOM      9  C   UNL d   1      27.917 -11.951   3.643  0.00  0.00     0.006 A 
ATOM     10  N   UNL d   1      26.944 -13.332   1.938  0.00  0.00    -0.223 NA
ATOM     11  C   UNL d   1      28.278 -12.726   4.681  0.00  0.00     0.001 A 
ATOM     12  C   UNL d   1      27.531 -10.564   4.117  0.00  0.00     0.114 A 
ATOM     13  C   UNL d   1      28.711 -14.080   4.838  0.00  0.00     0.014 A 
ATOM     14  C   UNL d   1      28.166 -11.858   5.870  0.00  0.00     0.039 A 
ATOM     15  C   UNL d   1      29.032 -14.519   6.068  0.00  0.00     0.001 A 
ATOM     16  C   UNL d   1      28.944 -13.668   7.245  0.00  0.00     0.002 A 
ATOM     17  C   UNL d   1      28.534 -12.387   7.193  0.00  0.00     0.030 A 
ATOM     18  N   UNL d   1      27.752 -10.680   5.583  0.00  0.00    -0.381 N 
ATOM     19  H   UNL d   1      27.633  -9.958   6.288  0.00  0.00     0.160 HD
ATOM     20  C   UNL d   1      28.422  -9.435   3.621  0.00  0.00     0.037 C 
ENDBRANCH   1   5
BRANCH   2  21
ATOM     21  C   UNL d   1      26.167 -16.585  -1.584  0.00  0.00     0.185 C 
BRANCH  21  22
ATOM     22  S   UNL d   1      25.547 -17.823  -0.381  0.00  0.00    -0.083 SA
BRANCH  22  23
ATOM     23  C   UNL d   1      23.834 -17.967  -0.508  0.00  0.00     0.167 A 
ATOM     24  N   UNL d   1      23.074 -17.076  -1.106  0.00  0.00    -0.235 NA
ATOM     25  C   UNL d   1      21.785 -17.493  -0.895  0.00  0.00     0.149 A 
ATOM     26  C   UNL d   1      21.754 -18.663  -0.160  0.00  0.00     0.062 A 
ATOM     27  N   UNL d   1      23.082 -18.944   0.077  0.00  0.00    -0.333 N 
ATOM     28  H   UNL d   1      23.432 -19.726   0.604  0.00  0.00     0.168 HD
BRANCH  26  29
ATOM     29  C   UNL d   1      20.620 -19.434   0.330  0.00  0.00    -0.008 A 
ATOM     30  C   UNL d   1      19.650 -19.902  -0.566  0.00  0.00     0.014 A 
ATOM     31  C   UNL d   1      18.454 -20.452  -0.096  0.00  0.00     0.001 A 
ATOM     32  C   UNL d   1      18.264 -20.635   1.271  0.00  0.00     0.000 A 
ATOM     33  C   UNL d   1      19.272 -20.278   2.164  0.00  0.00     0.001 A 
ATOM     34  C   UNL d   1      20.424 -19.633   1.701  0.00  0.00     0.014 A 
ENDBRANCH  26  29
ENDBRANCH  22  23
ENDBRANCH  21  22
ENDBRANCH   2  21
TORSDOF 5
ENDMDL
MODEL 3
REMARK VINA RESULT:    -9.402      1.310      2.000
REMARK INTER + INTRA:         -12.231
REMARK INTER:                 -10.894
REMARK INTRA:                  -1.338
REMARK CONF_INDEPENDENT:        1.492
REMARK UNBOUND:                -1.338
REMARK  5 active torsions:
REMARK  status: ('A' for Active; 'I' for Inactive)
REMARK    1  A    between atoms: C_14  and  N_15 
REMARK       I    between atoms: N_15  and  C_16 
REMARK    2  A    between atoms: C_16  and  C_18 
REMARK    3  A    between atoms: C_18  and  S_19 
REMARK    4  A    between atoms: S_19  and  C_20 
REMARK    5  A    between atoms: C_23  and  C_24 
ROOT
ATOM      1  N   UNL d   1      25.758 -15.438  -1.843  0.00  0.00    -0.305 N 
ATOM      2  C   UNL d   1      26.861 -15.663  -1.020  0.00  0.00     0.233 C 
ATOM      3  O   UNL d   1      27.963 -15.161  -1.253  0.00  0.00    -0.272 OA
ATOM      4  H   UNL d   1      24.845 -15.836  -1.665  0.00  0.00     0.171 HD
ENDROOT
BRANCH   1   5
ATOM      5  C   UNL d   1      25.913 -14.630  -2.964  0.00  0.00     0.173 A 
ATOM      6  S   UNL d   1      24.491 -14.065  -3.733  0.00  0.00    -0.061 SA
ATOM      7  C   UNL d   1      25.464 -13.239  -4.911  0.00  0.00     0.085 A 
ATOM      8  C   UNL d   1      26.799 -13.463  -4.644  0.00  0.00     0.075 A 
ATOM      9  C   UNL d   1      27.925 -13.040  -5.413  0.00  0.00     0.006 A 
ATOM     10  N   UNL d   1      27.033 -14.240  -3.535  0.00  0.00    -0.223 NA
ATOM     11  C   UNL d   1      28.865 -13.796  -6.009  0.00  0.00     0.001 A 
ATOM     12  C   UNL d   1      28.241 -11.567  -5.573  0.00  0.00     0.114 A 
ATOM     13  C   UNL d   1      29.092 -15.200  -6.168  0.00  0.00     0.014 A 
ATOM     14  C   UNL d   1      29.815 -12.835  -6.604  0.00  0.00     0.039 A 
ATOM     15  C   UNL d   1      30.157 -15.606  -6.882  0.00  0.00     0.001 A 
ATOM     16  C   UNL d   1      31.089 -14.669  -7.489  0.00  0.00     0.002 A 
ATOM     17  C   UNL d   1      30.962 -13.334  -7.379  0.00  0.00     0.030 A 
ATOM     18  N   UNL d   1      29.497 -11.617  -6.368  0.00  0.00    -0.381 N 
ATOM     19  H   UNL d   1      30.041 -10.834  -6.719  0.00  0.00     0.160 HD
ATOM     20  C   UNL d   1      27.232 -10.768  -6.384  0.00  0.00     0.037 C 
ENDBRANCH   1   5
BRANCH   2  21
ATOM     21  C   UNL d   1      26.653 -16.588   0.216  0.00  0.00     0.185 C 
BRANCH  21  22
ATOM     22  S   UNL d   1      25.971 -18.192  -0.353  0.00  0.00    -0.083 SA
BRANCH  22  23
ATOM     23  C   UNL d   1      24.252 -18.105  -0.451  0.00  0.00     0.167 A 
ATOM     24  N   UNL d   1      23.600 -17.020  -0.805  0.00  0.00    -0.235 NA
ATOM     25  C   UNL d   1      22.272 -17.322  -0.651  0.00  0.00     0.149 A 
ATOM     26  C   UNL d   1      22.106 -18.618  -0.200  0.00  0.00     0.062 A 
ATOM     27  N   UNL d   1      23.393 -19.098  -0.078  0.00  0.00    -0.333 N 
ATOM     28  H   UNL d   1      23.650 -20.014   0.246  0.00  0.00     0.168 HD
BRANCH  26  29
ATOM     29  C   UNL d   1      20.891 -19.345   0.140  0.00  0.00    -0.008 A 
ATOM     30  C   UNL d   1      19.946 -19.636  -0.853  0.00  0.00     0.014 A 
ATOM     31  C   UNL d   1      18.687 -20.137  -0.511  0.00  0.00     0.001 A 
ATOM     32  C   UNL d   1      18.400 -20.450   0.815  0.00  0.00     0.000 A 
ATOM     33  C   UNL d   1      19.376 -20.272   1.795  0.00  0.00     0.001 A 
ATOM     34  C   UNL d   1      20.597 -19.674   1.468  0.00  0.00     0.014 A 
ENDBRANCH  26  29
ENDBRANCH  22  23
ENDBRANCH  21  22
ENDBRANCH   2  21
TORSDOF 5
ENDMDL
MODEL 4
REMARK VINA RESULT:    -9.305      1.874      2.665
REMARK INTER + INTRA:         -11.398
REMARK INTER:                 -10.797
REMARK INTRA:                  -0.601
REMARK CONF_INDEPENDENT:        1.492
REMARK UNBOUND:                -0.601
REMARK  5 active torsions:
REMARK  status: ('A' for Active; 'I' for Inactive)
REMARK    1  A    between atoms: C_14  and  N_15 
REMARK       I    between atoms: N_15  and  C_16 
REMARK    2  A    between atoms: C_16  and  C_18 
REMARK    3  A    between atoms: C_18  and  S_19 
REMARK    4  A    between atoms: S_19  and  C_20 
REMARK    5  A    between atoms: C_23  and  C_24 
ROOT
ATOM      1  N   UNL d   1      27.177 -14.900  -3.628  0.00  0.00    -0.305 N 
ATOM      2  C   UNL d   1      25.837 -15.158  -3.913  0.00  0.00     0.233 C 
ATOM      3  O   UNL d   1      25.473 -15.571  -5.016  0.00  0.00    -0.272 OA
ATOM      4  H   UNL d   1      27.497 -14.566  -2.728  0.00  0.00     0.171 HD
ENDROOT
BRANCH   1   5
ATOM      5  C   UNL d   1      28.126 -15.106  -4.624  0.00  0.00     0.173 A 
ATOM      6  S   UNL d   1      27.932 -14.242  -6.091  0.00  0.00    -0.061 SA
ATOM      7  C   UNL d   1      29.361 -15.003  -6.719  0.00  0.00     0.085 A 
ATOM      8  C   UNL d   1      29.875 -15.869  -5.776  0.00  0.00     0.075 A 
ATOM      9  C   UNL d   1      30.987 -16.753  -5.918  0.00  0.00     0.006 A 
ATOM     10  N   UNL d   1      29.171 -15.905  -4.597  0.00  0.00    -0.223 NA
ATOM     11  C   UNL d   1      31.010 -18.094  -5.821  0.00  0.00     0.001 A 
ATOM     12  C   UNL d   1      32.386 -16.205  -6.124  0.00  0.00     0.114 A 
ATOM     13  C   UNL d   1      30.030 -19.116  -5.617  0.00  0.00     0.014 A 
ATOM     14  C   UNL d   1      32.428 -18.471  -5.990  0.00  0.00     0.039 A 
ATOM     15  C   UNL d   1      30.427 -20.401  -5.612  0.00  0.00     0.001 A 
ATOM     16  C   UNL d   1      31.818 -20.786  -5.797  0.00  0.00     0.002 A 
ATOM     17  C   UNL d   1      32.807 -19.892  -5.981  0.00  0.00     0.030 A 
ATOM     18  N   UNL d   1      33.192 -17.454  -6.147  0.00  0.00    -0.381 N 
ATOM     19  H   UNL d   1      34.194 -17.544  -6.289  0.00  0.00     0.160 HD
ATOM     20  C   UNL d   1      32.619 -15.501  -7.452  0.00  0.00     0.037 C 
ENDBRANCH   1   5
BRANCH   2  21
ATOM     21  C   UNL d   1      24.803 -14.898  -2.778  0.00  0.00     0.185 C 
BRANCH  21  22
ATOM     22  S   UNL d   1      25.477 -15.549  -1.201  0.00  0.00    -0.083 SA
BRANCH  22  23
ATOM     23  C   UNL d   1      24.575 -16.928  -0.695  0.00  0.00     0.167 A 
ATOM     24  N   UNL d   1      25.122 -18.093  -0.426  0.00  0.00    -0.235 NA
ATOM     25  C   UNL d   1      24.075 -18.941  -0.174  0.00  0.00     0.149 A 
ATOM     26  C   UNL d   1      22.864 -18.283  -0.285  0.00  0.00     0.062 A 
ATOM     27  N   UNL d   1      23.214 -16.993  -0.622  0.00  0.00    -0.333 N 
ATOM     28  H   UNL d   1      22.574 -16.238  -0.799  0.00  0.00     0.168 HD
BRANCH  26  29
ATOM     29  C   UNL d   1      21.505 -18.788  -0.148  0.00  0.00    -0.008 A 
ATOM     30  C   UNL d   1      21.029 -19.188   1.109  0.00  0.00     0.014 A 
ATOM     31  C   UNL d   1      19.815 -19.871   1.224  0.00  0.00     0.001 A 
ATOM     32  C   UNL d   1      19.018 -20.066   0.098  0.00  0.00     0.000 A 
ATOM     33  C   UNL d   1      19.431 -19.569  -1.137  0.00  0.00     0.001 A 
ATOM     34  C   UNL d   1      20.692 -18.979  -1.269  0.00  0.00     0.014 A 
ENDBRANCH  26  29
ENDBRANCH  22  23
ENDBRANCH  21  22
ENDBRANCH   2  21
TORSDOF 5
ENDMDL
MODEL 5
REMARK VINA RESULT:    -9.252      1.698      3.154
REMARK INTER + INTRA:         -11.432
REMARK INTER:                 -10.743
REMARK INTRA:                  -0.689
REMARK CONF_INDEPENDENT:        1.492
REMARK UNBOUND:                -0.689
REMARK  5 active torsions:
REMARK  status: ('A' for Active; 'I' for Inactive)
REMARK    1  A    between atoms: C_14  and  N_15 
REMARK       I    between atoms: N_15  and  C_16 
REMARK    2  A    between atoms: C_16  and  C_18 
REMARK    3  A    between atoms: C_18  and  S_19 
REMARK    4  A    between atoms: S_19  and  C_20 
REMARK    5  A    between atoms: C_23  and  C_24 
ROOT
ATOM      1  N   UNL d   1      28.457 -17.018  -1.289  0.00  0.00    -0.305 N 
ATOM      2  C   UNL d   1      27.672 -16.196  -0.482  0.00  0.00     0.233 C 
ATOM      3  O   UNL d   1      27.557 -14.988  -0.697  0.00  0.00    -0.272 OA
ATOM      4  H   UNL d   1      28.560 -18.013  -1.132  0.00  0.00     0.171 HD
ENDROOT
BRANCH   1   5
ATOM      5  C   UNL d   1      29.136 -16.451  -2.363  0.00  0.00     0.173 A 
ATOM      6  S   UNL d   1      30.848 -16.511  -2.335  0.00  0.00    -0.061 SA
ATOM      7  C   UNL d   1      30.894 -15.668  -3.854  0.00  0.00     0.085 A 
ATOM      8  C   UNL d   1      29.607 -15.389  -4.265  0.00  0.00     0.075 A 
ATOM      9  C   UNL d   1      29.201 -14.639  -5.410  0.00  0.00     0.006 A 
ATOM     10  N   UNL d   1      28.629 -15.849  -3.417  0.00  0.00    -0.223 NA
ATOM     11  C   UNL d   1      28.479 -13.505  -5.456  0.00  0.00     0.001 A 
ATOM     12  C   UNL d   1      29.500 -15.142  -6.808  0.00  0.00     0.114 A 
ATOM     13  C   UNL d   1      27.914 -12.618  -4.486  0.00  0.00     0.014 A 
ATOM     14  C   UNL d   1      28.306 -13.214  -6.893  0.00  0.00     0.039 A 
ATOM     15  C   UNL d   1      27.261 -11.522  -4.913  0.00  0.00     0.001 A 
ATOM     16  C   UNL d   1      27.101 -11.215  -6.326  0.00  0.00     0.002 A 
ATOM     17  C   UNL d   1      27.586 -11.999  -7.306  0.00  0.00     0.030 A 
ATOM     18  N   UNL d   1      28.848 -14.099  -7.644  0.00  0.00    -0.381 N 
ATOM     19  H   UNL d   1      28.829 -14.039  -8.658  0.00  0.00     0.160 HD
ATOM     20  C   UNL d   1      30.972 -15.162  -7.191  0.00  0.00     0.037 C 
ENDBRANCH   1   5
BRANCH   2  21
ATOM     21  C   UNL d   1      26.942 -16.865   0.721  0.00  0.00     0.185 C 
BRANCH  21  22
ATOM     22  S   UNL d   1      26.158 -18.420   0.148  0.00  0.00    -0.083 SA
BRANCH  22  23
ATOM     23  C   UNL d   1      24.477 -18.167  -0.137  0.00  0.00     0.167 A 
ATOM     24  N   UNL d   1      23.984 -17.048  -0.620  0.00  0.00    -0.235 NA
ATOM     25  C   UNL d   1      22.623 -17.204  -0.591  0.00  0.00     0.149 A 
ATOM     26  C   UNL d   1      22.274 -18.444  -0.088  0.00  0.00     0.062 A 
ATOM     27  N   UNL d   1      23.483 -19.041   0.198  0.00  0.00    -0.333 N 
ATOM     28  H   UNL d   1      23.607 -19.955   0.598  0.00  0.00     0.168 HD
BRANCH  26  29
ATOM     29  C   UNL d   1      20.960 -19.020   0.162  0.00  0.00    -0.008 A 
ATOM     30  C   UNL d   1      20.568 -19.332   1.471  0.00  0.00     0.014 A 
ATOM     31  C   UNL d   1      19.410 -20.077   1.707  0.00  0.00     0.001 A 
ATOM     32  C   UNL d   1      18.580 -20.427   0.645  0.00  0.00     0.000 A 
ATOM     33  C   UNL d   1      18.903 -20.021  -0.648  0.00  0.00     0.001 A 
ATOM     34  C   UNL d   1      20.113 -19.366  -0.897  0.00  0.00     0.014 A 
ENDBRANCH  26  29
ENDBRANCH  22  23
ENDBRANCH  21  22
ENDBRANCH   2  21
TORSDOF 5
ENDMDL
MODEL 6
REMARK VINA RESULT:    -9.144      6.716     10.264
REMARK INTER + INTRA:         -11.203
REMARK INTER:                 -10.636
REMARK INTRA:                  -0.567
REMARK CONF_INDEPENDENT:        1.492
REMARK UNBOUND:                -0.567
REMARK  5 active torsions:
REMARK  status: ('A' for Active; 'I' for Inactive)
REMARK    1  A    between atoms: C_14  and  N_15 
REMARK       I    between atoms: N_15  and  C_16 
REMARK    2  A    between atoms: C_16  and  C_18 
REMARK    3  A    between atoms: C_18  and  S_19 
REMARK    4  A    between atoms: S_19  and  C_20 
REMARK    5  A    between atoms: C_23  and  C_24 
ROOT
ATOM      1  N   UNL d   1      25.541 -11.724  -3.968  0.00  0.00    -0.305 N 
ATOM      2  C   UNL d   1      26.006 -10.637  -3.230  0.00  0.00     0.233 C 
ATOM      3  O   UNL d   1      26.940 -10.741  -2.432  0.00  0.00    -0.272 OA
ATOM      4  H   UNL d   1      24.780 -11.658  -4.632  0.00  0.00     0.171 HD
ENDROOT
BRANCH   1   5
ATOM      5  C   UNL d   1      26.146 -12.964  -3.788  0.00  0.00     0.173 A 
ATOM      6  S   UNL d   1      27.055 -13.596  -5.095  0.00  0.00    -0.061 SA
ATOM      7  C   UNL d   1      27.412 -15.011  -4.153  0.00  0.00     0.085 A 
ATOM      8  C   UNL d   1      26.804 -14.908  -2.919  0.00  0.00     0.075 A 
ATOM      9  C   UNL d   1      26.771 -15.885  -1.878  0.00  0.00     0.006 A 
ATOM     10  N   UNL d   1      26.104 -13.741  -2.727  0.00  0.00    -0.223 NA
ATOM     11  C   UNL d   1      25.703 -16.490  -1.329  0.00  0.00     0.001 A 
ATOM     12  C   UNL d   1      28.047 -16.305  -1.174  0.00  0.00     0.114 A 
ATOM     13  C   UNL d   1      24.292 -16.470  -1.560  0.00  0.00     0.014 A 
ATOM     14  C   UNL d   1      26.251 -17.351  -0.262  0.00  0.00     0.039 A 
ATOM     15  C   UNL d   1      23.502 -17.260  -0.812  0.00  0.00     0.001 A 
ATOM     16  C   UNL d   1      24.032 -18.127   0.229  0.00  0.00     0.002 A 
ATOM     17  C   UNL d   1      25.342 -18.200   0.525  0.00  0.00     0.030 A 
ATOM     18  N   UNL d   1      27.525 -17.256  -0.157  0.00  0.00    -0.381 N 
ATOM     19  H   UNL d   1      28.057 -17.793   0.521  0.00  0.00     0.160 HD
ATOM     20  C   UNL d   1      29.041 -17.073  -2.032  0.00  0.00     0.037 C 
ENDBRANCH   1   5
BRANCH   2  21
ATOM     21  C   UNL d   1      25.292  -9.270  -3.446  0.00  0.00     0.185 C 
BRANCH  21  22
ATOM     22  S   UNL d   1      25.020  -9.020  -5.242  0.00  0.00    -0.083 SA
BRANCH  22  23
ATOM     23  C   UNL d   1      23.904  -7.733  -5.500  0.00  0.00     0.167 A 
ATOM     24  N   UNL d   1      23.796  -6.695  -4.700  0.00  0.00    -0.235 NA
ATOM     25  C   UNL d   1      22.737  -5.969  -5.181  0.00  0.00     0.149 A 
ATOM     26  C   UNL d   1      22.189  -6.569  -6.300  0.00  0.00     0.062 A 
ATOM     27  N   UNL d   1      22.956  -7.701  -6.482  0.00  0.00    -0.333 N 
ATOM     28  H   UNL d   1      22.826  -8.388  -7.204  0.00  0.00     0.168 HD
BRANCH  26  29
ATOM     29  C   UNL d   1      21.040  -6.180  -7.106  0.00  0.00    -0.008 A 
ATOM     30  C   UNL d   1      19.976  -5.482  -6.519  0.00  0.00     0.014 A 
ATOM     31  C   UNL d   1      18.780  -5.292  -7.217  0.00  0.00     0.001 A 
ATOM     32  C   UNL d   1      18.676  -5.705  -8.543  0.00  0.00     0.000 A 
ATOM     33  C   UNL d   1      19.770  -6.297  -9.171  0.00  0.00     0.001 A 
ATOM     34  C   UNL d   1      20.930  -6.581  -8.442  0.00  0.00     0.014 A 
ENDBRANCH  26  29
ENDBRANCH  22  23
ENDBRANCH  21  22
ENDBRANCH   2  21
TORSDOF 5
ENDMDL
MODEL 7
REMARK VINA RESULT:    -8.492      2.690      4.782
REMARK INTER + INTRA:         -11.461
REMARK INTER:                  -9.983
REMARK INTRA:                  -1.478
REMARK CONF_INDEPENDENT:        1.492
REMARK UNBOUND:                -1.478
REMARK  5 active torsions:
REMARK  status: ('A' for Active; 'I' for Inactive)
REMARK    1  A    between atoms: C_14  and  N_15 
REMARK       I    between atoms: N_15  and  C_16 
REMARK    2  A    between atoms: C_16  and  C_18 
REMARK    3  A    between atoms: C_18  and  S_19 
REMARK    4  A    between atoms: S_19  and  C_20 
REMARK    5  A    between atoms: C_23  and  C_24 
ROOT
ATOM      1  N   UNL d   1      28.439 -14.985  -3.961  0.00  0.00    -0.305 N 
ATOM      2  C   UNL d   1      27.688 -14.673  -5.094  0.00  0.00     0.233 C 
ATOM      3  O   UNL d   1      27.710 -15.376  -6.106  0.00  0.00    -0.272 OA
ATOM      4  H   UNL d   1      28.429 -14.424  -3.119  0.00  0.00     0.171 HD
ENDROOT
BRANCH   1   5
ATOM      5  C   UNL d   1      29.243 -16.120  -3.983  0.00  0.00     0.173 A 
ATOM      6  S   UNL d   1      30.127 -16.489  -2.563  0.00  0.00    -0.061 SA
ATOM      7  C   UNL d   1      30.801 -17.881  -3.353  0.00  0.00     0.085 A 
ATOM      8  C   UNL d   1      30.317 -17.958  -4.642  0.00  0.00     0.075 A 
ATOM      9  C   UNL d   1      30.681 -18.896  -5.656  0.00  0.00     0.006 A 
ATOM     10  N   UNL d   1      29.431 -16.962  -4.976  0.00  0.00    -0.223 NA
ATOM     11  C   UNL d   1      31.235 -18.658  -6.858  0.00  0.00     0.001 A 
ATOM     12  C   UNL d   1      30.370 -20.370  -5.490  0.00  0.00     0.114 A 
ATOM     13  C   UNL d   1      31.707 -17.498  -7.550  0.00  0.00     0.014 A 
ATOM     14  C   UNL d   1      31.330 -19.980  -7.509  0.00  0.00     0.039 A 
ATOM     15  C   UNL d   1      32.253 -17.649  -8.770  0.00  0.00     0.001 A 
ATOM     16  C   UNL d   1      32.370 -18.949  -9.413  0.00  0.00     0.002 A 
ATOM     17  C   UNL d   1      31.940 -20.090  -8.844  0.00  0.00     0.030 A 
ATOM     18  N   UNL d   1      30.856 -20.923  -6.782  0.00  0.00    -0.381 N 
ATOM     19  H   UNL d   1      30.858 -21.894  -7.080  0.00  0.00     0.160 HD
ATOM     20  C   UNL d   1      31.141 -21.078  -4.386  0.00  0.00     0.037 C 
ENDBRANCH   1   5
BRANCH   2  21
ATOM     21  C   UNL d   1      26.813 -13.385  -5.037  0.00  0.00     0.185 C 
BRANCH  21  22
ATOM     22  S   UNL d   1      26.848 -12.720  -3.329  0.00  0.00    -0.083 SA
BRANCH  22  23
ATOM     23  C   UNL d   1      26.467 -13.965  -2.200  0.00  0.00     0.167 A 
ATOM     24  N   UNL d   1      27.293 -14.368  -1.260  0.00  0.00    -0.235 NA
ATOM     25  C   UNL d   1      26.671 -15.431  -0.656  0.00  0.00     0.149 A 
ATOM     26  C   UNL d   1      25.439 -15.680  -1.233  0.00  0.00     0.062 A 
ATOM     27  N   UNL d   1      25.334 -14.726  -2.222  0.00  0.00    -0.333 N 
ATOM     28  H   UNL d   1      24.562 -14.622  -2.858  0.00  0.00     0.168 HD
BRANCH  26  29
ATOM     29  C   UNL d   1      24.463 -16.723  -0.948  0.00  0.00    -0.008 A 
ATOM     30  C   UNL d   1      23.093 -16.433  -0.995  0.00  0.00     0.014 A 
ATOM     31  C   UNL d   1      22.155 -17.353  -0.520  0.00  0.00     0.001 A 
ATOM     32  C   UNL d   1      22.571 -18.611  -0.091  0.00  0.00     0.000 A 
ATOM     33  C   UNL d   1      23.922 -18.950  -0.149  0.00  0.00     0.001 A 
ATOM     34  C   UNL d   1      24.870 -17.994  -0.527  0.00  0.00     0.014 A 
ENDBRANCH  26  29
ENDBRANCH  22  23
ENDBRANCH  21  22
ENDBRANCH   2  21
TORSDOF 5
ENDMDL
MODEL 8
REMARK VINA RESULT:    -7.977      4.674      8.302
REMARK INTER + INTRA:         -11.244
REMARK INTER:                  -9.469
REMARK INTRA:                  -1.775
REMARK CONF_INDEPENDENT:        1.492
REMARK UNBOUND:                -1.775
REMARK  5 active torsions:
REMARK  status: ('A' for Active; 'I' for Inactive)
REMARK    1  A    between atoms: C_14  and  N_15 
REMARK       I    between atoms: N_15  and  C_16 
REMARK    2  A    between atoms: C_16  and  C_18 
REMARK    3  A    between atoms: C_18  and  S_19 
REMARK    4  A    between atoms: S_19  and  C_20 
REMARK    5  A    between atoms: C_23  and  C_24 
ROOT
ATOM      1  N   UNL d   1      25.534 -11.029  -3.410  0.00  0.00    -0.305 N 
ATOM      2  C   UNL d   1      26.200 -10.003  -2.741  0.00  0.00     0.233 C 
ATOM      3  O   UNL d   1      27.273 -10.190  -2.163  0.00  0.00    -0.272 OA
ATOM      4  H   UNL d   1      24.656 -10.894  -3.895  0.00  0.00     0.171 HD
ENDROOT
BRANCH   1   5
ATOM      5  C   UNL d   1      26.097 -12.301  -3.415  0.00  0.00     0.173 A 
ATOM      6  S   UNL d   1      26.928 -12.791  -4.831  0.00  0.00    -0.061 SA
ATOM      7  C   UNL d   1      27.266 -14.326  -4.092  0.00  0.00     0.085 A 
ATOM      8  C   UNL d   1      26.711 -14.361  -2.829  0.00  0.00     0.075 A 
ATOM      9  C   UNL d   1      26.681 -15.462  -1.920  0.00  0.00     0.006 A 
ATOM     10  N   UNL d   1      26.066 -13.206  -2.461  0.00  0.00    -0.223 NA
ATOM     11  C   UNL d   1      25.612 -16.096  -1.406  0.00  0.00     0.001 A 
ATOM     12  C   UNL d   1      27.966 -16.012  -1.332  0.00  0.00     0.114 A 
ATOM     13  C   UNL d   1      24.195 -15.998  -1.570  0.00  0.00     0.014 A 
ATOM     14  C   UNL d   1      26.168 -17.105  -0.481  0.00  0.00     0.039 A 
ATOM     15  C   UNL d   1      23.404 -16.851  -0.895  0.00  0.00     0.001 A 
ATOM     16  C   UNL d   1      23.940 -17.862   0.004  0.00  0.00     0.002 A 
ATOM     17  C   UNL d   1      25.258 -18.016   0.230  0.00  0.00     0.030 A 
ATOM     18  N   UNL d   1      27.447 -17.067  -0.422  0.00  0.00    -0.381 N 
ATOM     19  H   UNL d   1      27.984 -17.705   0.159  0.00  0.00     0.160 HD
ATOM     20  C   UNL d   1      28.894 -16.697  -2.323  0.00  0.00     0.037 C 
ENDBRANCH   1   5
BRANCH   2  21
ATOM     21  C   UNL d   1      25.530  -8.597  -2.742  0.00  0.00     0.185 C 
BRANCH  21  22
ATOM     22  S   UNL d   1      26.207  -7.616  -1.349  0.00  0.00    -0.083 SA
BRANCH  22  23
ATOM     23  C   UNL d   1      26.120  -8.525   0.113  0.00  0.00     0.167 A 
ATOM     24  N   UNL d   1      25.539  -8.085   1.207  0.00  0.00    -0.235 NA
ATOM     25  C   UNL d   1      25.781  -9.040   2.161  0.00  0.00     0.149 A 
ATOM     26  C   UNL d   1      26.518 -10.088   1.641  0.00  0.00     0.062 A 
ATOM     27  N   UNL d   1      26.725  -9.731   0.326  0.00  0.00    -0.333 N 
ATOM     28  H   UNL d   1      27.244 -10.261  -0.352  0.00  0.00     0.168 HD
BRANCH  26  29
ATOM     29  C   UNL d   1      27.036 -11.285   2.290  0.00  0.00    -0.008 A 
ATOM     30  C   UNL d   1      27.074 -12.499   1.592  0.00  0.00     0.014 A 
ATOM     31  C   UNL d   1      27.362 -13.693   2.260  0.00  0.00     0.001 A 
ATOM     32  C   UNL d   1      27.718 -13.668   3.606  0.00  0.00     0.000 A 
ATOM     33  C   UNL d   1      27.795 -12.450   4.279  0.00  0.00     0.001 A 
ATOM     34  C   UNL d   1      27.406 -11.269   3.639  0.00  0.00     0.014 A 
ENDBRANCH  26  29
ENDBRANCH  22  23
ENDBRANCH  21  22
ENDBRANCH   2  21
TORSDOF 5
ENDMDL
MODEL 9
REMARK VINA RESULT:    -7.451      4.451      7.549
REMARK INTER + INTRA:         -11.273
REMARK INTER:                  -8.942
REMARK INTRA:                  -2.331
REMARK CONF_INDEPENDENT:        1.492
REMARK UNBOUND:                -2.331
REMARK  5 active torsions:
REMARK  status: ('A' for Active; 'I' for Inactive)
REMARK    1  A    between atoms: C_14  and  N_15 
REMARK       I    between atoms: N_15  and  C_16 
REMARK    2  A    between atoms: C_16  and  C_18 
REMARK    3  A    between atoms: C_18  and  S_19 
REMARK    4  A    between atoms: S_19  and  C_20 
REMARK    5  A    between atoms: C_23  and  C_24 
ROOT
ATOM      1  N   UNL d   1      28.436 -12.664  -2.605  0.00  0.00    -0.305 N 
ATOM      2  C   UNL d   1      27.404 -11.824  -2.189  0.00  0.00     0.233 C 
ATOM      3  O   UNL d   1      26.985 -11.830  -1.030  0.00  0.00    -0.272 OA
ATOM      4  H   UNL d   1      28.797 -12.670  -3.551  0.00  0.00     0.171 HD
ENDROOT
BRANCH   1   5
ATOM      5  C   UNL d   1      29.001 -13.538  -1.683  0.00  0.00     0.173 A 
ATOM      6  S   UNL d   1      29.422 -15.104  -2.235  0.00  0.00    -0.061 SA
ATOM      7  C   UNL d   1      29.980 -15.508  -0.640  0.00  0.00     0.085 A 
ATOM      8  C   UNL d   1      29.794 -14.430   0.199  0.00  0.00     0.075 A 
ATOM      9  C   UNL d   1      30.037 -14.367   1.605  0.00  0.00     0.006 A 
ATOM     10  N   UNL d   1      29.252 -13.324  -0.409  0.00  0.00    -0.223 NA
ATOM     11  C   UNL d   1      29.163 -14.117   2.597  0.00  0.00     0.001 A 
ATOM     12  C   UNL d   1      31.444 -14.504   2.151  0.00  0.00     0.114 A 
ATOM     13  C   UNL d   1      27.753 -13.890   2.677  0.00  0.00     0.014 A 
ATOM     14  C   UNL d   1      29.971 -14.111   3.833  0.00  0.00     0.039 A 
ATOM     15  C   UNL d   1      27.196 -13.703   3.887  0.00  0.00     0.001 A 
ATOM     16  C   UNL d   1      27.978 -13.713   5.113  0.00  0.00     0.002 A 
ATOM     17  C   UNL d   1      29.310 -13.905   5.131  0.00  0.00     0.030 A 
ATOM     18  N   UNL d   1      31.217 -14.311   3.608  0.00  0.00    -0.381 N 
ATOM     19  H   UNL d   1      31.905 -14.348   4.354  0.00  0.00     0.160 HD
ATOM     20  C   UNL d   1      32.079 -15.876   1.979  0.00  0.00     0.037 C 
ENDBRANCH   1   5
BRANCH   2  21
ATOM     21  C   UNL d   1      26.785 -10.872  -3.255  0.00  0.00     0.185 C 
BRANCH  21  22
ATOM     22  S   UNL d   1      25.590 -11.819  -4.274  0.00  0.00    -0.083 SA
BRANCH  22  23
ATOM     23  C   UNL d   1      25.632 -13.487  -3.840  0.00  0.00     0.167 A 
ATOM     24  N   UNL d   1      25.589 -14.465  -4.717  0.00  0.00    -0.235 NA
ATOM     25  C   UNL d   1      25.531 -15.619  -3.979  0.00  0.00     0.149 A 
ATOM     26  C   UNL d   1      25.546 -15.343  -2.624  0.00  0.00     0.062 A 
ATOM     27  N   UNL d   1      25.609 -13.967  -2.563  0.00  0.00    -0.333 N 
ATOM     28  H   UNL d   1      25.619 -13.417  -1.722  0.00  0.00     0.168 HD
BRANCH  26  29
ATOM     29  C   UNL d   1      25.458 -16.243  -1.482  0.00  0.00    -0.008 A 
ATOM     30  C   UNL d   1      26.579 -16.453  -0.667  0.00  0.00     0.014 A 
ATOM     31  C   UNL d   1      26.578 -17.467   0.295  0.00  0.00     0.001 A 
ATOM     32  C   UNL d   1      25.422 -18.208   0.521  0.00  0.00     0.000 A 
ATOM     33  C   UNL d   1      24.266 -17.928  -0.205  0.00  0.00     0.001 A 
ATOM     34  C   UNL d   1      24.298 -16.985  -1.238  0.00  0.00     0.014 A 
ENDBRANCH  26  29
ENDBRANCH  22  23
ENDBRANCH  21  22
ENDBRANCH   2  21
TORSDOF 5
ENDMDL
