MODEL 1
REMARK VINA RESULT:    -9.585      0.000      0.000
REMARK INTER + INTRA:         -17.067
REMARK INTER:                 -12.866
REMARK INTRA:                  -4.201
REMARK CONF_INDEPENDENT:        3.281
REMARK UNBOUND:                -4.201
REMARK  11 active torsions:
REMARK  status: ('A' for Active; 'I' for Inactive)
REMARK    1  A    between atoms: C_2  and  C_3 
REMARK    2  A    between atoms: C_3  and  C_4 
REMARK    3  A    between atoms: C_3  and  N_16 
REMARK    4  A    between atoms: N_8  and  C_9 
REMARK    5  A    between atoms: C_9  and  C_10 
REMARK    6  A    between atoms: N_16  and  C_17 
REMARK    7  A    between atoms: N_16  and  C_23 
REMARK    8  A    between atoms: C_17  and  C_18 
REMARK    9  A    between atoms: C_23  and  C_24 
REMARK   10  A    between atoms: C_28  and  O_29 
REMARK   11  A    between atoms: C_35  and  O_36 
ROOT
ATOM      1  N   UNL d   1      27.167 -17.706  -0.147  0.00  0.00    -0.053 N 
ATOM      2  H   UNL d   1      27.818 -18.470  -0.356  0.00  0.00     0.281 HD
ENDROOT
BRANCH   1   3
ATOM      3  C   UNL d   1      28.075 -16.541   0.596  0.00  0.00     0.260 C 
BRANCH   3   4
ATOM      4  C   UNL d   1      29.345 -16.385  -0.221  0.00  0.00     0.037 C 
ATOM      5  C   UNL d   1      29.814 -17.557  -1.036  0.00  0.00     0.007 C 
ENDBRANCH   3   4
BRANCH   3   6
ATOM      6  C   UNL d   1      27.383 -15.244   0.918  0.00  0.00     0.168 C 
ATOM      7  N   UNL d   1      26.365 -14.734   0.245  0.00  0.00    -0.145 NA
ATOM      8  N   UNL d   1      25.939 -13.634   0.930  0.00  0.00     0.018 NA
ATOM      9  N   UNL d   1      26.679 -13.448   2.009  0.00  0.00    -0.003 NA
ATOM     10  N   UNL d   1      27.705 -14.330   1.914  0.00  0.00    -0.257 N 
BRANCH  10  11
ATOM     11  C   UNL d   1      28.711 -14.305   2.998  0.00  0.00     0.186 C 
BRANCH  11  12
ATOM     12  C   UNL d   1      28.238 -13.977   4.466  0.00  0.00    -0.039 C 
ATOM     13  C   UNL d   1      28.621 -14.837   5.483  0.00  0.00     0.009 C 
ATOM     14  C   UNL d   1      28.908 -14.413   6.902  0.00  0.00     0.001 C 
ATOM     15  C   UNL d   1      28.671 -13.143   7.323  0.00  0.00     0.000 C 
ATOM     16  C   UNL d   1      28.022 -12.373   6.377  0.00  0.00     0.001 C 
ATOM     17  C   UNL d   1      27.781 -12.786   4.996  0.00  0.00     0.009 C 
ENDBRANCH  11  12
ENDBRANCH  10  11
ENDBRANCH   3   6
ENDBRANCH   1   3
BRANCH   1  18
ATOM     18  C   UNL d   1      26.039 -18.143   0.746  0.00  0.00     0.300 C 
BRANCH  18  19
ATOM     19  C   UNL d   1      24.712 -17.959   0.223  0.00  0.00     0.078 C 
ATOM     20  C   UNL d   1      23.854 -18.877  -0.306  0.00  0.00     0.036 C 
ATOM     21  C   UNL d   1      22.856 -18.100  -0.919  0.00  0.00     0.027 C 
ATOM     22  C   UNL d   1      23.228 -16.781  -0.784  0.00  0.00     0.142 C 
ATOM     23  O   UNL d   1      24.292 -16.692   0.046  0.00  0.00    -0.325 OA
ENDBRANCH  18  19
ENDBRANCH   1  18
BRANCH   1  24
ATOM     24  C   UNL d   1      26.536 -17.164  -1.381  0.00  0.00     0.252 C 
BRANCH  24  25
ATOM     25  C   UNL d   1      26.680 -15.919  -2.254  0.00  0.00     0.060 C 
ATOM     26  C   UNL d   1      27.666 -15.375  -3.102  0.00  0.00     0.024 C 
ATOM     27  C   UNL d   1      27.523 -14.188  -3.788  0.00  0.00     0.033 C 
ATOM     28  C   UNL d   1      26.959 -13.065  -3.234  0.00  0.00     0.024 C 
ATOM     29  C   UNL d   1      26.838 -14.480  -4.929  0.00  0.00     0.114 C 
ATOM     30  C   UNL d   1      26.293 -12.168  -4.042  0.00  0.00     0.065 C 
ATOM     31  C   UNL d   1      26.576 -12.197  -5.402  0.00  0.00     0.035 C 
ATOM     32  C   UNL d   1      27.032 -13.418  -5.842  0.00  0.00     0.013 C 
ATOM     33  N   UNL d   1      25.666 -15.079  -4.335  0.00  0.00    -0.268 NA
ATOM     34  C   UNL d   1      25.582 -15.556  -2.931  0.00  0.00     0.212 C 
BRANCH  30  35
ATOM     35  O   UNL d   1      25.305 -11.489  -3.420  0.00  0.00    -0.356 OA
ATOM     36  C   UNL d   1      25.530 -10.101  -3.378  0.00  0.00     0.210 C 
ENDBRANCH  30  35
BRANCH  34  37
ATOM     37  O   UNL d   1      24.925 -14.774  -1.893  0.00  0.00    -0.365 OA
ATOM     38  H   UNL d   1      25.259 -15.032  -0.992  0.00  0.00     0.212 HD
ENDBRANCH  34  37
ENDBRANCH  24  25
ENDBRANCH   1  24
TORSDOF 11
ENDMDL
MODEL 2
REMARK VINA RESULT:    -9.254      1.461      1.863
REMARK INTER + INTRA:         -16.956
REMARK INTER:                 -12.535
REMARK INTRA:                  -4.421
REMARK CONF_INDEPENDENT:        3.281
REMARK UNBOUND:                -4.421
REMARK  11 active torsions:
REMARK  status: ('A' for Active; 'I' for Inactive)
REMARK    1  A    between atoms: C_2  and  C_3 
REMARK    2  A    between atoms: C_3  and  C_4 
REMARK    3  A    between atoms: C_3  and  N_16 
REMARK    4  A    between atoms: N_8  and  C_9 
REMARK    5  A    between atoms: C_9  and  C_10 
REMARK    6  A    between atoms: N_16  and  C_17 
REMARK    7  A    between atoms: N_16  and  C_23 
REMARK    8  A    between atoms: C_17  and  C_18 
REMARK    9  A    between atoms: C_23  and  C_24 
REMARK   10  A    between atoms: C_28  and  O_29 
REMARK   11  A    between atoms: C_35  and  O_36 
ROOT
ATOM      1  N   UNL d   1      25.915 -16.666  -0.693  0.00  0.00    -0.053 N 
ATOM      2  H   UNL d   1      26.023 -17.579  -0.237  0.00  0.00     0.281 HD
ENDROOT
BRANCH   1   3
ATOM      3  C   UNL d   1      26.774 -15.602   0.236  0.00  0.00     0.260 C 
BRANCH   3   4
ATOM      4  C   UNL d   1      28.102 -16.266   0.552  0.00  0.00     0.037 C 
ATOM      5  C   UNL d   1      29.199 -16.182  -0.471  0.00  0.00     0.007 C 
ENDBRANCH   3   4
BRANCH   3   6
ATOM      6  C   UNL d   1      26.892 -14.193  -0.279  0.00  0.00     0.168 C 
ATOM      7  N   UNL d   1      26.281 -13.719  -1.352  0.00  0.00    -0.145 NA
ATOM      8  N   UNL d   1      26.532 -12.379  -1.399  0.00  0.00     0.018 NA
ATOM      9  N   UNL d   1      27.292 -12.016  -0.382  0.00  0.00    -0.003 NA
ATOM     10  N   UNL d   1      27.686 -13.167   0.218  0.00  0.00    -0.257 N 
BRANCH  10  11
ATOM     11  C   UNL d   1      28.586 -13.039   1.385  0.00  0.00     0.186 C 
BRANCH  11  12
ATOM     12  C   UNL d   1      27.986 -13.227   2.831  0.00  0.00    -0.039 C 
ATOM     13  C   UNL d   1      27.958 -14.506   3.366  0.00  0.00     0.009 C 
ATOM     14  C   UNL d   1      28.114 -14.825   4.832  0.00  0.00     0.001 C 
ATOM     15  C   UNL d   1      28.156 -13.842   5.770  0.00  0.00     0.000 C 
ATOM     16  C   UNL d   1      27.896 -12.590   5.251  0.00  0.00     0.001 C 
ATOM     17  C   UNL d   1      27.780 -12.290   3.825  0.00  0.00     0.009 C 
ENDBRANCH  11  12
ENDBRANCH  10  11
ENDBRANCH   3   6
ENDBRANCH   1   3
BRANCH   1  18
ATOM     18  C   UNL d   1      24.476 -16.241  -0.789  0.00  0.00     0.300 C 
BRANCH  18  19
ATOM     19  C   UNL d   1      23.508 -17.301  -0.872  0.00  0.00     0.078 C 
ATOM     20  C   UNL d   1      22.147 -17.237  -0.824  0.00  0.00     0.036 C 
ATOM     21  C   UNL d   1      21.748 -18.572  -0.646  0.00  0.00     0.027 C 
ATOM     22  C   UNL d   1      22.893 -19.325  -0.519  0.00  0.00     0.142 C 
ATOM     23  O   UNL d   1      23.972 -18.563  -0.806  0.00  0.00    -0.325 OA
ENDBRANCH  18  19
ENDBRANCH   1  18
BRANCH   1  24
ATOM     24  C   UNL d   1      26.439 -16.680  -2.086  0.00  0.00     0.252 C 
BRANCH  24  25
ATOM     25  C   UNL d   1      26.910 -15.650  -3.112  0.00  0.00     0.060 C 
ATOM     26  C   UNL d   1      28.140 -15.262  -3.678  0.00  0.00     0.024 C 
ATOM     27  C   UNL d   1      28.276 -14.261  -4.615  0.00  0.00     0.033 C 
ATOM     28  C   UNL d   1      27.596 -13.070  -4.544  0.00  0.00     0.024 C 
ATOM     29  C   UNL d   1      28.007 -14.825  -5.825  0.00  0.00     0.114 C 
ATOM     30  C   UNL d   1      27.270 -12.401  -5.706  0.00  0.00     0.065 C 
ATOM     31  C   UNL d   1      27.994 -12.714  -6.850  0.00  0.00     0.035 C 
ATOM     32  C   UNL d   1      28.531 -13.981  -6.831  0.00  0.00     0.013 C 
ATOM     33  N   UNL d   1      26.684 -15.330  -5.543  0.00  0.00    -0.268 NA
ATOM     34  C   UNL d   1      26.116 -15.493  -4.180  0.00  0.00     0.212 C 
BRANCH  30  35
ATOM     35  O   UNL d   1      26.154 -11.646  -5.617  0.00  0.00    -0.356 OA
ATOM     36  C   UNL d   1      25.907 -11.175  -4.315  0.00  0.00     0.210 C 
ENDBRANCH  30  35
BRANCH  34  37
ATOM     37  O   UNL d   1      25.174 -14.533  -3.622  0.00  0.00    -0.365 OA
ATOM     38  H   UNL d   1      25.642 -13.878  -3.036  0.00  0.00     0.212 HD
ENDBRANCH  34  37
ENDBRANCH  24  25
ENDBRANCH   1  24
TORSDOF 11
ENDMDL
MODEL 3
REMARK VINA RESULT:    -8.896      2.969      6.185
REMARK INTER + INTRA:         -17.547
REMARK INTER:                 -12.177
REMARK INTRA:                  -5.370
REMARK CONF_INDEPENDENT:        3.281
REMARK UNBOUND:                -5.370
REMARK  11 active torsions:
REMARK  status: ('A' for Active; 'I' for Inactive)
REMARK    1  A    between atoms: C_2  and  C_3 
REMARK    2  A    between atoms: C_3  and  C_4 
REMARK    3  A    between atoms: C_3  and  N_16 
REMARK    4  A    between atoms: N_8  and  C_9 
REMARK    5  A    between atoms: C_9  and  C_10 
REMARK    6  A    between atoms: N_16  and  C_17 
REMARK    7  A    between atoms: N_16  and  C_23 
REMARK    8  A    between atoms: C_17  and  C_18 
REMARK    9  A    between atoms: C_23  and  C_24 
REMARK   10  A    between atoms: C_28  and  O_29 
REMARK   11  A    between atoms: C_35  and  O_36 
ROOT
ATOM      1  N   UNL d   1      27.651 -15.747  -1.394  0.00  0.00    -0.053 N 
ATOM      2  H   UNL d   1      28.338 -15.299  -0.778  0.00  0.00     0.281 HD
ENDROOT
BRANCH   1   3
ATOM      3  C   UNL d   1      26.349 -14.728  -1.423  0.00  0.00     0.260 C 
BRANCH   3   4
ATOM      4  C   UNL d   1      26.688 -13.557  -0.517  0.00  0.00     0.037 C 
ATOM      5  C   UNL d   1      26.666 -13.778   0.968  0.00  0.00     0.007 C 
ENDBRANCH   3   4
BRANCH   3   6
ATOM      6  C   UNL d   1      25.827 -14.333  -2.778  0.00  0.00     0.168 C 
ATOM      7  N   UNL d   1      25.143 -15.120  -3.592  0.00  0.00    -0.145 NA
ATOM      8  N   UNL d   1      24.736 -14.354  -4.644  0.00  0.00     0.018 NA
ATOM      9  N   UNL d   1      25.161 -13.111  -4.502  0.00  0.00    -0.003 NA
ATOM     10  N   UNL d   1      26.005 -13.126  -3.442  0.00  0.00    -0.257 N 
BRANCH  10  11
ATOM     11  C   UNL d   1      26.653 -11.844  -3.084  0.00  0.00     0.186 C 
BRANCH  11  12
ATOM     12  C   UNL d   1      26.337 -10.566  -3.952  0.00  0.00    -0.039 C 
ATOM     13  C   UNL d   1      26.569 -10.630  -5.317  0.00  0.00     0.009 C 
ATOM     14  C   UNL d   1      25.753  -9.906  -6.359  0.00  0.00     0.001 C 
ATOM     15  C   UNL d   1      24.793  -9.009  -6.010  0.00  0.00     0.000 C 
ATOM     16  C   UNL d   1      24.770  -8.744  -4.656  0.00  0.00     0.001 C 
ATOM     17  C   UNL d   1      25.542  -9.476  -3.654  0.00  0.00     0.009 C 
ENDBRANCH  11  12
ENDBRANCH  10  11
ENDBRANCH   3   6
ENDBRANCH   1   3
BRANCH   1  18
ATOM     18  C   UNL d   1      27.244 -17.109  -0.902  0.00  0.00     0.300 C 
BRANCH  18  19
ATOM     19  C   UNL d   1      25.831 -17.328  -0.748  0.00  0.00     0.078 C 
ATOM     20  C   UNL d   1      25.143 -17.823   0.320  0.00  0.00     0.036 C 
ATOM     21  C   UNL d   1      23.864 -18.097  -0.193  0.00  0.00     0.027 C 
ATOM     22  C   UNL d   1      23.902 -17.825  -1.542  0.00  0.00     0.142 C 
ATOM     23  O   UNL d   1      25.068 -17.213  -1.850  0.00  0.00    -0.325 OA
ENDBRANCH  18  19
ENDBRANCH   1  18
BRANCH   1  24
ATOM     24  C   UNL d   1      28.187 -15.944  -2.768  0.00  0.00     0.252 C 
BRANCH  24  25
ATOM     25  C   UNL d   1      28.665 -15.058  -3.918  0.00  0.00     0.060 C 
ATOM     26  C   UNL d   1      29.745 -14.185  -4.153  0.00  0.00     0.024 C 
ATOM     27  C   UNL d   1      29.931 -13.488  -5.328  0.00  0.00     0.033 C 
ATOM     28  C   UNL d   1      28.906 -12.876  -6.006  0.00  0.00     0.024 C 
ATOM     29  C   UNL d   1      30.555 -14.338  -6.189  0.00  0.00     0.114 C 
ATOM     30  C   UNL d   1      28.979 -12.746  -7.378  0.00  0.00     0.065 C 
ATOM     31  C   UNL d   1      30.236 -12.837  -7.963  0.00  0.00     0.035 C 
ATOM     32  C   UNL d   1      31.136 -13.570  -7.223  0.00  0.00     0.013 C 
ATOM     33  N   UNL d   1      29.592 -15.414  -6.171  0.00  0.00    -0.268 NA
ATOM     34  C   UNL d   1      28.531 -15.580  -5.145  0.00  0.00     0.212 C 
BRANCH  30  35
ATOM     35  O   UNL d   1      27.780 -12.724  -7.998  0.00  0.00    -0.356 OA
ATOM     36  C   UNL d   1      27.655 -11.673  -8.924  0.00  0.00     0.210 C 
ENDBRANCH  30  35
BRANCH  34  37
ATOM     37  O   UNL d   1      27.149 -15.201  -5.402  0.00  0.00    -0.365 OA
ATOM     38  H   UNL d   1      26.854 -14.489  -4.772  0.00  0.00     0.212 HD
ENDBRANCH  34  37
ENDBRANCH  24  25
ENDBRANCH   1  24
TORSDOF 11
ENDMDL
MODEL 4
REMARK VINA RESULT:    -8.885      3.216      8.198
REMARK INTER + INTRA:         -16.896
REMARK INTER:                 -12.166
REMARK INTRA:                  -4.730
REMARK CONF_INDEPENDENT:        3.281
REMARK UNBOUND:                -4.730
REMARK  11 active torsions:
REMARK  status: ('A' for Active; 'I' for Inactive)
REMARK    1  A    between atoms: C_2  and  C_3 
REMARK    2  A    between atoms: C_3  and  C_4 
REMARK    3  A    between atoms: C_3  and  N_16 
REMARK    4  A    between atoms: N_8  and  C_9 
REMARK    5  A    between atoms: C_9  and  C_10 
REMARK    6  A    between atoms: N_16  and  C_17 
REMARK    7  A    between atoms: N_16  and  C_23 
REMARK    8  A    between atoms: C_17  and  C_18 
REMARK    9  A    between atoms: C_23  and  C_24 
REMARK   10  A    between atoms: C_28  and  O_29 
REMARK   11  A    between atoms: C_35  and  O_36 
ROOT
ATOM      1  N   UNL d   1      27.391 -11.764  -3.326  0.00  0.00    -0.053 N 
ATOM      2  H   UNL d   1      28.101 -11.314  -3.915  0.00  0.00     0.281 HD
ENDROOT
BRANCH   1   3
ATOM      3  C   UNL d   1      26.170 -12.192  -4.355  0.00  0.00     0.260 C 
BRANCH   3   4
ATOM      4  C   UNL d   1      26.232 -11.236  -5.533  0.00  0.00     0.037 C 
ATOM      5  C   UNL d   1      27.501 -11.176  -6.333  0.00  0.00     0.007 C 
ENDBRANCH   3   4
BRANCH   3   6
ATOM      6  C   UNL d   1      26.084 -13.645  -4.739  0.00  0.00     0.168 C 
ATOM      7  N   UNL d   1      25.075 -14.451  -4.454  0.00  0.00    -0.145 NA
ATOM      8  N   UNL d   1      25.313 -15.634  -5.092  0.00  0.00     0.018 NA
ATOM      9  N   UNL d   1      26.452 -15.577  -5.758  0.00  0.00    -0.003 NA
ATOM     10  N   UNL d   1      27.040 -14.412  -5.392  0.00  0.00    -0.257 N 
BRANCH  10  11
ATOM     11  C   UNL d   1      28.365 -14.117  -5.981  0.00  0.00     0.186 C 
BRANCH  11  12
ATOM     12  C   UNL d   1      29.506 -15.198  -5.865  0.00  0.00    -0.039 C 
ATOM     13  C   UNL d   1      29.568 -15.961  -4.709  0.00  0.00     0.009 C 
ATOM     14  C   UNL d   1      30.030 -17.396  -4.653  0.00  0.00     0.001 C 
ATOM     15  C   UNL d   1      30.562 -18.012  -5.741  0.00  0.00     0.000 C 
ATOM     16  C   UNL d   1      30.758 -17.154  -6.805  0.00  0.00     0.001 C 
ATOM     17  C   UNL d   1      30.274 -15.775  -6.858  0.00  0.00     0.009 C 
ENDBRANCH  11  12
ENDBRANCH  10  11
ENDBRANCH   3   6
ENDBRANCH   1   3
BRANCH   1  18
ATOM     18  C   UNL d   1      26.877 -10.849  -2.249  0.00  0.00     0.300 C 
BRANCH  18  19
ATOM     19  C   UNL d   1      26.733  -9.465  -2.612  0.00  0.00     0.078 C 
ATOM     20  C   UNL d   1      25.878  -8.525  -2.118  0.00  0.00     0.036 C 
ATOM     21  C   UNL d   1      25.969  -7.464  -3.035  0.00  0.00     0.027 C 
ATOM     22  C   UNL d   1      26.805  -7.874  -4.049  0.00  0.00     0.142 C 
ATOM     23  O   UNL d   1      27.388  -9.046  -3.711  0.00  0.00    -0.325 OA
ENDBRANCH  18  19
ENDBRANCH   1  18
BRANCH   1  24
ATOM     24  C   UNL d   1      27.931 -12.963  -2.631  0.00  0.00     0.252 C 
BRANCH  24  25
ATOM     25  C   UNL d   1      27.383 -14.289  -2.104  0.00  0.00     0.060 C 
ATOM     26  C   UNL d   1      27.908 -15.559  -1.793  0.00  0.00     0.024 C 
ATOM     27  C   UNL d   1      27.153 -16.611  -1.320  0.00  0.00     0.033 C 
ATOM     28  C   UNL d   1      25.908 -16.920  -1.810  0.00  0.00     0.024 C 
ATOM     29  C   UNL d   1      27.040 -16.432   0.026  0.00  0.00     0.114 C 
ATOM     30  C   UNL d   1      24.976 -17.508  -0.981  0.00  0.00     0.065 C 
ATOM     31  C   UNL d   1      25.447 -18.149   0.159  0.00  0.00     0.035 C 
ATOM     32  C   UNL d   1      26.656 -17.665   0.602  0.00  0.00     0.013 C 
ATOM     33  N   UNL d   1      26.458 -15.111   0.025  0.00  0.00    -0.268 NA
ATOM     34  C   UNL d   1      26.457 -14.191  -1.141  0.00  0.00     0.212 C 
BRANCH  30  35
ATOM     35  O   UNL d   1      23.694 -17.225  -1.298  0.00  0.00    -0.356 OA
ATOM     36  C   UNL d   1      22.774 -18.136  -0.749  0.00  0.00     0.210 C 
ENDBRANCH  30  35
BRANCH  34  37
ATOM     37  O   UNL d   1      25.278 -14.016  -1.979  0.00  0.00    -0.365 OA
ATOM     38  H   UNL d   1      25.294 -14.647  -2.748  0.00  0.00     0.212 HD
ENDBRANCH  34  37
ENDBRANCH  24  25
ENDBRANCH   1  24
TORSDOF 11
ENDMDL
MODEL 5
REMARK VINA RESULT:    -8.857      2.144      6.895
REMARK INTER + INTRA:         -16.838
REMARK INTER:                 -12.139
REMARK INTRA:                  -4.699
REMARK CONF_INDEPENDENT:        3.281
REMARK UNBOUND:                -4.699
REMARK  11 active torsions:
REMARK  status: ('A' for Active; 'I' for Inactive)
REMARK    1  A    between atoms: C_2  and  C_3 
REMARK    2  A    between atoms: C_3  and  C_4 
REMARK    3  A    between atoms: C_3  and  N_16 
REMARK    4  A    between atoms: N_8  and  C_9 
REMARK    5  A    between atoms: C_9  and  C_10 
REMARK    6  A    between atoms: N_16  and  C_17 
REMARK    7  A    between atoms: N_16  and  C_23 
REMARK    8  A    between atoms: C_17  and  C_18 
REMARK    9  A    between atoms: C_23  and  C_24 
REMARK   10  A    between atoms: C_28  and  O_29 
REMARK   11  A    between atoms: C_35  and  O_36 
ROOT
ATOM      1  N   UNL d   1      26.165 -14.209  -0.836  0.00  0.00    -0.053 N 
ATOM      2  H   UNL d   1      25.158 -14.134  -0.658  0.00  0.00     0.281 HD
ENDROOT
BRANCH   1   3
ATOM      3  C   UNL d   1      26.406 -13.524  -2.321  0.00  0.00     0.260 C 
BRANCH   3   4
ATOM      4  C   UNL d   1      27.701 -12.734  -2.236  0.00  0.00     0.037 C 
ATOM      5  C   UNL d   1      28.000 -11.742  -3.323  0.00  0.00     0.007 C 
ENDBRANCH   3   4
BRANCH   3   6
ATOM      6  C   UNL d   1      26.316 -14.438  -3.513  0.00  0.00     0.168 C 
ATOM      7  N   UNL d   1      25.192 -14.843  -4.081  0.00  0.00    -0.145 NA
ATOM      8  N   UNL d   1      25.535 -15.537  -5.204  0.00  0.00     0.018 NA
ATOM      9  N   UNL d   1      26.849 -15.576  -5.338  0.00  0.00    -0.003 NA
ATOM     10  N   UNL d   1      27.356 -15.063  -4.190  0.00  0.00    -0.257 N 
BRANCH  10  11
ATOM     11  C   UNL d   1      28.830 -15.021  -4.069  0.00  0.00     0.186 C 
BRANCH  11  12
ATOM     12  C   UNL d   1      29.506 -15.672  -2.802  0.00  0.00    -0.039 C 
ATOM     13  C   UNL d   1      30.124 -14.833  -1.887  0.00  0.00     0.009 C 
ATOM     14  C   UNL d   1      30.184 -15.083  -0.401  0.00  0.00     0.001 C 
ATOM     15  C   UNL d   1      29.744 -16.249   0.140  0.00  0.00     0.000 C 
ATOM     16  C   UNL d   1      29.396 -17.187  -0.811  0.00  0.00     0.001 C 
ATOM     17  C   UNL d   1      29.310 -16.921  -2.245  0.00  0.00     0.009 C 
ENDBRANCH  11  12
ENDBRANCH  10  11
ENDBRANCH   3   6
ENDBRANCH   1   3
BRANCH   1  18
ATOM     18  C   UNL d   1      26.643 -15.635  -0.830  0.00  0.00     0.300 C 
BRANCH  18  19
ATOM     19  C   UNL d   1      25.653 -16.631  -0.520  0.00  0.00     0.078 C 
ATOM     20  C   UNL d   1      25.792 -17.982  -0.399  0.00  0.00     0.036 C 
ATOM     21  C   UNL d   1      24.472 -18.463  -0.395  0.00  0.00     0.027 C 
ATOM     22  C   UNL d   1      23.645 -17.381  -0.593  0.00  0.00     0.142 C 
ATOM     23  O   UNL d   1      24.366 -16.239  -0.523  0.00  0.00    -0.325 OA
ENDBRANCH  18  19
ENDBRANCH   1  18
BRANCH   1  24
ATOM     24  C   UNL d   1      26.963 -13.499   0.200  0.00  0.00     0.252 C 
BRANCH  24  25
ATOM     25  C   UNL d   1      27.386 -13.745   1.648  0.00  0.00     0.060 C 
ATOM     26  C   UNL d   1      27.811 -14.850   2.412  0.00  0.00     0.024 C 
ATOM     27  C   UNL d   1      28.137 -14.781   3.750  0.00  0.00     0.033 C 
ATOM     28  C   UNL d   1      27.413 -14.053   4.662  0.00  0.00     0.024 C 
ATOM     29  C   UNL d   1      29.431 -14.361   3.812  0.00  0.00     0.114 C 
ATOM     30  C   UNL d   1      28.048 -13.515   5.761  0.00  0.00     0.065 C 
ATOM     31  C   UNL d   1      29.266 -14.070   6.134  0.00  0.00     0.035 C 
ATOM     32  C   UNL d   1      29.935 -14.675   5.096  0.00  0.00     0.013 C 
ATOM     33  N   UNL d   1      29.299 -13.129   3.071  0.00  0.00    -0.268 NA
ATOM     34  C   UNL d   1      28.144 -12.789   2.200  0.00  0.00     0.212 C 
BRANCH  30  35
ATOM     35  O   UNL d   1      27.478 -12.384   6.232  0.00  0.00    -0.356 OA
ATOM     36  C   UNL d   1      28.152 -11.217   5.830  0.00  0.00     0.210 C 
ENDBRANCH  30  35
BRANCH  34  37
ATOM     37  O   UNL d   1      27.087 -11.891   2.644  0.00  0.00    -0.365 OA
ATOM     38  H   UNL d   1      27.022 -11.885   3.637  0.00  0.00     0.212 HD
ENDBRANCH  34  37
ENDBRANCH  24  25
ENDBRANCH   1  24
TORSDOF 11
ENDMDL
MODEL 6
REMARK VINA RESULT:    -8.079      1.661      2.092
REMARK INTER + INTRA:         -17.120
REMARK INTER:                 -11.360
REMARK INTRA:                  -5.760
REMARK CONF_INDEPENDENT:        3.281
REMARK UNBOUND:                -5.760
REMARK  11 active torsions:
REMARK  status: ('A' for Active; 'I' for Inactive)
REMARK    1  A    between atoms: C_2  and  C_3 
REMARK    2  A    between atoms: C_3  and  C_4 
REMARK    3  A    between atoms: C_3  and  N_16 
REMARK    4  A    between atoms: N_8  and  C_9 
REMARK    5  A    between atoms: C_9  and  C_10 
REMARK    6  A    between atoms: N_16  and  C_17 
REMARK    7  A    between atoms: N_16  and  C_23 
REMARK    8  A    between atoms: C_17  and  C_18 
REMARK    9  A    between atoms: C_23  and  C_24 
REMARK   10  A    between atoms: C_28  and  O_29 
REMARK   11  A    between atoms: C_35  and  O_36 
ROOT
ATOM      1  N   UNL d   1      28.584 -16.906  -0.135  0.00  0.00    -0.053 N 
ATOM      2  H   UNL d   1      29.320 -17.616  -0.047  0.00  0.00     0.281 HD
ENDROOT
BRANCH   1   3
ATOM      3  C   UNL d   1      29.282 -15.483   0.333  0.00  0.00     0.260 C 
BRANCH   3   4
ATOM      4  C   UNL d   1      30.744 -15.556  -0.073  0.00  0.00     0.037 C 
ATOM      5  C   UNL d   1      31.751 -15.952   0.968  0.00  0.00     0.007 C 
ENDBRANCH   3   4
BRANCH   3   6
ATOM      6  C   UNL d   1      28.586 -14.216  -0.085  0.00  0.00     0.168 C 
ATOM      7  N   UNL d   1      28.823 -13.548  -1.202  0.00  0.00    -0.145 NA
ATOM      8  N   UNL d   1      27.898 -12.548  -1.277  0.00  0.00     0.018 NA
ATOM      9  N   UNL d   1      27.099 -12.579  -0.225  0.00  0.00    -0.003 NA
ATOM     10  N   UNL d   1      27.635 -13.492   0.622  0.00  0.00    -0.257 N 
BRANCH  10  11
ATOM     11  C   UNL d   1      26.938 -13.698   1.911  0.00  0.00     0.186 C 
BRANCH  11  12
ATOM     12  C   UNL d   1      27.790 -13.742   3.236  0.00  0.00    -0.039 C 
ATOM     13  C   UNL d   1      27.934 -12.567   3.959  0.00  0.00     0.009 C 
ATOM     14  C   UNL d   1      28.048 -12.493   5.461  0.00  0.00     0.001 C 
ATOM     15  C   UNL d   1      28.158 -13.616   6.219  0.00  0.00     0.000 C 
ATOM     16  C   UNL d   1      28.300 -14.764   5.465  0.00  0.00     0.001 C 
ATOM     17  C   UNL d   1      28.154 -14.825   4.012  0.00  0.00     0.009 C 
ENDBRANCH  11  12
ENDBRANCH  10  11
ENDBRANCH   3   6
ENDBRANCH   1   3
BRANCH   1  18
ATOM     18  C   UNL d   1      27.388 -17.213   0.724  0.00  0.00     0.300 C 
BRANCH  18  19
ATOM     19  C   UNL d   1      26.103 -17.025   0.107  0.00  0.00     0.078 C 
ATOM     20  C   UNL d   1      25.176 -17.954  -0.265  0.00  0.00     0.036 C 
ATOM     21  C   UNL d   1      24.279 -17.237  -1.074  0.00  0.00     0.027 C 
ATOM     22  C   UNL d   1      24.774 -15.958  -1.195  0.00  0.00     0.142 C 
ATOM     23  O   UNL d   1      25.815 -15.792  -0.348  0.00  0.00    -0.325 OA
ENDBRANCH  18  19
ENDBRANCH   1  18
BRANCH   1  24
ATOM     24  C   UNL d   1      28.079 -16.804  -1.531  0.00  0.00     0.252 C 
BRANCH  24  25
ATOM     25  C   UNL d   1      28.258 -15.856  -2.716  0.00  0.00     0.060 C 
ATOM     26  C   UNL d   1      29.214 -15.660  -3.731  0.00  0.00     0.024 C 
ATOM     27  C   UNL d   1      29.117 -14.689  -4.705  0.00  0.00     0.033 C 
ATOM     28  C   UNL d   1      28.697 -13.407  -4.446  0.00  0.00     0.024 C 
ATOM     29  C   UNL d   1      28.322 -15.201  -5.684  0.00  0.00     0.114 C 
ATOM     30  C   UNL d   1      28.046 -12.693  -5.430  0.00  0.00     0.065 C 
ATOM     31  C   UNL d   1      28.216 -13.110  -6.744  0.00  0.00     0.035 C 
ATOM     32  C   UNL d   1      28.531 -14.444  -6.861  0.00  0.00     0.013 C 
ATOM     33  N   UNL d   1      27.155 -15.497  -4.888  0.00  0.00    -0.268 NA
ATOM     34  C   UNL d   1      27.143 -15.575  -3.405  0.00  0.00     0.212 C 
BRANCH  30  35
ATOM     35  O   UNL d   1      27.172 -11.775  -4.962  0.00  0.00    -0.356 OA
ATOM     36  C   UNL d   1      25.911 -12.318  -4.656  0.00  0.00     0.210 C 
ENDBRANCH  30  35
BRANCH  34  37
ATOM     37  O   UNL d   1      26.640 -14.482  -2.584  0.00  0.00    -0.365 OA
ATOM     38  H   UNL d   1      27.032 -14.517  -1.670  0.00  0.00     0.212 HD
ENDBRANCH  34  37
ENDBRANCH  24  25
ENDBRANCH   1  24
TORSDOF 11
ENDMDL
MODEL 7
REMARK VINA RESULT:    -7.584      3.007      6.718
REMARK INTER + INTRA:         -17.002
REMARK INTER:                 -10.866
REMARK INTRA:                  -6.136
REMARK CONF_INDEPENDENT:        3.281
REMARK UNBOUND:                -6.136
REMARK  11 active torsions:
REMARK  status: ('A' for Active; 'I' for Inactive)
REMARK    1  A    between atoms: C_2  and  C_3 
REMARK    2  A    between atoms: C_3  and  C_4 
REMARK    3  A    between atoms: C_3  and  N_16 
REMARK    4  A    between atoms: N_8  and  C_9 
REMARK    5  A    between atoms: C_9  and  C_10 
REMARK    6  A    between atoms: N_16  and  C_17 
REMARK    7  A    between atoms: N_16  and  C_23 
REMARK    8  A    between atoms: C_17  and  C_18 
REMARK    9  A    between atoms: C_23  and  C_24 
REMARK   10  A    between atoms: C_28  and  O_29 
REMARK   11  A    between atoms: C_35  and  O_36 
ROOT
ATOM      1  N   UNL d   1      28.355 -13.041  -2.230  0.00  0.00    -0.053 N 
ATOM      2  H   UNL d   1      28.653 -12.106  -1.930  0.00  0.00     0.281 HD
ENDROOT
BRANCH   1   3
ATOM      3  C   UNL d   1      26.887 -12.825  -2.960  0.00  0.00     0.260 C 
BRANCH   3   4
ATOM      4  C   UNL d   1      26.896 -11.432  -3.563  0.00  0.00     0.037 C 
ATOM      5  C   UNL d   1      25.946 -11.138  -4.689  0.00  0.00     0.007 C 
ENDBRANCH   3   4
BRANCH   3   6
ATOM      6  C   UNL d   1      26.433 -13.906  -3.904  0.00  0.00     0.168 C 
ATOM      7  N   UNL d   1      26.812 -14.026  -5.166  0.00  0.00    -0.145 NA
ATOM      8  N   UNL d   1      26.296 -15.200  -5.631  0.00  0.00     0.018 NA
ATOM      9  N   UNL d   1      25.600 -15.805  -4.685  0.00  0.00    -0.003 NA
ATOM     10  N   UNL d   1      25.514 -14.919  -3.662  0.00  0.00    -0.257 N 
BRANCH  10  11
ATOM     11  C   UNL d   1      24.747 -15.345  -2.471  0.00  0.00     0.186 C 
BRANCH  11  12
ATOM     12  C   UNL d   1      25.206 -16.637  -1.693  0.00  0.00    -0.039 C 
ATOM     13  C   UNL d   1      26.556 -16.787  -1.416  0.00  0.00     0.009 C 
ATOM     14  C   UNL d   1      27.109 -17.465  -0.187  0.00  0.00     0.001 C 
ATOM     15  C   UNL d   1      26.297 -18.114   0.689  0.00  0.00     0.000 C 
ATOM     16  C   UNL d   1      24.991 -18.201   0.251  0.00  0.00     0.001 C 
ATOM     17  C   UNL d   1      24.463 -17.511  -0.924  0.00  0.00     0.009 C 
ENDBRANCH  11  12
ENDBRANCH  10  11
ENDBRANCH   3   6
ENDBRANCH   1   3
BRANCH   1  18
ATOM     18  C   UNL d   1      28.235 -14.001  -1.079  0.00  0.00     0.300 C 
BRANCH  18  19
ATOM     19  C   UNL d   1      27.790 -13.439   0.168  0.00  0.00     0.078 C 
ATOM     20  C   UNL d   1      27.137 -14.039   1.204  0.00  0.00     0.036 C 
ATOM     21  C   UNL d   1      26.694 -12.967   1.996  0.00  0.00     0.027 C 
ATOM     22  C   UNL d   1      27.040 -11.807   1.340  0.00  0.00     0.142 C 
ATOM     23  O   UNL d   1      27.842 -12.100   0.292  0.00  0.00    -0.325 OA
ENDBRANCH  18  19
ENDBRANCH   1  18
BRANCH   1  24
ATOM     24  C   UNL d   1      29.324 -13.650  -3.181  0.00  0.00     0.252 C 
BRANCH  24  25
ATOM     25  C   UNL d   1      29.932 -15.030  -3.424  0.00  0.00     0.060 C 
ATOM     26  C   UNL d   1      31.081 -15.728  -3.002  0.00  0.00     0.024 C 
ATOM     27  C   UNL d   1      31.392 -17.012  -3.398  0.00  0.00     0.033 C 
ATOM     28  C   UNL d   1      31.234 -17.458  -4.687  0.00  0.00     0.024 C 
ATOM     29  C   UNL d   1      30.699 -17.848  -2.577  0.00  0.00     0.114 C 
ATOM     30  C   UNL d   1      30.959 -18.789  -4.918  0.00  0.00     0.065 C 
ATOM     31  C   UNL d   1      31.273 -19.693  -3.909  0.00  0.00     0.035 C 
ATOM     32  C   UNL d   1      31.291 -19.130  -2.654  0.00  0.00     0.013 C 
ATOM     33  N   UNL d   1      29.367 -17.353  -2.832  0.00  0.00    -0.268 NA
ATOM     34  C   UNL d   1      29.061 -16.047  -3.470  0.00  0.00     0.212 C 
BRANCH  30  35
ATOM     35  O   UNL d   1      30.246 -19.022  -6.041  0.00  0.00    -0.356 OA
ATOM     36  C   UNL d   1      30.789 -18.401  -7.179  0.00  0.00     0.210 C 
ENDBRANCH  30  35
BRANCH  34  37
ATOM     37  O   UNL d   1      28.675 -15.951  -4.871  0.00  0.00    -0.365 OA
ATOM     38  H   UNL d   1      27.721 -15.681  -4.958  0.00  0.00     0.212 HD
ENDBRANCH  34  37
ENDBRANCH  24  25
ENDBRANCH   1  24
TORSDOF 11
ENDMDL
MODEL 8
REMARK VINA RESULT:    -7.470      3.248      7.570
REMARK INTER + INTRA:         -16.908
REMARK INTER:                 -10.751
REMARK INTRA:                  -6.157
REMARK CONF_INDEPENDENT:        3.281
REMARK UNBOUND:                -6.157
REMARK  11 active torsions:
REMARK  status: ('A' for Active; 'I' for Inactive)
REMARK    1  A    between atoms: C_2  and  C_3 
REMARK    2  A    between atoms: C_3  and  C_4 
REMARK    3  A    between atoms: C_3  and  N_16 
REMARK    4  A    between atoms: N_8  and  C_9 
REMARK    5  A    between atoms: C_9  and  C_10 
REMARK    6  A    between atoms: N_16  and  C_17 
REMARK    7  A    between atoms: N_16  and  C_23 
REMARK    8  A    between atoms: C_17  and  C_18 
REMARK    9  A    between atoms: C_23  and  C_24 
REMARK   10  A    between atoms: C_28  and  O_29 
REMARK   11  A    between atoms: C_35  and  O_36 
ROOT
ATOM      1  N   UNL d   1      29.315 -13.490  -4.169  0.00  0.00    -0.053 N 
ATOM      2  H   UNL d   1      30.212 -13.974  -4.286  0.00  0.00     0.281 HD
ENDROOT
BRANCH   1   3
ATOM      3  C   UNL d   1      28.345 -14.056  -5.382  0.00  0.00     0.260 C 
BRANCH   3   4
ATOM      4  C   UNL d   1      29.085 -15.210  -6.035  0.00  0.00     0.037 C 
ATOM      5  C   UNL d   1      29.588 -16.319  -5.156  0.00  0.00     0.007 C 
ENDBRANCH   3   4
BRANCH   3   6
ATOM      6  C   UNL d   1      26.916 -14.361  -5.021  0.00  0.00     0.168 C 
ATOM      7  N   UNL d   1      26.454 -15.551  -4.672  0.00  0.00    -0.145 NA
ATOM      8  N   UNL d   1      25.155 -15.382  -4.290  0.00  0.00     0.018 NA
ATOM      9  N   UNL d   1      24.802 -14.114  -4.404  0.00  0.00    -0.003 NA
ATOM     10  N   UNL d   1      25.828 -13.497  -5.041  0.00  0.00    -0.257 N 
BRANCH  10  11
ATOM     11  C   UNL d   1      25.669 -12.054  -5.324  0.00  0.00     0.186 C 
BRANCH  11  12
ATOM     12  C   UNL d   1      25.717 -11.035  -4.122  0.00  0.00    -0.039 C 
ATOM     13  C   UNL d   1      26.322 -11.442  -2.944  0.00  0.00     0.009 C 
ATOM     14  C   UNL d   1      27.081 -10.532  -2.010  0.00  0.00     0.001 C 
ATOM     15  C   UNL d   1      27.105  -9.186  -2.198  0.00  0.00     0.000 C 
ATOM     16  C   UNL d   1      26.264  -8.767  -3.210  0.00  0.00     0.001 C 
ATOM     17  C   UNL d   1      25.562  -9.662  -4.128  0.00  0.00     0.009 C 
ENDBRANCH  11  12
ENDBRANCH  10  11
ENDBRANCH   3   6
ENDBRANCH   1   3
BRANCH   1  18
ATOM     18  C   UNL d   1      29.455 -11.995  -4.260  0.00  0.00     0.300 C 
BRANCH  18  19
ATOM     19  C   UNL d   1      29.558 -11.450  -5.586  0.00  0.00     0.078 C 
ATOM     20  C   UNL d   1      28.765 -10.531  -6.208  0.00  0.00     0.036 C 
ATOM     21  C   UNL d   1      29.145 -10.610  -7.559  0.00  0.00     0.027 C 
ATOM     22  C   UNL d   1      30.074 -11.621  -7.661  0.00  0.00     0.142 C 
ATOM     23  O   UNL d   1      30.433 -12.035  -6.425  0.00  0.00    -0.325 OA
ENDBRANCH  18  19
ENDBRANCH   1  18
BRANCH   1  24
ATOM     24  C   UNL d   1      28.705 -13.771  -2.841  0.00  0.00     0.252 C 
BRANCH  24  25
ATOM     25  C   UNL d   1      27.903 -14.902  -2.198  0.00  0.00     0.060 C 
ATOM     26  C   UNL d   1      28.127 -16.254  -1.870  0.00  0.00     0.024 C 
ATOM     27  C   UNL d   1      27.188 -17.068  -1.275  0.00  0.00     0.033 C 
ATOM     28  C   UNL d   1      25.861 -17.068  -1.633  0.00  0.00     0.024 C 
ATOM     29  C   UNL d   1      27.261 -16.830   0.064  0.00  0.00     0.114 C 
ATOM     30  C   UNL d   1      24.903 -17.380  -0.691  0.00  0.00     0.065 C 
ATOM     31  C   UNL d   1      25.314 -18.087   0.432  0.00  0.00     0.035 C 
ATOM     32  C   UNL d   1      26.644 -17.910   0.737  0.00  0.00     0.013 C 
ATOM     33  N   UNL d   1      27.026 -15.406   0.047  0.00  0.00    -0.268 NA
ATOM     34  C   UNL d   1      27.133 -14.547  -1.160  0.00  0.00     0.212 C 
BRANCH  30  35
ATOM     35  O   UNL d   1      23.705 -16.793  -0.904  0.00  0.00    -0.356 OA
ATOM     36  C   UNL d   1      22.634 -17.704  -0.898  0.00  0.00     0.210 C 
ENDBRANCH  30  35
BRANCH  34  37
ATOM     37  O   UNL d   1      25.955 -14.105  -1.894  0.00  0.00    -0.365 OA
ATOM     38  H   UNL d   1      25.912 -14.540  -2.788  0.00  0.00     0.212 HD
ENDBRANCH  34  37
ENDBRANCH  24  25
ENDBRANCH   1  24
TORSDOF 11
ENDMDL
MODEL 9
REMARK VINA RESULT:    -7.297      2.793      5.856
REMARK INTER + INTRA:         -17.258
REMARK INTER:                 -10.578
REMARK INTRA:                  -6.680
REMARK CONF_INDEPENDENT:        3.281
REMARK UNBOUND:                -6.680
REMARK  11 active torsions:
REMARK  status: ('A' for Active; 'I' for Inactive)
REMARK    1  A    between atoms: C_2  and  C_3 
REMARK    2  A    between atoms: C_3  and  C_4 
REMARK    3  A    between atoms: C_3  and  N_16 
REMARK    4  A    between atoms: N_8  and  C_9 
REMARK    5  A    between atoms: C_9  and  C_10 
REMARK    6  A    between atoms: N_16  and  C_17 
REMARK    7  A    between atoms: N_16  and  C_23 
REMARK    8  A    between atoms: C_17  and  C_18 
REMARK    9  A    between atoms: C_23  and  C_24 
REMARK   10  A    between atoms: C_28  and  O_29 
REMARK   11  A    between atoms: C_35  and  O_36 
ROOT
ATOM      1  N   UNL d   1      28.854 -16.391   0.426  0.00  0.00    -0.053 N 
ATOM      2  H   UNL d   1      29.184 -16.677   1.355  0.00  0.00     0.281 HD
ENDROOT
BRANCH   1   3
ATOM      3  C   UNL d   1      27.860 -15.096   0.687  0.00  0.00     0.260 C 
BRANCH   3   4
ATOM      4  C   UNL d   1      27.783 -14.897   2.191  0.00  0.00     0.037 C 
ATOM      5  C   UNL d   1      27.373 -13.548   2.709  0.00  0.00     0.007 C 
ENDBRANCH   3   4
BRANCH   3   6
ATOM      6  C   UNL d   1      28.161 -13.842  -0.089  0.00  0.00     0.168 C 
ATOM      7  N   UNL d   1      29.246 -13.098   0.053  0.00  0.00    -0.145 NA
ATOM      8  N   UNL d   1      29.209 -12.143  -0.920  0.00  0.00     0.018 NA
ATOM      9  N   UNL d   1      28.120 -12.276  -1.656  0.00  0.00    -0.003 NA
ATOM     10  N   UNL d   1      27.360 -13.210  -1.032  0.00  0.00    -0.257 N 
BRANCH  10  11
ATOM     11  C   UNL d   1      26.052 -13.527  -1.645  0.00  0.00     0.186 C 
BRANCH  11  12
ATOM     12  C   UNL d   1      26.002 -13.908  -3.174  0.00  0.00    -0.039 C 
ATOM     13  C   UNL d   1      26.644 -13.074  -4.077  0.00  0.00     0.009 C 
ATOM     14  C   UNL d   1      27.311 -13.538  -5.347  0.00  0.00     0.001 C 
ATOM     15  C   UNL d   1      27.207 -14.824  -5.773  0.00  0.00     0.000 C 
ATOM     16  C   UNL d   1      26.330 -15.574  -5.015  0.00  0.00     0.001 C 
ATOM     17  C   UNL d   1      25.716 -15.122  -3.768  0.00  0.00     0.009 C 
ENDBRANCH  11  12
ENDBRANCH  10  11
ENDBRANCH   3   6
ENDBRANCH   1   3
BRANCH   1  18
ATOM     18  C   UNL d   1      28.111 -17.491  -0.281  0.00  0.00     0.300 C 
BRANCH  18  19
ATOM     19  C   UNL d   1      26.676 -17.422  -0.224  0.00  0.00     0.078 C 
ATOM     20  C   UNL d   1      25.799 -18.190   0.483  0.00  0.00     0.036 C 
ATOM     21  C   UNL d   1      24.546 -17.880  -0.073  0.00  0.00     0.027 C 
ATOM     22  C   UNL d   1      24.770 -17.016  -1.121  0.00  0.00     0.142 C 
ATOM     23  O   UNL d   1      26.064 -16.622  -1.117  0.00  0.00    -0.325 OA
ENDBRANCH  18  19
ENDBRANCH   1  18
BRANCH   1  24
ATOM     24  C   UNL d   1      29.981 -16.010  -0.467  0.00  0.00     0.252 C 
BRANCH  24  25
ATOM     25  C   UNL d   1      30.314 -16.118  -1.954  0.00  0.00     0.060 C 
ATOM     26  C   UNL d   1      31.082 -16.974  -2.769  0.00  0.00     0.024 C 
ATOM     27  C   UNL d   1      31.211 -16.829  -4.134  0.00  0.00     0.033 C 
ATOM     28  C   UNL d   1      31.380 -15.611  -4.745  0.00  0.00     0.024 C 
ATOM     29  C   UNL d   1      30.124 -17.430  -4.691  0.00  0.00     0.114 C 
ATOM     30  C   UNL d   1      30.906 -15.420  -6.026  0.00  0.00     0.065 C 
ATOM     31  C   UNL d   1      30.671 -16.552  -6.797  0.00  0.00     0.035 C 
ATOM     32  C   UNL d   1      30.410 -17.680  -6.053  0.00  0.00     0.013 C 
ATOM     33  N   UNL d   1      29.089 -16.686  -4.014  0.00  0.00    -0.268 NA
ATOM     34  C   UNL d   1      29.300 -15.865  -2.794  0.00  0.00     0.212 C 
BRANCH  30  35
ATOM     35  O   UNL d   1      30.557 -14.146  -6.305  0.00  0.00    -0.356 OA
ATOM     36  C   UNL d   1      30.807 -13.259  -5.243  0.00  0.00     0.210 C 
ENDBRANCH  30  35
BRANCH  34  37
ATOM     37  O   UNL d   1      29.416 -14.415  -2.856  0.00  0.00    -0.365 OA
ATOM     38  H   UNL d   1      29.365 -14.017  -1.945  0.00  0.00     0.212 HD
ENDBRANCH  34  37
ENDBRANCH  24  25
ENDBRANCH   1  24
TORSDOF 11
ENDMDL
