MODEL 1
REMARK VINA RESULT:    -9.833      0.000      0.000
REMARK INTER + INTRA:         -16.235
REMARK INTER:                 -13.412
REMARK INTRA:                  -2.823
REMARK CONF_INDEPENDENT:        3.580
REMARK UNBOUND:                -2.823
REMARK  12 active torsions:
REMARK  status: ('A' for Active; 'I' for Inactive)
REMARK    1  A    between atoms: C_2  and  O_3 
REMARK    2  A    between atoms: O_3  and  C_4 
REMARK    3  A    between atoms: C_4  and  C_6 
REMARK    4  A    between atoms: C_6  and  S_17 
REMARK    5  A    between atoms: N_7  and  N_8 
REMARK    6  A    between atoms: N_8  and  C_9 
REMARK    7  A    between atoms: C_12  and  O_13 
REMARK    8  A    between atoms: S_17  and  C_18 
REMARK    9  A    between atoms: C_21  and  C_22 
REMARK   10  A    between atoms: C_22  and  C_23 
REMARK   11  A    between atoms: C_23  and  C_24 
REMARK   12  A    between atoms: N_30  and  C_31 
ROOT
ATOM      1  C   UNL d   1      26.573 -16.813   0.045  0.00  0.00     0.202 A 
ATOM      2  N   UNL d   1      26.378 -17.775   0.921  0.00  0.00    -0.122 NA
ATOM      3  N   UNL d   1      25.209 -18.439   0.588  0.00  0.00    -0.134 NA
ATOM      4  C   UNL d   1      24.709 -17.901  -0.515  0.00  0.00     0.136 A 
ATOM      5  N   UNL d   1      25.563 -16.848  -0.900  0.00  0.00    -0.275 N 
ENDROOT
BRANCH   1   6
ATOM      6  S   UNL d   1      27.970 -15.738  -0.036  0.00  0.00    -0.022 SA
BRANCH   6   7
ATOM      7  C   UNL d   1      27.660 -14.585   1.243  0.00  0.00     0.196 C 
ATOM      8  N   UNL d   1      27.779 -14.887   2.496  0.00  0.00    -0.161 NA
BRANCH   7   9
ATOM      9  C   UNL d   1      27.234 -13.200   0.606  0.00  0.00     0.321 C 
ATOM     10  O   UNL d   1      26.649 -12.310   1.178  0.00  0.00    -0.257 OA
BRANCH   9  11
ATOM     11  O   UNL d   1      27.620 -13.140  -0.716  0.00  0.00    -0.316 OA
BRANCH  11  12
ATOM     12  C   UNL d   1      27.030 -12.129  -1.573  0.00  0.00     0.175 C 
ATOM     13  C   UNL d   1      27.930 -10.889  -1.627  0.00  0.00     0.034 C 
ENDBRANCH  11  12
ENDBRANCH   9  11
ENDBRANCH   7   9
BRANCH   8  14
ATOM     14  N   UNL d   1      27.424 -13.955   3.403  0.00  0.00    -0.277 N 
ATOM     15  H   UNL d   1      27.058 -13.045   3.107  0.00  0.00     0.189 HD
BRANCH  14  16
ATOM     16  C   UNL d   1      28.111 -13.885   4.620  0.00  0.00     0.050 A 
ATOM     17  C   UNL d   1      27.575 -13.081   5.628  0.00  0.00     0.034 A 
ATOM     18  C   UNL d   1      28.226 -12.952   6.854  0.00  0.00     0.039 A 
ATOM     19  C   UNL d   1      29.387 -13.682   7.114  0.00  0.00     0.068 A 
ATOM     20  C   UNL d   1      29.924 -14.488   6.109  0.00  0.00     0.039 A 
ATOM     21  C   UNL d   1      29.284 -14.596   4.873  0.00  0.00     0.034 A 
BRANCH  19  22
ATOM     22  O   UNL d   1      29.895 -13.545   8.377  0.00  0.00    -0.356 OA
ATOM     23  C   UNL d   1      31.307 -13.693   8.501  0.00  0.00     0.210 C 
ENDBRANCH  19  22
ENDBRANCH  14  16
ENDBRANCH   8  14
ENDBRANCH   6   7
ENDBRANCH   1   6
BRANCH   5  24
ATOM     24  C   UNL d   1      25.488 -16.068  -2.074  0.00  0.00     0.043 C 
ATOM     25  C   UNL d   1      26.628 -15.950  -2.874  0.00  0.00     0.030 C 
ATOM     26  C   UNL d   1      26.757 -14.828  -3.697  0.00  0.00     0.002 C 
ATOM     27  C   UNL d   1      25.694 -13.938  -3.848  0.00  0.00     0.000 C 
ATOM     28  C   UNL d   1      24.503 -14.149  -3.151  0.00  0.00     0.002 C 
ATOM     29  C   UNL d   1      24.402 -15.199  -2.237  0.00  0.00     0.030 C 
ENDBRANCH   5  24
BRANCH   4  30
ATOM     30  C   UNL d   1      23.454 -18.427  -1.208  0.00  0.00     0.085 C 
BRANCH  30  31
ATOM     31  C   UNL d   1      22.144 -18.028  -0.541  0.00  0.00     0.046 C 
BRANCH  31  32
ATOM     32  C   UNL d   1      21.063 -18.973  -0.151  0.00  0.00    -0.058 A 
ATOM     33  C   UNL d   1      20.070 -19.325  -1.092  0.00  0.00     0.007 A 
ATOM     34  C   UNL d   1      18.897 -19.928  -0.670  0.00  0.00     0.001 A 
ATOM     35  C   UNL d   1      18.779 -20.294   0.665  0.00  0.00     0.000 A 
ATOM     36  C   UNL d   1      19.792 -19.998   1.580  0.00  0.00     0.001 A 
ATOM     37  C   UNL d   1      20.926 -19.324   1.176  0.00  0.00     0.007 A 
ENDBRANCH  31  32
ENDBRANCH  30  31
ENDBRANCH   4  30
TORSDOF 12
ENDMDL
MODEL 2
REMARK VINA RESULT:    -9.357      1.456      1.914
REMARK INTER + INTRA:         -16.153
REMARK INTER:                 -12.936
REMARK INTRA:                  -3.216
REMARK CONF_INDEPENDENT:        3.580
REMARK UNBOUND:                -3.216
REMARK  12 active torsions:
REMARK  status: ('A' for Active; 'I' for Inactive)
REMARK    1  A    between atoms: C_2  and  O_3 
REMARK    2  A    between atoms: O_3  and  C_4 
REMARK    3  A    between atoms: C_4  and  C_6 
REMARK    4  A    between atoms: C_6  and  S_17 
REMARK    5  A    between atoms: N_7  and  N_8 
REMARK    6  A    between atoms: N_8  and  C_9 
REMARK    7  A    between atoms: C_12  and  O_13 
REMARK    8  A    between atoms: S_17  and  C_18 
REMARK    9  A    between atoms: C_21  and  C_22 
REMARK   10  A    between atoms: C_22  and  C_23 
REMARK   11  A    between atoms: C_23  and  C_24 
REMARK   12  A    between atoms: N_30  and  C_31 
ROOT
ATOM      1  C   UNL d   1      26.647 -17.482  -0.421  0.00  0.00     0.202 A 
ATOM      2  N   UNL d   1      26.248 -18.533   0.264  0.00  0.00    -0.122 NA
ATOM      3  N   UNL d   1      24.864 -18.520   0.317  0.00  0.00    -0.134 NA
ATOM      4  C   UNL d   1      24.418 -17.478  -0.368  0.00  0.00     0.136 A 
ATOM      5  N   UNL d   1      25.538 -16.783  -0.864  0.00  0.00    -0.275 N 
ENDROOT
BRANCH   1   6
ATOM      6  S   UNL d   1      28.309 -17.089  -0.860  0.00  0.00    -0.022 SA
BRANCH   6   7
ATOM      7  C   UNL d   1      28.626 -15.627   0.049  0.00  0.00     0.196 C 
ATOM      8  N   UNL d   1      28.167 -15.439   1.244  0.00  0.00    -0.161 NA
BRANCH   7   9
ATOM      9  C   UNL d   1      29.520 -14.654  -0.822  0.00  0.00     0.321 C 
ATOM     10  O   UNL d   1      29.839 -13.528  -0.519  0.00  0.00    -0.257 OA
BRANCH   9  11
ATOM     11  O   UNL d   1      29.892 -15.267  -1.999  0.00  0.00    -0.316 OA
BRANCH  11  12
ATOM     12  C   UNL d   1      29.565 -14.624  -3.258  0.00  0.00     0.175 C 
ATOM     13  C   UNL d   1      29.727 -15.614  -4.417  0.00  0.00     0.034 C 
ENDBRANCH  11  12
ENDBRANCH   9  11
ENDBRANCH   7   9
BRANCH   8  14
ATOM     14  N   UNL d   1      28.388 -14.239   1.820  0.00  0.00    -0.277 N 
ATOM     15  H   UNL d   1      28.932 -13.516   1.338  0.00  0.00     0.189 HD
BRANCH  14  16
ATOM     16  C   UNL d   1      28.503 -14.157   3.211  0.00  0.00     0.050 A 
ATOM     17  C   UNL d   1      27.367 -13.802   3.942  0.00  0.00     0.034 A 
ATOM     18  C   UNL d   1      27.425 -13.682   5.329  0.00  0.00     0.039 A 
ATOM     19  C   UNL d   1      28.605 -13.980   6.013  0.00  0.00     0.068 A 
ATOM     20  C   UNL d   1      29.742 -14.336   5.287  0.00  0.00     0.039 A 
ATOM     21  C   UNL d   1      29.688 -14.433   3.894  0.00  0.00     0.034 A 
BRANCH  19  22
ATOM     22  O   UNL d   1      28.526 -13.909   7.377  0.00  0.00    -0.356 OA
ATOM     23  C   UNL d   1      29.704 -13.474   8.049  0.00  0.00     0.210 C 
ENDBRANCH  19  22
ENDBRANCH  14  16
ENDBRANCH   8  14
ENDBRANCH   6   7
ENDBRANCH   1   6
BRANCH   5  24
ATOM     24  C   UNL d   1      25.544 -15.676  -1.741  0.00  0.00     0.043 C 
ATOM     25  C   UNL d   1      25.463 -15.910  -3.116  0.00  0.00     0.030 C 
ATOM     26  C   UNL d   1      25.978 -14.950  -3.991  0.00  0.00     0.002 C 
ATOM     27  C   UNL d   1      26.402 -13.712  -3.510  0.00  0.00     0.000 C 
ATOM     28  C   UNL d   1      26.342 -13.436  -2.143  0.00  0.00     0.002 C 
ATOM     29  C   UNL d   1      25.940 -14.427  -1.245  0.00  0.00     0.030 C 
ENDBRANCH   5  24
BRANCH   4  30
ATOM     30  C   UNL d   1      22.933 -17.187  -0.578  0.00  0.00     0.085 C 
BRANCH  30  31
ATOM     31  C   UNL d   1      22.138 -18.337  -1.183  0.00  0.00     0.046 C 
BRANCH  31  32
ATOM     32  C   UNL d   1      21.084 -19.111  -0.474  0.00  0.00    -0.058 A 
ATOM     33  C   UNL d   1      19.986 -19.624  -1.199  0.00  0.00     0.007 A 
ATOM     34  C   UNL d   1      18.851 -20.053  -0.531  0.00  0.00     0.001 A 
ATOM     35  C   UNL d   1      18.872 -20.093   0.858  0.00  0.00     0.000 A 
ATOM     36  C   UNL d   1      19.986 -19.642   1.570  0.00  0.00     0.001 A 
ATOM     37  C   UNL d   1      21.085 -19.138   0.906  0.00  0.00     0.007 A 
ENDBRANCH  31  32
ENDBRANCH  30  31
ENDBRANCH   4  30
TORSDOF 12
ENDMDL
MODEL 3
REMARK VINA RESULT:    -8.901      4.115      9.047
REMARK INTER + INTRA:         -15.621
REMARK INTER:                 -12.480
REMARK INTRA:                  -3.140
REMARK CONF_INDEPENDENT:        3.580
REMARK UNBOUND:                -3.140
REMARK  12 active torsions:
REMARK  status: ('A' for Active; 'I' for Inactive)
REMARK    1  A    between atoms: C_2  and  O_3 
REMARK    2  A    between atoms: O_3  and  C_4 
REMARK    3  A    between atoms: C_4  and  C_6 
REMARK    4  A    between atoms: C_6  and  S_17 
REMARK    5  A    between atoms: N_7  and  N_8 
REMARK    6  A    between atoms: N_8  and  C_9 
REMARK    7  A    between atoms: C_12  and  O_13 
REMARK    8  A    between atoms: S_17  and  C_18 
REMARK    9  A    between atoms: C_21  and  C_22 
REMARK   10  A    between atoms: C_22  and  C_23 
REMARK   11  A    between atoms: C_23  and  C_24 
REMARK   12  A    between atoms: N_30  and  C_31 
ROOT
ATOM      1  C   UNL d   1      25.695 -14.707  -3.881  0.00  0.00     0.202 A 
ATOM      2  N   UNL d   1      25.511 -15.670  -4.759  0.00  0.00    -0.122 NA
ATOM      3  N   UNL d   1      26.493 -15.570  -5.731  0.00  0.00    -0.134 NA
ATOM      4  C   UNL d   1      27.299 -14.565  -5.424  0.00  0.00     0.136 A 
ATOM      5  N   UNL d   1      26.820 -13.982  -4.234  0.00  0.00    -0.275 N 
ENDROOT
BRANCH   1   6
ATOM      6  S   UNL d   1      24.776 -14.452  -2.398  0.00  0.00    -0.022 SA
BRANCH   6   7
ATOM      7  C   UNL d   1      24.641 -16.066  -1.732  0.00  0.00     0.196 C 
ATOM      8  N   UNL d   1      23.507 -16.581  -1.382  0.00  0.00    -0.161 NA
BRANCH   7   9
ATOM      9  C   UNL d   1      26.080 -16.719  -1.651  0.00  0.00     0.321 C 
ATOM     10  O   UNL d   1      27.011 -16.470  -2.381  0.00  0.00    -0.257 OA
BRANCH   9  11
ATOM     11  O   UNL d   1      26.136 -17.634  -0.621  0.00  0.00    -0.316 OA
BRANCH  11  12
ATOM     12  C   UNL d   1      26.953 -17.332   0.540  0.00  0.00     0.175 C 
ATOM     13  C   UNL d   1      27.294 -15.838   0.574  0.00  0.00     0.034 C 
ENDBRANCH  11  12
ENDBRANCH   9  11
ENDBRANCH   7   9
BRANCH   8  14
ATOM     14  N   UNL d   1      23.523 -17.793  -0.792  0.00  0.00    -0.277 N 
ATOM     15  H   UNL d   1      24.302 -18.443  -0.945  0.00  0.00     0.189 HD
BRANCH  14  16
ATOM     16  C   UNL d   1      22.315 -18.454  -0.547  0.00  0.00     0.050 A 
ATOM     17  C   UNL d   1      21.607 -18.950  -1.645  0.00  0.00     0.034 A 
ATOM     18  C   UNL d   1      20.386 -19.598  -1.467  0.00  0.00     0.039 A 
ATOM     19  C   UNL d   1      19.886 -19.818  -0.182  0.00  0.00     0.068 A 
ATOM     20  C   UNL d   1      20.591 -19.325   0.916  0.00  0.00     0.039 A 
ATOM     21  C   UNL d   1      21.804 -18.655   0.734  0.00  0.00     0.034 A 
BRANCH  19  22
ATOM     22  O   UNL d   1      18.724 -20.536  -0.120  0.00  0.00    -0.356 OA
ATOM     23  C   UNL d   1      18.439 -21.156   1.130  0.00  0.00     0.210 C 
ENDBRANCH  19  22
ENDBRANCH  14  16
ENDBRANCH   8  14
ENDBRANCH   6   7
ENDBRANCH   1   6
BRANCH   5  24
ATOM     24  C   UNL d   1      27.425 -12.956  -3.476  0.00  0.00     0.043 C 
ATOM     25  C   UNL d   1      28.556 -13.262  -2.716  0.00  0.00     0.030 C 
ATOM     26  C   UNL d   1      28.849 -12.473  -1.600  0.00  0.00     0.002 C 
ATOM     27  C   UNL d   1      28.130 -11.304  -1.355  0.00  0.00     0.000 C 
ATOM     28  C   UNL d   1      27.091 -10.931  -2.210  0.00  0.00     0.002 C 
ATOM     29  C   UNL d   1      26.712 -11.770  -3.260  0.00  0.00     0.030 C 
ENDBRANCH   5  24
BRANCH   4  30
ATOM     30  C   UNL d   1      28.537 -14.204  -6.244  0.00  0.00     0.085 C 
BRANCH  30  31
ATOM     31  C   UNL d   1      29.823 -14.878  -5.785  0.00  0.00     0.046 C 
BRANCH  31  32
ATOM     32  C   UNL d   1      30.083 -16.342  -5.835  0.00  0.00    -0.058 A 
ATOM     33  C   UNL d   1      29.940 -17.118  -4.663  0.00  0.00     0.007 A 
ATOM     34  C   UNL d   1      30.481 -18.392  -4.603  0.00  0.00     0.001 A 
ATOM     35  C   UNL d   1      31.042 -18.931  -5.754  0.00  0.00     0.000 A 
ATOM     36  C   UNL d   1      31.125 -18.181  -6.929  0.00  0.00     0.001 A 
ATOM     37  C   UNL d   1      30.660 -16.882  -6.966  0.00  0.00     0.007 A 
ENDBRANCH  31  32
ENDBRANCH  30  31
ENDBRANCH   4  30
TORSDOF 12
ENDMDL
MODEL 4
REMARK VINA RESULT:    -8.688      2.091      5.905
REMARK INTER + INTRA:         -15.686
REMARK INTER:                 -12.268
REMARK INTRA:                  -3.418
REMARK CONF_INDEPENDENT:        3.580
REMARK UNBOUND:                -3.418
REMARK  12 active torsions:
REMARK  status: ('A' for Active; 'I' for Inactive)
REMARK    1  A    between atoms: C_2  and  O_3 
REMARK    2  A    between atoms: O_3  and  C_4 
REMARK    3  A    between atoms: C_4  and  C_6 
REMARK    4  A    between atoms: C_6  and  S_17 
REMARK    5  A    between atoms: N_7  and  N_8 
REMARK    6  A    between atoms: N_8  and  C_9 
REMARK    7  A    between atoms: C_12  and  O_13 
REMARK    8  A    between atoms: S_17  and  C_18 
REMARK    9  A    between atoms: C_21  and  C_22 
REMARK   10  A    between atoms: C_22  and  C_23 
REMARK   11  A    between atoms: C_23  and  C_24 
REMARK   12  A    between atoms: N_30  and  C_31 
ROOT
ATOM      1  C   UNL d   1      27.039 -16.569   0.039  0.00  0.00     0.202 A 
ATOM      2  N   UNL d   1      26.766 -17.546   0.878  0.00  0.00    -0.122 NA
ATOM      3  N   UNL d   1      25.494 -18.018   0.600  0.00  0.00    -0.134 NA
ATOM      4  C   UNL d   1      25.005 -17.350  -0.434  0.00  0.00     0.136 A 
ATOM      5  N   UNL d   1      25.973 -16.406  -0.828  0.00  0.00    -0.275 N 
ENDROOT
BRANCH   1   6
ATOM      6  S   UNL d   1      28.567 -15.698  -0.092  0.00  0.00    -0.022 SA
BRANCH   6   7
ATOM      7  C   UNL d   1      28.069 -14.020  -0.101  0.00  0.00     0.196 C 
ATOM      8  N   UNL d   1      28.273 -13.240  -1.112  0.00  0.00    -0.161 NA
BRANCH   7   9
ATOM      9  C   UNL d   1      27.371 -13.676   1.278  0.00  0.00     0.321 C 
ATOM     10  O   UNL d   1      26.701 -12.696   1.504  0.00  0.00    -0.257 OA
BRANCH   9  11
ATOM     11  O   UNL d   1      27.635 -14.657   2.209  0.00  0.00    -0.316 OA
BRANCH  11  12
ATOM     12  C   UNL d   1      28.371 -14.305   3.408  0.00  0.00     0.175 C 
ATOM     13  C   UNL d   1      27.418 -14.198   4.604  0.00  0.00     0.034 C 
ENDBRANCH  11  12
ENDBRANCH   9  11
ENDBRANCH   7   9
BRANCH   8  14
ATOM     14  N   UNL d   1      27.937 -11.940  -0.980  0.00  0.00    -0.277 N 
ATOM     15  H   UNL d   1      27.676 -11.554  -0.067  0.00  0.00     0.189 HD
BRANCH  14  16
ATOM     16  C   UNL d   1      27.300 -11.285  -2.039  0.00  0.00     0.050 A 
ATOM     17  C   UNL d   1      27.057  -9.916  -1.910  0.00  0.00     0.034 A 
ATOM     18  C   UNL d   1      26.406  -9.212  -2.922  0.00  0.00     0.039 A 
ATOM     19  C   UNL d   1      26.048  -9.856  -4.109  0.00  0.00     0.068 A 
ATOM     20  C   UNL d   1      26.290 -11.223  -4.241  0.00  0.00     0.039 A 
ATOM     21  C   UNL d   1      26.922 -11.932  -3.216  0.00  0.00     0.034 A 
BRANCH  19  22
ATOM     22  O   UNL d   1      25.491  -9.053  -5.066  0.00  0.00    -0.356 OA
ATOM     23  C   UNL d   1      24.246  -8.450  -4.727  0.00  0.00     0.210 C 
ENDBRANCH  19  22
ENDBRANCH  14  16
ENDBRANCH   8  14
ENDBRANCH   6   7
ENDBRANCH   1   6
BRANCH   5  24
ATOM     24  C   UNL d   1      25.934 -15.554  -1.953  0.00  0.00     0.043 C 
ATOM     25  C   UNL d   1      24.788 -14.785  -2.172  0.00  0.00     0.030 C 
ATOM     26  C   UNL d   1      24.498 -14.366  -3.473  0.00  0.00     0.002 C 
ATOM     27  C   UNL d   1      25.423 -14.561  -4.499  0.00  0.00     0.000 C 
ATOM     28  C   UNL d   1      26.633 -15.206  -4.235  0.00  0.00     0.002 C 
ATOM     29  C   UNL d   1      26.884 -15.733  -2.966  0.00  0.00     0.030 C 
ENDBRANCH   5  24
BRANCH   4  30
ATOM     30  C   UNL d   1      23.643 -17.652  -1.057  0.00  0.00     0.085 C 
BRANCH  30  31
ATOM     31  C   UNL d   1      22.986 -18.933  -0.561  0.00  0.00     0.046 C 
BRANCH  31  32
ATOM     32  C   UNL d   1      21.525 -19.114  -0.348  0.00  0.00    -0.058 A 
ATOM     33  C   UNL d   1      21.029 -19.318   0.959  0.00  0.00     0.007 A 
ATOM     34  C   UNL d   1      19.746 -19.806   1.147  0.00  0.00     0.001 A 
ATOM     35  C   UNL d   1      18.924 -19.962   0.038  0.00  0.00     0.000 A 
ATOM     36  C   UNL d   1      19.400 -19.699  -1.248  0.00  0.00     0.001 A 
ATOM     37  C   UNL d   1      20.704 -19.291  -1.443  0.00  0.00     0.007 A 
ENDBRANCH  31  32
ENDBRANCH  30  31
ENDBRANCH   4  30
TORSDOF 12
ENDMDL
MODEL 5
REMARK VINA RESULT:    -8.617      2.907      8.439
REMARK INTER + INTRA:         -15.397
REMARK INTER:                 -12.196
REMARK INTRA:                  -3.201
REMARK CONF_INDEPENDENT:        3.580
REMARK UNBOUND:                -3.201
REMARK  12 active torsions:
REMARK  status: ('A' for Active; 'I' for Inactive)
REMARK    1  A    between atoms: C_2  and  O_3 
REMARK    2  A    between atoms: O_3  and  C_4 
REMARK    3  A    between atoms: C_4  and  C_6 
REMARK    4  A    between atoms: C_6  and  S_17 
REMARK    5  A    between atoms: N_7  and  N_8 
REMARK    6  A    between atoms: N_8  and  C_9 
REMARK    7  A    between atoms: C_12  and  O_13 
REMARK    8  A    between atoms: S_17  and  C_18 
REMARK    9  A    between atoms: C_21  and  C_22 
REMARK   10  A    between atoms: C_22  and  C_23 
REMARK   11  A    between atoms: C_23  and  C_24 
REMARK   12  A    between atoms: N_30  and  C_31 
ROOT
ATOM      1  C   UNL d   1      27.070 -13.035  -0.002  0.00  0.00     0.202 A 
ATOM      2  N   UNL d   1      26.597 -12.229   0.924  0.00  0.00    -0.122 NA
ATOM      3  N   UNL d   1      27.032 -12.678   2.160  0.00  0.00    -0.134 NA
ATOM      4  C   UNL d   1      27.803 -13.740   1.982  0.00  0.00     0.136 A 
ATOM      5  N   UNL d   1      27.856 -14.003   0.599  0.00  0.00    -0.275 N 
ENDROOT
BRANCH   1   6
ATOM      6  S   UNL d   1      26.889 -12.847  -1.746  0.00  0.00    -0.022 SA
BRANCH   6   7
ATOM      7  C   UNL d   1      26.067 -14.317  -2.221  0.00  0.00     0.196 C 
ATOM      8  N   UNL d   1      26.137 -15.408  -1.528  0.00  0.00    -0.161 NA
BRANCH   7   9
ATOM      9  C   UNL d   1      25.279 -14.063  -3.570  0.00  0.00     0.321 C 
ATOM     10  O   UNL d   1      24.770 -13.018  -3.904  0.00  0.00    -0.257 OA
BRANCH   9  11
ATOM     11  O   UNL d   1      25.242 -15.212  -4.330  0.00  0.00    -0.316 OA
BRANCH  11  12
ATOM     12  C   UNL d   1      26.246 -15.402  -5.361  0.00  0.00     0.175 C 
ATOM     13  C   UNL d   1      27.347 -14.343  -5.230  0.00  0.00     0.034 C 
ENDBRANCH  11  12
ENDBRANCH   9  11
ENDBRANCH   7   9
BRANCH   8  14
ATOM     14  N   UNL d   1      25.546 -16.511  -2.032  0.00  0.00    -0.277 N 
ATOM     15  H   UNL d   1      25.524 -16.681  -3.043  0.00  0.00     0.189 HD
BRANCH  14  16
ATOM     16  C   UNL d   1      24.441 -17.058  -1.372  0.00  0.00     0.050 A 
ATOM     17  C   UNL d   1      24.561 -18.351  -0.857  0.00  0.00     0.034 A 
ATOM     18  C   UNL d   1      23.487 -18.959  -0.209  0.00  0.00     0.039 A 
ATOM     19  C   UNL d   1      22.297 -18.256  -0.008  0.00  0.00     0.068 A 
ATOM     20  C   UNL d   1      22.174 -16.964  -0.520  0.00  0.00     0.039 A 
ATOM     21  C   UNL d   1      23.244 -16.365  -1.190  0.00  0.00     0.034 A 
BRANCH  19  22
ATOM     22  O   UNL d   1      21.340 -18.918   0.712  0.00  0.00    -0.356 OA
ATOM     23  C   UNL d   1      20.319 -19.557  -0.048  0.00  0.00     0.210 C 
ENDBRANCH  19  22
ENDBRANCH  14  16
ENDBRANCH   8  14
ENDBRANCH   6   7
ENDBRANCH   1   6
BRANCH   5  24
ATOM     24  C   UNL d   1      28.646 -14.968  -0.062  0.00  0.00     0.043 C 
ATOM     25  C   UNL d   1      29.529 -14.543  -1.058  0.00  0.00     0.030 C 
ATOM     26  C   UNL d   1      29.908 -15.450  -2.051  0.00  0.00     0.002 C 
ATOM     27  C   UNL d   1      29.554 -16.795  -1.950  0.00  0.00     0.000 C 
ATOM     28  C   UNL d   1      28.789 -17.236  -0.868  0.00  0.00     0.002 C 
ATOM     29  C   UNL d   1      28.305 -16.320   0.068  0.00  0.00     0.030 C 
ENDBRANCH   5  24
BRANCH   4  30
ATOM     30  C   UNL d   1      28.512 -14.461   3.128  0.00  0.00     0.085 C 
BRANCH  30  31
ATOM     31  C   UNL d   1      27.779 -14.412   4.462  0.00  0.00     0.046 C 
BRANCH  31  32
ATOM     32  C   UNL d   1      28.345 -13.871   5.726  0.00  0.00    -0.058 A 
ATOM     33  C   UNL d   1      27.815 -12.684   6.279  0.00  0.00     0.007 A 
ATOM     34  C   UNL d   1      28.520 -11.995   7.251  0.00  0.00     0.001 A 
ATOM     35  C   UNL d   1      29.681 -12.563   7.760  0.00  0.00     0.000 A 
ATOM     36  C   UNL d   1      30.168 -13.770   7.253  0.00  0.00     0.001 A 
ATOM     37  C   UNL d   1      29.510 -14.416   6.227  0.00  0.00     0.007 A 
ENDBRANCH  31  32
ENDBRANCH  30  31
ENDBRANCH   4  30
TORSDOF 12
ENDMDL
MODEL 6
REMARK VINA RESULT:    -8.446      3.722      8.097
REMARK INTER + INTRA:         -15.259
REMARK INTER:                 -12.025
REMARK INTRA:                  -3.234
REMARK CONF_INDEPENDENT:        3.580
REMARK UNBOUND:                -3.234
REMARK  12 active torsions:
REMARK  status: ('A' for Active; 'I' for Inactive)
REMARK    1  A    between atoms: C_2  and  O_3 
REMARK    2  A    between atoms: O_3  and  C_4 
REMARK    3  A    between atoms: C_4  and  C_6 
REMARK    4  A    between atoms: C_6  and  S_17 
REMARK    5  A    between atoms: N_7  and  N_8 
REMARK    6  A    between atoms: N_8  and  C_9 
REMARK    7  A    between atoms: C_12  and  O_13 
REMARK    8  A    between atoms: S_17  and  C_18 
REMARK    9  A    between atoms: C_21  and  C_22 
REMARK   10  A    between atoms: C_22  and  C_23 
REMARK   11  A    between atoms: C_23  and  C_24 
REMARK   12  A    between atoms: N_30  and  C_31 
ROOT
ATOM      1  C   UNL d   1      26.667 -13.458  -1.013  0.00  0.00     0.202 A 
ATOM      2  N   UNL d   1      27.302 -12.438  -0.477  0.00  0.00    -0.122 NA
ATOM      3  N   UNL d   1      27.739 -12.809   0.784  0.00  0.00    -0.134 NA
ATOM      4  C   UNL d   1      27.399 -14.071   1.001  0.00  0.00     0.136 A 
ATOM      5  N   UNL d   1      26.707 -14.529  -0.137  0.00  0.00    -0.275 N 
ENDROOT
BRANCH   1   6
ATOM      6  S   UNL d   1      26.004 -13.537  -2.646  0.00  0.00    -0.022 SA
BRANCH   6   7
ATOM      7  C   UNL d   1      27.017 -14.729  -3.430  0.00  0.00     0.196 C 
ATOM      8  N   UNL d   1      28.132 -15.139  -2.918  0.00  0.00    -0.161 NA
BRANCH   7   9
ATOM      9  C   UNL d   1      26.343 -15.172  -4.792  0.00  0.00     0.321 C 
ATOM     10  O   UNL d   1      25.155 -15.264  -4.995  0.00  0.00    -0.257 OA
BRANCH   9  11
ATOM     11  O   UNL d   1      27.307 -15.450  -5.738  0.00  0.00    -0.316 OA
BRANCH  11  12
ATOM     12  C   UNL d   1      28.107 -14.360  -6.265  0.00  0.00     0.175 C 
ATOM     13  C   UNL d   1      29.582 -14.770  -6.332  0.00  0.00     0.034 C 
ENDBRANCH  11  12
ENDBRANCH   9  11
ENDBRANCH   7   9
BRANCH   8  14
ATOM     14  N   UNL d   1      28.884 -15.988  -3.648  0.00  0.00    -0.277 N 
ATOM     15  H   UNL d   1      28.586 -16.284  -4.584  0.00  0.00     0.189 HD
BRANCH  14  16
ATOM     16  C   UNL d   1      29.648 -16.961  -2.997  0.00  0.00     0.050 A 
ATOM     17  C   UNL d   1      30.418 -17.823  -3.783  0.00  0.00     0.034 A 
ATOM     18  C   UNL d   1      31.182 -18.828  -3.193  0.00  0.00     0.039 A 
ATOM     19  C   UNL d   1      31.242 -18.943  -1.803  0.00  0.00     0.068 A 
ATOM     20  C   UNL d   1      30.476 -18.083  -1.015  0.00  0.00     0.039 A 
ATOM     21  C   UNL d   1      29.691 -17.091  -1.609  0.00  0.00     0.034 A 
BRANCH  19  22
ATOM     22  O   UNL d   1      32.087 -19.909  -1.330  0.00  0.00    -0.356 OA
ATOM     23  C   UNL d   1      31.564 -20.749  -0.305  0.00  0.00     0.210 C 
ENDBRANCH  19  22
ENDBRANCH  14  16
ENDBRANCH   8  14
ENDBRANCH   6   7
ENDBRANCH   1   6
BRANCH   5  24
ATOM     24  C   UNL d   1      26.257 -15.841  -0.399  0.00  0.00     0.043 C 
ATOM     25  C   UNL d   1      24.966 -16.019  -0.902  0.00  0.00     0.030 C 
ATOM     26  C   UNL d   1      24.320 -17.238  -0.679  0.00  0.00     0.002 C 
ATOM     27  C   UNL d   1      25.014 -18.312  -0.123  0.00  0.00     0.000 C 
ATOM     28  C   UNL d   1      26.353 -18.163   0.244  0.00  0.00     0.002 C 
ATOM     29  C   UNL d   1      26.976 -16.918   0.136  0.00  0.00     0.030 C 
ENDBRANCH   5  24
BRANCH   4  30
ATOM     30  C   UNL d   1      27.778 -14.834   2.270  0.00  0.00     0.085 C 
BRANCH  30  31
ATOM     31  C   UNL d   1      28.771 -14.114   3.173  0.00  0.00     0.046 C 
BRANCH  31  32
ATOM     32  C   UNL d   1      28.553 -13.814   4.613  0.00  0.00    -0.058 A 
ATOM     33  C   UNL d   1      27.779 -12.691   4.983  0.00  0.00     0.007 A 
ATOM     34  C   UNL d   1      27.832 -12.210   6.281  0.00  0.00     0.001 A 
ATOM     35  C   UNL d   1      28.548 -12.928   7.230  0.00  0.00     0.000 A 
ATOM     36  C   UNL d   1      29.261 -14.074   6.870  0.00  0.00     0.001 A 
ATOM     37  C   UNL d   1      29.276 -14.508   5.560  0.00  0.00     0.007 A 
ENDBRANCH  31  32
ENDBRANCH  30  31
ENDBRANCH   4  30
TORSDOF 12
ENDMDL
MODEL 7
REMARK VINA RESULT:    -8.203      4.729      8.215
REMARK INTER + INTRA:         -15.464
REMARK INTER:                 -11.783
REMARK INTRA:                  -3.681
REMARK CONF_INDEPENDENT:        3.580
REMARK UNBOUND:                -3.681
REMARK  12 active torsions:
REMARK  status: ('A' for Active; 'I' for Inactive)
REMARK    1  A    between atoms: C_2  and  O_3 
REMARK    2  A    between atoms: O_3  and  C_4 
REMARK    3  A    between atoms: C_4  and  C_6 
REMARK    4  A    between atoms: C_6  and  S_17 
REMARK    5  A    between atoms: N_7  and  N_8 
REMARK    6  A    between atoms: N_8  and  C_9 
REMARK    7  A    between atoms: C_12  and  O_13 
REMARK    8  A    between atoms: S_17  and  C_18 
REMARK    9  A    between atoms: C_21  and  C_22 
REMARK   10  A    between atoms: C_22  and  C_23 
REMARK   11  A    between atoms: C_23  and  C_24 
REMARK   12  A    between atoms: N_30  and  C_31 
ROOT
ATOM      1  C   UNL d   1      29.331 -15.462  -1.826  0.00  0.00     0.202 A 
ATOM      2  N   UNL d   1      30.102 -16.352  -1.239  0.00  0.00    -0.122 NA
ATOM      3  N   UNL d   1      29.330 -17.082  -0.351  0.00  0.00    -0.134 NA
ATOM      4  C   UNL d   1      28.076 -16.660  -0.425  0.00  0.00     0.136 A 
ATOM      5  N   UNL d   1      28.034 -15.615  -1.369  0.00  0.00    -0.275 N 
ENDROOT
BRANCH   1   6
ATOM      6  S   UNL d   1      29.805 -14.351  -3.111  0.00  0.00    -0.022 SA
BRANCH   6   7
ATOM      7  C   UNL d   1      29.506 -15.275  -4.567  0.00  0.00     0.196 C 
ATOM      8  N   UNL d   1      30.301 -16.212  -4.972  0.00  0.00    -0.161 NA
BRANCH   7   9
ATOM      9  C   UNL d   1      28.164 -14.770  -5.239  0.00  0.00     0.321 C 
ATOM     10  O   UNL d   1      27.443 -15.424  -5.955  0.00  0.00    -0.257 OA
BRANCH   9  11
ATOM     11  O   UNL d   1      27.921 -13.456  -4.898  0.00  0.00    -0.316 OA
BRANCH  11  12
ATOM     12  C   UNL d   1      27.786 -12.472  -5.956  0.00  0.00     0.175 C 
ATOM     13  C   UNL d   1      28.534 -12.936  -7.211  0.00  0.00     0.034 C 
ENDBRANCH  11  12
ENDBRANCH   9  11
ENDBRANCH   7   9
BRANCH   8  14
ATOM     14  N   UNL d   1      30.029 -16.797  -6.156  0.00  0.00    -0.277 N 
ATOM     15  H   UNL d   1      29.180 -16.558  -6.679  0.00  0.00     0.189 HD
BRANCH  14  16
ATOM     16  C   UNL d   1      30.444 -18.114  -6.382  0.00  0.00     0.050 A 
ATOM     17  C   UNL d   1      30.942 -18.435  -7.647  0.00  0.00     0.034 A 
ATOM     18  C   UNL d   1      31.350 -19.735  -7.940  0.00  0.00     0.039 A 
ATOM     19  C   UNL d   1      31.330 -20.719  -6.950  0.00  0.00     0.068 A 
ATOM     20  C   UNL d   1      30.834 -20.401  -5.684  0.00  0.00     0.039 A 
ATOM     21  C   UNL d   1      30.403 -19.103  -5.400  0.00  0.00     0.034 A 
BRANCH  19  22
ATOM     22  O   UNL d   1      31.830 -21.936  -7.322  0.00  0.00    -0.356 OA
ATOM     23  C   UNL d   1      32.412 -22.716  -6.282  0.00  0.00     0.210 C 
ENDBRANCH  19  22
ENDBRANCH  14  16
ENDBRANCH   8  14
ENDBRANCH   6   7
ENDBRANCH   1   6
BRANCH   5  24
ATOM     24  C   UNL d   1      26.891 -14.942  -1.855  0.00  0.00     0.043 C 
ATOM     25  C   UNL d   1      26.046 -15.612  -2.742  0.00  0.00     0.030 C 
ATOM     26  C   UNL d   1      25.256 -14.860  -3.616  0.00  0.00     0.002 C 
ATOM     27  C   UNL d   1      25.184 -13.473  -3.484  0.00  0.00     0.000 C 
ATOM     28  C   UNL d   1      25.927 -12.826  -2.494  0.00  0.00     0.002 C 
ATOM     29  C   UNL d   1      26.809 -13.553  -1.692  0.00  0.00     0.030 C 
ENDBRANCH   5  24
BRANCH   4  30
ATOM     30  C   UNL d   1      26.933 -17.287   0.371  0.00  0.00     0.085 C 
BRANCH  30  31
ATOM     31  C   UNL d   1      25.951 -18.102  -0.460  0.00  0.00     0.046 C 
BRANCH  31  32
ATOM     32  C   UNL d   1      24.473 -17.945  -0.430  0.00  0.00    -0.058 A 
ATOM     33  C   UNL d   1      23.646 -19.087  -0.519  0.00  0.00     0.007 A 
ATOM     34  C   UNL d   1      22.301 -18.949  -0.818  0.00  0.00     0.001 A 
ATOM     35  C   UNL d   1      21.763 -17.671  -0.895  0.00  0.00     0.000 A 
ATOM     36  C   UNL d   1      22.574 -16.544  -0.744  0.00  0.00     0.001 A 
ATOM     37  C   UNL d   1      23.930 -16.680  -0.527  0.00  0.00     0.007 A 
ENDBRANCH  31  32
ENDBRANCH  30  31
ENDBRANCH   4  30
TORSDOF 12
ENDMDL
MODEL 8
REMARK VINA RESULT:    -7.862      3.268      7.167
REMARK INTER + INTRA:         -15.192
REMARK INTER:                 -11.441
REMARK INTRA:                  -3.751
REMARK CONF_INDEPENDENT:        3.580
REMARK UNBOUND:                -3.751
REMARK  12 active torsions:
REMARK  status: ('A' for Active; 'I' for Inactive)
REMARK    1  A    between atoms: C_2  and  O_3 
REMARK    2  A    between atoms: O_3  and  C_4 
REMARK    3  A    between atoms: C_4  and  C_6 
REMARK    4  A    between atoms: C_6  and  S_17 
REMARK    5  A    between atoms: N_7  and  N_8 
REMARK    6  A    between atoms: N_8  and  C_9 
REMARK    7  A    between atoms: C_12  and  O_13 
REMARK    8  A    between atoms: S_17  and  C_18 
REMARK    9  A    between atoms: C_21  and  C_22 
REMARK   10  A    between atoms: C_22  and  C_23 
REMARK   11  A    between atoms: C_23  and  C_24 
REMARK   12  A    between atoms: N_30  and  C_31 
ROOT
ATOM      1  C   UNL d   1      26.026 -14.502  -4.673  0.00  0.00     0.202 A 
ATOM      2  N   UNL d   1      26.334 -15.558  -5.395  0.00  0.00    -0.122 NA
ATOM      3  N   UNL d   1      27.438 -15.249  -6.173  0.00  0.00    -0.134 NA
ATOM      4  C   UNL d   1      27.824 -14.012  -5.897  0.00  0.00     0.136 A 
ATOM      5  N   UNL d   1      26.939 -13.495  -4.931  0.00  0.00    -0.275 N 
ENDROOT
BRANCH   1   6
ATOM      6  S   UNL d   1      24.761 -14.405  -3.448  0.00  0.00    -0.022 SA
BRANCH   6   7
ATOM      7  C   UNL d   1      25.557 -14.997  -2.006  0.00  0.00     0.196 C 
ATOM      8  N   UNL d   1      26.711 -14.557  -1.618  0.00  0.00    -0.161 NA
BRANCH   7   9
ATOM      9  C   UNL d   1      24.649 -16.099  -1.324  0.00  0.00     0.321 C 
ATOM     10  O   UNL d   1      23.455 -16.024  -1.154  0.00  0.00    -0.257 OA
BRANCH   9  11
ATOM     11  O   UNL d   1      25.413 -17.179  -0.935  0.00  0.00    -0.316 OA
BRANCH  11  12
ATOM     12  C   UNL d   1      24.919 -18.043   0.121  0.00  0.00     0.175 C 
ATOM     13  C   UNL d   1      23.654 -18.775  -0.341  0.00  0.00     0.034 C 
ENDBRANCH  11  12
ENDBRANCH   9  11
ENDBRANCH   7   9
BRANCH   8  14
ATOM     14  N   UNL d   1      27.280 -15.148  -0.548  0.00  0.00    -0.277 N 
ATOM     15  H   UNL d   1      27.264 -16.168  -0.439  0.00  0.00     0.189 HD
BRANCH  14  16
ATOM     16  C   UNL d   1      27.292 -14.479   0.680  0.00  0.00     0.050 A 
ATOM     17  C   UNL d   1      27.999 -15.060   1.735  0.00  0.00     0.034 A 
ATOM     18  C   UNL d   1      28.029 -14.452   2.989  0.00  0.00     0.039 A 
ATOM     19  C   UNL d   1      27.408 -13.217   3.187  0.00  0.00     0.068 A 
ATOM     20  C   UNL d   1      26.703 -12.633   2.135  0.00  0.00     0.039 A 
ATOM     21  C   UNL d   1      26.654 -13.256   0.885  0.00  0.00     0.034 A 
BRANCH  19  22
ATOM     22  O   UNL d   1      27.571 -12.673   4.432  0.00  0.00    -0.356 OA
ATOM     23  C   UNL d   1      27.889 -13.587   5.477  0.00  0.00     0.210 C 
ENDBRANCH  19  22
ENDBRANCH  14  16
ENDBRANCH   8  14
ENDBRANCH   6   7
ENDBRANCH   1   6
BRANCH   5  24
ATOM     24  C   UNL d   1      27.030 -12.257  -4.259  0.00  0.00     0.043 C 
ATOM     25  C   UNL d   1      27.916 -12.140  -3.184  0.00  0.00     0.030 C 
ATOM     26  C   UNL d   1      27.665 -11.172  -2.209  0.00  0.00     0.002 C 
ATOM     27  C   UNL d   1      26.654 -10.229  -2.395  0.00  0.00     0.000 C 
ATOM     28  C   UNL d   1      25.867 -10.268  -3.547  0.00  0.00     0.002 C 
ATOM     29  C   UNL d   1      26.029 -11.300  -4.473  0.00  0.00     0.030 C 
ENDBRANCH   5  24
BRANCH   4  30
ATOM     30  C   UNL d   1      29.055 -13.360  -6.525  0.00  0.00     0.085 C 
BRANCH  30  31
ATOM     31  C   UNL d   1      30.360 -14.111  -6.296  0.00  0.00     0.046 C 
BRANCH  31  32
ATOM     32  C   UNL d   1      30.469 -15.463  -5.684  0.00  0.00    -0.058 A 
ATOM     33  C   UNL d   1      30.628 -16.595  -6.514  0.00  0.00     0.007 A 
ATOM     34  C   UNL d   1      30.407 -17.865  -6.006  0.00  0.00     0.001 A 
ATOM     35  C   UNL d   1      30.161 -18.004  -4.646  0.00  0.00     0.000 A 
ATOM     36  C   UNL d   1      30.067 -16.883  -3.818  0.00  0.00     0.001 A 
ATOM     37  C   UNL d   1      30.206 -15.613  -4.338  0.00  0.00     0.007 A 
ENDBRANCH  31  32
ENDBRANCH  30  31
ENDBRANCH   4  30
TORSDOF 12
ENDMDL
MODEL 9
REMARK VINA RESULT:    -7.287      4.254      6.798
REMARK INTER + INTRA:         -15.210
REMARK INTER:                 -10.866
REMARK INTRA:                  -4.344
REMARK CONF_INDEPENDENT:        3.580
REMARK UNBOUND:                -4.344
REMARK  12 active torsions:
REMARK  status: ('A' for Active; 'I' for Inactive)
REMARK    1  A    between atoms: C_2  and  O_3 
REMARK    2  A    between atoms: O_3  and  C_4 
REMARK    3  A    between atoms: C_4  and  C_6 
REMARK    4  A    between atoms: C_6  and  S_17 
REMARK    5  A    between atoms: N_7  and  N_8 
REMARK    6  A    between atoms: N_8  and  C_9 
REMARK    7  A    between atoms: C_12  and  O_13 
REMARK    8  A    between atoms: S_17  and  C_18 
REMARK    9  A    between atoms: C_21  and  C_22 
REMARK   10  A    between atoms: C_22  and  C_23 
REMARK   11  A    between atoms: C_23  and  C_24 
REMARK   12  A    between atoms: N_30  and  C_31 
ROOT
ATOM      1  C   UNL d   1      27.221 -13.867  -0.198  0.00  0.00     0.202 A 
ATOM      2  N   UNL d   1      27.868 -14.216   0.894  0.00  0.00    -0.122 NA
ATOM      3  N   UNL d   1      27.854 -15.598   0.987  0.00  0.00    -0.134 NA
ATOM      4  C   UNL d   1      27.226 -16.093  -0.069  0.00  0.00     0.136 A 
ATOM      5  N   UNL d   1      26.804 -15.007  -0.861  0.00  0.00    -0.275 N 
ENDROOT
BRANCH   1   6
ATOM      6  S   UNL d   1      27.037 -12.229  -0.827  0.00  0.00    -0.022 SA
BRANCH   6   7
ATOM      7  C   UNL d   1      27.745 -12.335  -2.424  0.00  0.00     0.196 C 
ATOM      8  N   UNL d   1      28.786 -13.060  -2.677  0.00  0.00    -0.161 NA
BRANCH   7   9
ATOM      9  C   UNL d   1      26.914 -11.432  -3.424  0.00  0.00     0.321 C 
ATOM     10  O   UNL d   1      26.040 -10.656  -3.114  0.00  0.00    -0.257 OA
BRANCH   9  11
ATOM     11  O   UNL d   1      27.321 -11.652  -4.722  0.00  0.00    -0.316 OA
BRANCH  11  12
ATOM     12  C   UNL d   1      26.353 -11.504  -5.794  0.00  0.00     0.175 C 
ATOM     13  C   UNL d   1      25.806 -10.072  -5.820  0.00  0.00     0.034 C 
ENDBRANCH  11  12
ENDBRANCH   9  11
ENDBRANCH   7   9
BRANCH   8  14
ATOM     14  N   UNL d   1      29.309 -12.997  -3.918  0.00  0.00    -0.277 N 
ATOM     15  H   UNL d   1      29.077 -12.221  -4.548  0.00  0.00     0.189 HD
BRANCH  14  16
ATOM     16  C   UNL d   1      29.585 -14.182  -4.607  0.00  0.00     0.050 A 
ATOM     17  C   UNL d   1      30.000 -15.290  -3.864  0.00  0.00     0.034 A 
ATOM     18  C   UNL d   1      30.312 -16.492  -4.496  0.00  0.00     0.039 A 
ATOM     19  C   UNL d   1      30.147 -16.625  -5.876  0.00  0.00     0.068 A 
ATOM     20  C   UNL d   1      29.732 -15.520  -6.622  0.00  0.00     0.039 A 
ATOM     21  C   UNL d   1      29.443 -14.309  -5.989  0.00  0.00     0.034 A 
BRANCH  19  22
ATOM     22  O   UNL d   1      30.402 -17.871  -6.380  0.00  0.00    -0.356 OA
ATOM     23  C   UNL d   1      30.438 -18.932  -5.431  0.00  0.00     0.210 C 
ENDBRANCH  19  22
ENDBRANCH  14  16
ENDBRANCH   8  14
ENDBRANCH   6   7
ENDBRANCH   1   6
BRANCH   5  24
ATOM     24  C   UNL d   1      26.196 -15.058  -2.135  0.00  0.00     0.043 C 
ATOM     25  C   UNL d   1      26.873 -15.699  -3.175  0.00  0.00     0.030 C 
ATOM     26  C   UNL d   1      26.586 -15.329  -4.492  0.00  0.00     0.002 C 
ATOM     27  C   UNL d   1      25.525 -14.467  -4.767  0.00  0.00     0.000 C 
ATOM     28  C   UNL d   1      24.761 -13.944  -3.721  0.00  0.00     0.002 C 
ATOM     29  C   UNL d   1      25.110 -14.212  -2.396  0.00  0.00     0.030 C 
ENDBRANCH   5  24
BRANCH   4  30
ATOM     30  C   UNL d   1      27.079 -17.591  -0.330  0.00  0.00     0.085 C 
BRANCH  30  31
ATOM     31  C   UNL d   1      25.808 -18.213   0.233  0.00  0.00     0.046 C 
BRANCH  31  32
ATOM     32  C   UNL d   1      24.446 -18.031  -0.336  0.00  0.00    -0.058 A 
ATOM     33  C   UNL d   1      23.914 -16.730  -0.476  0.00  0.00     0.007 A 
ATOM     34  C   UNL d   1      22.557 -16.553  -0.689  0.00  0.00     0.001 A 
ATOM     35  C   UNL d   1      21.763 -17.675  -0.892  0.00  0.00     0.000 A 
ATOM     36  C   UNL d   1      22.307 -18.959  -0.814  0.00  0.00     0.001 A 
ATOM     37  C   UNL d   1      23.643 -19.138  -0.521  0.00  0.00     0.007 A 
ENDBRANCH  31  32
ENDBRANCH  30  31
ENDBRANCH   4  30
TORSDOF 12
ENDMDL
