MODEL 1
REMARK VINA RESULT:   -29.738      0.000      0.000
REMARK INTER + INTRA:         -31.988
REMARK INTER:                 -30.931
REMARK INTRA:                  -1.057
REMARK CONF_INDEPENDENT:        1.193
REMARK UNBOUND:                -1.057
REMARK  4 active torsions:
REMARK  status: ('A' for Active; 'I' for Inactive)
REMARK    1  A    between atoms: C_5  and  N_6 
REMARK       I    between atoms: N_6  and  C_7 
REMARK    2  A    between atoms: C_9  and  C_7 
REMARK    3  A    between atoms: C_9  and  N_11 
REMARK       I    between atoms: N_11  and  C_12 
REMARK    4  A    between atoms: C_12  and  C_14 
ROOT
ATOM      1  C   UNL d   1      23.989 -16.852  -1.001  0.00  0.00     0.173 C 
ATOM      2  C   UNL d   1      24.503 -17.450  -2.313  0.00  0.00     0.042 C 
ENDROOT
BRANCH   1   3
ATOM      3  N   UNL d   1      25.069 -16.370  -0.154  0.00  0.00    -0.344 N 
ATOM      4  C   UNL d   1      25.900 -15.373  -0.615  0.00  0.00     0.252 C 
ATOM      5  O   UNL d   1      25.710 -14.767  -1.668  0.00  0.00    -0.268 OA
ATOM      6  H   UNL d   1      25.301 -16.888   0.684  0.00  0.00     0.163 HD
BRANCH   4   7
ATOM      7  C   UNL d   1      27.019 -14.983   0.261  0.00  0.00     0.032 A 
ATOM      8  C   UNL d   1      26.879 -13.867   1.095  0.00  0.00     0.017 A 
ATOM      9  C   UNL d   1      27.985 -13.392   1.800  0.00  0.00     0.001 A 
ATOM     10  C   UNL d   1      29.202 -14.070   1.724  0.00  0.00     0.000 A 
ATOM     11  C   UNL d   1      29.328 -15.200   0.914  0.00  0.00     0.001 A 
ATOM     12  C   UNL d   1      28.239 -15.657   0.174  0.00  0.00     0.017 A 
ENDBRANCH   4   7
ENDBRANCH   1   3
BRANCH   1  13
ATOM     13  C   UNL d   1      23.103 -17.920  -0.343  0.00  0.00     0.245 C 
ATOM     14  N   UNL d   1      21.797 -18.038  -0.793  0.00  0.00    -0.310 N 
ATOM     15  H   UNL d   1      21.518 -17.565  -1.643  0.00  0.00     0.170 HD
ATOM     16  O   UNL d   1      23.593 -18.527   0.613  0.00  0.00    -0.271 OA
BRANCH  14  17
ATOM     17  C   UNL d   1      20.834 -18.915  -0.265  0.00  0.00     0.129 A 
ATOM     18  C   UNL d   1      20.901 -19.325   1.057  0.00  0.00     0.051 A 
ATOM     19  C   UNL d   1      19.948 -20.172   1.586  0.00  0.00     0.012 A 
ATOM     20  C   UNL d   1      18.913 -20.612   0.784  0.00  0.00    -0.044 A 
ATOM     21  C   UNL d   1      17.874 -21.518   1.353  0.00  0.00     0.049 C 
ATOM     22  C   UNL d   1      18.901 -20.163  -0.535  0.00  0.00     0.125 A 
ATOM     23  N   UNL d   1      19.834 -19.325  -1.079  0.00  0.00    -0.243 NA
ENDBRANCH  14  17
ENDBRANCH   1  13
TORSDOF 4
ENDMDL
MODEL 2
REMARK VINA RESULT:   -29.212      1.830      2.340
REMARK INTER + INTRA:         -31.448
REMARK INTER:                 -30.405
REMARK INTRA:                  -1.043
REMARK CONF_INDEPENDENT:        1.193
REMARK UNBOUND:                -1.043
REMARK  4 active torsions:
REMARK  status: ('A' for Active; 'I' for Inactive)
REMARK    1  A    between atoms: C_5  and  N_6 
REMARK       I    between atoms: N_6  and  C_7 
REMARK    2  A    between atoms: C_9  and  C_7 
REMARK    3  A    between atoms: C_9  and  N_11 
REMARK       I    between atoms: N_11  and  C_12 
REMARK    4  A    between atoms: C_12  and  C_14 
ROOT
ATOM      1  C   UNL d   1      24.245 -16.781  -0.522  0.00  0.00     0.173 C 
ATOM      2  C   UNL d   1      23.661 -15.915  -1.641  0.00  0.00     0.042 C 
ENDROOT
BRANCH   1   3
ATOM      3  N   UNL d   1      25.628 -17.155  -0.780  0.00  0.00    -0.344 N 
ATOM      4  C   UNL d   1      26.528 -16.193  -1.180  0.00  0.00     0.252 C 
ATOM      5  O   UNL d   1      26.263 -14.992  -1.218  0.00  0.00    -0.268 OA
ATOM      6  H   UNL d   1      25.867 -18.137  -0.829  0.00  0.00     0.163 HD
BRANCH   4   7
ATOM      7  C   UNL d   1      27.892 -16.651  -1.498  0.00  0.00     0.032 A 
ATOM      8  C   UNL d   1      28.625 -17.345  -0.526  0.00  0.00     0.017 A 
ATOM      9  C   UNL d   1      29.969 -17.635  -0.755  0.00  0.00     0.001 A 
ATOM     10  C   UNL d   1      30.557 -17.293  -1.974  0.00  0.00     0.000 A 
ATOM     11  C   UNL d   1      29.814 -16.627  -2.951  0.00  0.00     0.001 A 
ATOM     12  C   UNL d   1      28.481 -16.298  -2.713  0.00  0.00     0.017 A 
ENDBRANCH   4   7
ENDBRANCH   1   3
BRANCH   1  13
ATOM     13  C   UNL d   1      23.295 -17.973  -0.341  0.00  0.00     0.245 C 
ATOM     14  N   UNL d   1      21.933 -17.716  -0.344  0.00  0.00    -0.310 N 
ATOM     15  H   UNL d   1      21.598 -16.809  -0.643  0.00  0.00     0.170 HD
ATOM     16  O   UNL d   1      23.821 -19.064  -0.101  0.00  0.00    -0.271 OA
BRANCH  14  17
ATOM     17  C   UNL d   1      20.927 -18.673  -0.130  0.00  0.00     0.129 A 
ATOM     18  C   UNL d   1      20.976 -19.517   0.968  0.00  0.00     0.051 A 
ATOM     19  C   UNL d   1      19.980 -20.448   1.192  0.00  0.00     0.012 A 
ATOM     20  C   UNL d   1      18.922 -20.533   0.309  0.00  0.00    -0.044 A 
ATOM     21  C   UNL d   1      17.838 -21.529   0.553  0.00  0.00     0.049 C 
ATOM     22  C   UNL d   1      18.930 -19.657  -0.774  0.00  0.00     0.125 A 
ATOM     23  N   UNL d   1      19.904 -18.728  -1.015  0.00  0.00    -0.243 NA
ENDBRANCH  14  17
ENDBRANCH   1  13
TORSDOF 4
ENDMDL
