MODEL 1
REMARK VINA RESULT:    -8.913      0.000      0.000
REMARK INTER + INTRA:         -11.599
REMARK INTER:                 -10.405
REMARK INTRA:                  -1.194
REMARK CONF_INDEPENDENT:        1.492
REMARK UNBOUND:                -1.194
REMARK  5 active torsions:
REMARK  status: ('A' for Active; 'I' for Inactive)
REMARK    1  A    between atoms: C_2  and  C_16 
REMARK    2  A    between atoms: C_2  and  N_3 
REMARK    3  A    between atoms: N_3  and  C_4 
REMARK    4  A    between atoms: C_4  and  C_6 
REMARK       I    between atoms: C_16  and  N_18 
REMARK    5  A    between atoms: N_18  and  C_19 
ROOT
ATOM      1  C   UNL d   1      28.196 -13.449   5.323  0.00  0.00     0.055 A 
ATOM      2  C   UNL d   1      28.711 -14.449   6.157  0.00  0.00     0.031 A 
ATOM      3  C   UNL d   1      29.210 -14.111   7.423  0.00  0.00     0.002 A 
ATOM      4  C   UNL d   1      29.173 -12.790   7.871  0.00  0.00     0.002 A 
ATOM      5  C   UNL d   1      28.694 -11.786   7.038  0.00  0.00     0.025 A 
ATOM      6  C   UNL d   1      28.228 -12.095   5.760  0.00  0.00     0.071 A 
ATOM      7  C   UNL d   1      27.779 -10.981   4.950  0.00  0.00     0.102 C 
ATOM      8  N   UNL d   1      27.448 -10.092   4.289  0.00  0.00    -0.191 NA
ENDROOT
BRANCH   1   9
ATOM      9  N   UNL d   1      27.682 -13.802   4.035  0.00  0.00    -0.324 N 
ATOM     10  C   UNL d   1      28.611 -13.966   3.032  0.00  0.00     0.255 C 
ATOM     11  O   UNL d   1      29.793 -13.958   3.387  0.00  0.00    -0.271 OA
ATOM     12  H   UNL d   1      26.799 -14.286   3.957  0.00  0.00     0.169 HD
BRANCH  10  13
ATOM     13  C   UNL d   1      28.145 -14.274   1.574  0.00  0.00     0.308 C 
ATOM     14  C   UNL d   1      26.751 -13.705   1.309  0.00  0.00     0.053 C 
BRANCH  13  15
ATOM     15  N   UNL d   1      28.142 -15.728   1.232  0.00  0.00     0.105 N 
ATOM     16  H   UNL d   1      28.905 -16.186   1.722  0.00  0.00     0.317 HD
BRANCH  15  17
ATOM     17  C   UNL d   1      28.287 -16.008  -0.212  0.00  0.00     0.251 C 
ATOM     18  C   UNL d   1      28.789 -17.447  -0.481  0.00  0.00     0.048 C 
BRANCH  17  19
ATOM     19  C   UNL d   1      27.064 -15.780  -1.063  0.00  0.00    -0.015 A 
ATOM     20  C   UNL d   1      27.105 -14.850  -2.104  0.00  0.00     0.010 A 
ATOM     21  C   UNL d   1      25.965 -14.578  -2.831  0.00  0.00     0.002 A 
ATOM     22  C   UNL d   1      24.780 -15.242  -2.530  0.00  0.00     0.012 A 
ATOM     23  C   UNL d   1      24.718 -16.222  -1.524  0.00  0.00    -0.025 A 
ATOM     24  C   UNL d   1      23.526 -16.922  -1.271  0.00  0.00     0.012 A 
ATOM     25  C   UNL d   1      25.866 -16.509  -0.764  0.00  0.00    -0.018 A 
ATOM     26  C   UNL d   1      23.451 -17.902  -0.278  0.00  0.00     0.001 A 
ATOM     27  C   UNL d   1      24.568 -18.200   0.483  0.00  0.00     0.001 A 
ATOM     28  C   UNL d   1      25.755 -17.512   0.246  0.00  0.00     0.013 A 
ENDBRANCH  17  19
ENDBRANCH  15  17
ENDBRANCH  13  15
ENDBRANCH  10  13
ENDBRANCH   1   9
TORSDOF 5
ENDMDL
MODEL 2
REMARK VINA RESULT:    -8.841      2.377      7.001
REMARK INTER + INTRA:         -12.093
REMARK INTER:                 -10.333
REMARK INTRA:                  -1.760
REMARK CONF_INDEPENDENT:        1.492
REMARK UNBOUND:                -1.760
REMARK  5 active torsions:
REMARK  status: ('A' for Active; 'I' for Inactive)
REMARK    1  A    between atoms: C_2  and  C_16 
REMARK    2  A    between atoms: C_2  and  N_3 
REMARK    3  A    between atoms: N_3  and  C_4 
REMARK    4  A    between atoms: C_4  and  C_6 
REMARK       I    between atoms: C_16  and  N_18 
REMARK    5  A    between atoms: N_18  and  C_19 
ROOT
ATOM      1  C   UNL d   1      25.608 -17.268  -1.014  0.00  0.00     0.055 A 
ATOM      2  C   UNL d   1      25.302 -18.294  -0.110  0.00  0.00     0.031 A 
ATOM      3  C   UNL d   1      23.965 -18.542   0.234  0.00  0.00     0.002 A 
ATOM      4  C   UNL d   1      22.935 -17.793  -0.336  0.00  0.00     0.002 A 
ATOM      5  C   UNL d   1      23.231 -16.752  -1.208  0.00  0.00     0.025 A 
ATOM      6  C   UNL d   1      24.556 -16.464  -1.535  0.00  0.00     0.071 A 
ATOM      7  C   UNL d   1      24.772 -15.341  -2.424  0.00  0.00     0.102 C 
ATOM      8  N   UNL d   1      24.951 -14.428  -3.111  0.00  0.00    -0.191 NA
ENDROOT
BRANCH   1   9
ATOM      9  N   UNL d   1      26.974 -17.026  -1.366  0.00  0.00    -0.324 N 
ATOM     10  C   UNL d   1      27.824 -16.708  -0.330  0.00  0.00     0.255 C 
ATOM     11  O   UNL d   1      27.357 -16.831   0.806  0.00  0.00    -0.271 OA
ATOM     12  H   UNL d   1      27.365 -17.444  -2.198  0.00  0.00     0.169 HD
BRANCH  10  13
ATOM     13  C   UNL d   1      29.314 -16.348  -0.621  0.00  0.00     0.308 C 
ATOM     14  C   UNL d   1      29.974 -17.405  -1.506  0.00  0.00     0.053 C 
BRANCH  13  15
ATOM     15  N   UNL d   1      30.145 -16.164   0.606  0.00  0.00     0.105 N 
ATOM     16  H   UNL d   1      29.763 -16.734   1.354  0.00  0.00     0.317 HD
BRANCH  15  17
ATOM     17  C   UNL d   1      30.217 -14.766   1.082  0.00  0.00     0.251 C 
ATOM     18  C   UNL d   1      30.752 -13.805  -0.006  0.00  0.00     0.048 C 
BRANCH  17  19
ATOM     19  C   UNL d   1      28.941 -14.180   1.629  0.00  0.00    -0.015 A 
ATOM     20  C   UNL d   1      27.950 -13.731   0.754  0.00  0.00     0.010 A 
ATOM     21  C   UNL d   1      26.818 -13.120   1.249  0.00  0.00     0.002 A 
ATOM     22  C   UNL d   1      26.664 -12.962   2.623  0.00  0.00     0.012 A 
ATOM     23  C   UNL d   1      27.618 -13.450   3.533  0.00  0.00    -0.025 A 
ATOM     24  C   UNL d   1      27.418 -13.331   4.919  0.00  0.00     0.012 A 
ATOM     25  C   UNL d   1      28.784 -14.069   3.051  0.00  0.00    -0.018 A 
ATOM     26  C   UNL d   1      28.354 -13.815   5.837  0.00  0.00     0.001 A 
ATOM     27  C   UNL d   1      29.511 -14.428   5.384  0.00  0.00     0.001 A 
ATOM     28  C   UNL d   1      29.723 -14.549   4.013  0.00  0.00     0.013 A 
ENDBRANCH  17  19
ENDBRANCH  15  17
ENDBRANCH  13  15
ENDBRANCH  10  13
ENDBRANCH   1   9
TORSDOF 5
ENDMDL
MODEL 3
REMARK VINA RESULT:    -8.567      1.234      2.481
REMARK INTER + INTRA:         -11.245
REMARK INTER:                 -10.059
REMARK INTRA:                  -1.186
REMARK CONF_INDEPENDENT:        1.492
REMARK UNBOUND:                -1.186
REMARK  5 active torsions:
REMARK  status: ('A' for Active; 'I' for Inactive)
REMARK    1  A    between atoms: C_2  and  C_16 
REMARK    2  A    between atoms: C_2  and  N_3 
REMARK    3  A    between atoms: N_3  and  C_4 
REMARK    4  A    between atoms: C_4  and  C_6 
REMARK       I    between atoms: C_16  and  N_18 
REMARK    5  A    between atoms: N_18  and  C_19 
ROOT
ATOM      1  C   UNL d   1      28.747 -13.876   4.773  0.00  0.00     0.055 A 
ATOM      2  C   UNL d   1      29.352 -14.403   5.921  0.00  0.00     0.031 A 
ATOM      3  C   UNL d   1      29.227 -13.731   7.145  0.00  0.00     0.002 A 
ATOM      4  C   UNL d   1      28.482 -12.554   7.235  0.00  0.00     0.002 A 
ATOM      5  C   UNL d   1      27.906 -12.006   6.096  0.00  0.00     0.025 A 
ATOM      6  C   UNL d   1      28.050 -12.638   4.861  0.00  0.00     0.071 A 
ATOM      7  C   UNL d   1      27.444 -11.978   3.723  0.00  0.00     0.102 C 
ATOM      8  N   UNL d   1      26.987 -11.441   2.807  0.00  0.00    -0.191 NA
ENDROOT
BRANCH   1   9
ATOM      9  N   UNL d   1      28.873 -14.572   3.529  0.00  0.00    -0.324 N 
ATOM     10  C   UNL d   1      29.756 -14.038   2.618  0.00  0.00     0.255 C 
ATOM     11  O   UNL d   1      30.467 -13.118   3.033  0.00  0.00    -0.271 OA
ATOM     12  H   UNL d   1      28.667 -15.560   3.477  0.00  0.00     0.169 HD
BRANCH  10  13
ATOM     13  C   UNL d   1      29.905 -14.678   1.202  0.00  0.00     0.308 C 
ATOM     14  C   UNL d   1      29.627 -13.655   0.102  0.00  0.00     0.053 C 
BRANCH  13  15
ATOM     15  N   UNL d   1      29.033 -15.870   0.980  0.00  0.00     0.105 N 
ATOM     16  H   UNL d   1      29.533 -16.706   1.269  0.00  0.00     0.317 HD
BRANCH  15  17
ATOM     17  C   UNL d   1      28.603 -16.051  -0.423  0.00  0.00     0.251 C 
ATOM     18  C   UNL d   1      29.339 -17.225  -1.113  0.00  0.00     0.048 C 
BRANCH  17  19
ATOM     19  C   UNL d   1      27.125 -16.235  -0.651  0.00  0.00    -0.015 A 
ATOM     20  C   UNL d   1      26.433 -17.232   0.040  0.00  0.00     0.010 A 
ATOM     21  C   UNL d   1      25.099 -17.457  -0.226  0.00  0.00     0.002 A 
ATOM     22  C   UNL d   1      24.445 -16.681  -1.178  0.00  0.00     0.012 A 
ATOM     23  C   UNL d   1      25.099 -15.635  -1.853  0.00  0.00    -0.025 A 
ATOM     24  C   UNL d   1      24.407 -14.825  -2.770  0.00  0.00     0.012 A 
ATOM     25  C   UNL d   1      26.462 -15.393  -1.603  0.00  0.00    -0.018 A 
ATOM     26  C   UNL d   1      25.042 -13.779  -3.445  0.00  0.00     0.001 A 
ATOM     27  C   UNL d   1      26.383 -13.524  -3.216  0.00  0.00     0.001 A 
ATOM     28  C   UNL d   1      27.082 -14.320  -2.312  0.00  0.00     0.013 A 
ENDBRANCH  17  19
ENDBRANCH  15  17
ENDBRANCH  13  15
ENDBRANCH  10  13
ENDBRANCH   1   9
TORSDOF 5
ENDMDL
MODEL 4
REMARK VINA RESULT:    -8.485      1.779      7.541
REMARK INTER + INTRA:         -11.396
REMARK INTER:                  -9.977
REMARK INTRA:                  -1.420
REMARK CONF_INDEPENDENT:        1.492
REMARK UNBOUND:                -1.420
REMARK  5 active torsions:
REMARK  status: ('A' for Active; 'I' for Inactive)
REMARK    1  A    between atoms: C_2  and  C_16 
REMARK    2  A    between atoms: C_2  and  N_3 
REMARK    3  A    between atoms: N_3  and  C_4 
REMARK    4  A    between atoms: C_4  and  C_6 
REMARK       I    between atoms: C_16  and  N_18 
REMARK    5  A    between atoms: N_18  and  C_19 
ROOT
ATOM      1  C   UNL d   1      26.953 -16.641   0.066  0.00  0.00     0.055 A 
ATOM      2  C   UNL d   1      26.304 -17.757   0.610  0.00  0.00     0.031 A 
ATOM      3  C   UNL d   1      25.109 -18.216   0.037  0.00  0.00     0.002 A 
ATOM      4  C   UNL d   1      24.574 -17.587  -1.088  0.00  0.00     0.002 A 
ATOM      5  C   UNL d   1      25.194 -16.460  -1.616  0.00  0.00     0.025 A 
ATOM      6  C   UNL d   1      26.362 -15.964  -1.038  0.00  0.00     0.071 A 
ATOM      7  C   UNL d   1      26.919 -14.767  -1.633  0.00  0.00     0.102 C 
ATOM      8  N   UNL d   1      27.351 -13.795  -2.086  0.00  0.00    -0.191 NA
ENDROOT
BRANCH   1   9
ATOM      9  N   UNL d   1      28.176 -16.184   0.651  0.00  0.00    -0.324 N 
ATOM     10  C   UNL d   1      28.135 -14.951   1.263  0.00  0.00     0.255 C 
ATOM     11  O   UNL d   1      27.014 -14.450   1.389  0.00  0.00    -0.271 OA
ATOM     12  H   UNL d   1      28.873 -16.849   0.956  0.00  0.00     0.169 HD
BRANCH  10  13
ATOM     13  C   UNL d   1      29.436 -14.329   1.861  0.00  0.00     0.308 C 
ATOM     14  C   UNL d   1      30.677 -14.828   1.122  0.00  0.00     0.053 C 
BRANCH  13  15
ATOM     15  N   UNL d   1      29.614 -14.583   3.322  0.00  0.00     0.105 N 
ATOM     16  H   UNL d   1      29.779 -15.575   3.469  0.00  0.00     0.317 HD
BRANCH  15  17
ATOM     17  C   UNL d   1      28.458 -14.180   4.151  0.00  0.00     0.251 C 
ATOM     18  C   UNL d   1      28.162 -15.200   5.276  0.00  0.00     0.048 C 
BRANCH  17  19
ATOM     19  C   UNL d   1      28.529 -12.811   4.776  0.00  0.00    -0.015 A 
ATOM     20  C   UNL d   1      29.183 -12.636   5.997  0.00  0.00     0.010 A 
ATOM     21  C   UNL d   1      29.178 -11.401   6.611  0.00  0.00     0.002 A 
ATOM     22  C   UNL d   1      28.529 -10.331   6.003  0.00  0.00     0.012 A 
ATOM     23  C   UNL d   1      27.907 -10.461   4.749  0.00  0.00    -0.025 A 
ATOM     24  C   UNL d   1      27.305  -9.355   4.125  0.00  0.00     0.012 A 
ATOM     25  C   UNL d   1      27.892 -11.712   4.108  0.00  0.00    -0.018 A 
ATOM     26  C   UNL d   1      26.687  -9.467   2.878  0.00  0.00     0.001 A 
ATOM     27  C   UNL d   1      26.659 -10.690   2.229  0.00  0.00     0.001 A 
ATOM     28  C   UNL d   1      27.248 -11.795   2.837  0.00  0.00     0.013 A 
ENDBRANCH  17  19
ENDBRANCH  15  17
ENDBRANCH  13  15
ENDBRANCH  10  13
ENDBRANCH   1   9
TORSDOF 5
ENDMDL
MODEL 5
REMARK VINA RESULT:    -8.169      4.760      7.326
REMARK INTER + INTRA:         -10.880
REMARK INTER:                  -9.661
REMARK INTRA:                  -1.220
REMARK CONF_INDEPENDENT:        1.492
REMARK UNBOUND:                -1.220
REMARK  5 active torsions:
REMARK  status: ('A' for Active; 'I' for Inactive)
REMARK    1  A    between atoms: C_2  and  C_16 
REMARK    2  A    between atoms: C_2  and  N_3 
REMARK    3  A    between atoms: N_3  and  C_4 
REMARK    4  A    between atoms: C_4  and  C_6 
REMARK       I    between atoms: C_16  and  N_18 
REMARK    5  A    between atoms: N_18  and  C_19 
ROOT
ATOM      1  C   UNL d   1      25.315 -17.600  -0.522  0.00  0.00     0.055 A 
ATOM      2  C   UNL d   1      24.540 -18.489   0.233  0.00  0.00     0.031 A 
ATOM      3  C   UNL d   1      23.142 -18.369   0.230  0.00  0.00     0.002 A 
ATOM      4  C   UNL d   1      22.516 -17.389  -0.541  0.00  0.00     0.002 A 
ATOM      5  C   UNL d   1      23.278 -16.482  -1.268  0.00  0.00     0.025 A 
ATOM      6  C   UNL d   1      24.670 -16.559  -1.248  0.00  0.00     0.071 A 
ATOM      7  C   UNL d   1      25.383 -15.553  -2.008  0.00  0.00     0.102 C 
ATOM      8  N   UNL d   1      25.957 -14.735  -2.589  0.00  0.00    -0.191 NA
ENDROOT
BRANCH   1   9
ATOM      9  N   UNL d   1      26.740 -17.732  -0.520  0.00  0.00    -0.324 N 
ATOM     10  C   UNL d   1      27.446 -16.713   0.079  0.00  0.00     0.255 C 
ATOM     11  O   UNL d   1      26.773 -15.882   0.695  0.00  0.00    -0.271 OA
ATOM     12  H   UNL d   1      27.164 -18.648  -0.568  0.00  0.00     0.169 HD
BRANCH  10  13
ATOM     13  C   UNL d   1      29.007 -16.726   0.063  0.00  0.00     0.308 C 
ATOM     14  C   UNL d   1      29.561 -15.516  -0.688  0.00  0.00     0.053 C 
BRANCH  13  15
ATOM     15  N   UNL d   1      29.598 -17.967  -0.523  0.00  0.00     0.105 N 
ATOM     16  H   UNL d   1      29.860 -18.597   0.229  0.00  0.00     0.317 HD
BRANCH  15  17
ATOM     17  C   UNL d   1      30.791 -17.729  -1.362  0.00  0.00     0.251 C 
ATOM     18  C   UNL d   1      32.108 -18.021  -0.603  0.00  0.00     0.048 C 
BRANCH  17  19
ATOM     19  C   UNL d   1      30.842 -18.467  -2.675  0.00  0.00    -0.015 A 
ATOM     20  C   UNL d   1      31.180 -19.821  -2.700  0.00  0.00     0.010 A 
ATOM     21  C   UNL d   1      31.309 -20.479  -3.905  0.00  0.00     0.002 A 
ATOM     22  C   UNL d   1      31.090 -19.789  -5.094  0.00  0.00     0.012 A 
ATOM     23  C   UNL d   1      30.697 -18.439  -5.102  0.00  0.00    -0.025 A 
ATOM     24  C   UNL d   1      30.426 -17.774  -6.310  0.00  0.00     0.012 A 
ATOM     25  C   UNL d   1      30.568 -17.746  -3.885  0.00  0.00    -0.018 A 
ATOM     26  C   UNL d   1      30.030 -16.435  -6.335  0.00  0.00     0.001 A 
ATOM     27  C   UNL d   1      29.898 -15.733  -5.149  0.00  0.00     0.001 A 
ATOM     28  C   UNL d   1      30.167 -16.378  -3.944  0.00  0.00     0.013 A 
ENDBRANCH  17  19
ENDBRANCH  15  17
ENDBRANCH  13  15
ENDBRANCH  10  13
ENDBRANCH   1   9
TORSDOF 5
ENDMDL
MODEL 6
REMARK VINA RESULT:    -8.150      2.043      7.770
REMARK INTER + INTRA:         -10.929
REMARK INTER:                  -9.641
REMARK INTRA:                  -1.287
REMARK CONF_INDEPENDENT:        1.492
REMARK UNBOUND:                -1.287
REMARK  5 active torsions:
REMARK  status: ('A' for Active; 'I' for Inactive)
REMARK    1  A    between atoms: C_2  and  C_16 
REMARK    2  A    between atoms: C_2  and  N_3 
REMARK    3  A    between atoms: N_3  and  C_4 
REMARK    4  A    between atoms: C_4  and  C_6 
REMARK       I    between atoms: C_16  and  N_18 
REMARK    5  A    between atoms: N_18  and  C_19 
ROOT
ATOM      1  C   UNL d   1      25.951 -17.221  -0.720  0.00  0.00     0.055 A 
ATOM      2  C   UNL d   1      25.608 -18.161   0.262  0.00  0.00     0.031 A 
ATOM      3  C   UNL d   1      24.275 -18.575   0.393  0.00  0.00     0.002 A 
ATOM      4  C   UNL d   1      23.290 -18.080  -0.464  0.00  0.00     0.002 A 
ATOM      5  C   UNL d   1      23.615 -17.124  -1.419  0.00  0.00     0.025 A 
ATOM      6  C   UNL d   1      24.928 -16.670  -1.541  0.00  0.00     0.071 A 
ATOM      7  C   UNL d   1      25.168 -15.649  -2.540  0.00  0.00     0.102 C 
ATOM      8  N   UNL d   1      25.359 -14.813  -3.316  0.00  0.00    -0.191 NA
ENDROOT
BRANCH   1   9
ATOM      9  N   UNL d   1      27.315 -16.809  -0.852  0.00  0.00    -0.324 N 
ATOM     10  C   UNL d   1      27.794 -15.964   0.124  0.00  0.00     0.255 C 
ATOM     11  O   UNL d   1      27.052 -15.789   1.095  0.00  0.00    -0.271 OA
ATOM     12  H   UNL d   1      27.974 -17.389  -1.352  0.00  0.00     0.169 HD
BRANCH  10  13
ATOM     13  C   UNL d   1      29.244 -15.395   0.025  0.00  0.00     0.308 C 
ATOM     14  C   UNL d   1      30.182 -16.390  -0.658  0.00  0.00     0.053 C 
BRANCH  13  15
ATOM     15  N   UNL d   1      29.834 -15.005   1.341  0.00  0.00     0.105 N 
ATOM     16  H   UNL d   1      29.587 -15.703   2.035  0.00  0.00     0.317 HD
BRANCH  15  17
ATOM     17  C   UNL d   1      29.389 -13.685   1.835  0.00  0.00     0.251 C 
ATOM     18  C   UNL d   1      28.331 -13.040   0.909  0.00  0.00     0.048 C 
BRANCH  17  19
ATOM     19  C   UNL d   1      28.856 -13.644   3.244  0.00  0.00    -0.015 A 
ATOM     20  C   UNL d   1      28.412 -14.818   3.854  0.00  0.00     0.010 A 
ATOM     21  C   UNL d   1      27.847 -14.772   5.111  0.00  0.00     0.002 A 
ATOM     22  C   UNL d   1      27.732 -13.552   5.771  0.00  0.00     0.012 A 
ATOM     23  C   UNL d   1      28.217 -12.359   5.206  0.00  0.00    -0.025 A 
ATOM     24  C   UNL d   1      28.143 -11.145   5.911  0.00  0.00     0.012 A 
ATOM     25  C   UNL d   1      28.789 -12.381   3.922  0.00  0.00    -0.018 A 
ATOM     26  C   UNL d   1      28.624  -9.953   5.366  0.00  0.00     0.001 A 
ATOM     27  C   UNL d   1      29.190  -9.951   4.102  0.00  0.00     0.001 A 
ATOM     28  C   UNL d   1      29.267 -11.146   3.391  0.00  0.00     0.013 A 
ENDBRANCH  17  19
ENDBRANCH  15  17
ENDBRANCH  13  15
ENDBRANCH  10  13
ENDBRANCH   1   9
TORSDOF 5
ENDMDL
MODEL 7
REMARK VINA RESULT:    -8.141      2.624      7.023
REMARK INTER + INTRA:         -11.150
REMARK INTER:                  -9.633
REMARK INTRA:                  -1.517
REMARK CONF_INDEPENDENT:        1.492
REMARK UNBOUND:                -1.517
REMARK  5 active torsions:
REMARK  status: ('A' for Active; 'I' for Inactive)
REMARK    1  A    between atoms: C_2  and  C_16 
REMARK    2  A    between atoms: C_2  and  N_3 
REMARK    3  A    between atoms: N_3  and  C_4 
REMARK    4  A    between atoms: C_4  and  C_6 
REMARK       I    between atoms: C_16  and  N_18 
REMARK    5  A    between atoms: N_18  and  C_19 
ROOT
ATOM      1  C   UNL d   1      25.745 -17.298  -0.932  0.00  0.00     0.055 A 
ATOM      2  C   UNL d   1      25.417 -18.177   0.108  0.00  0.00     0.031 A 
ATOM      3  C   UNL d   1      24.072 -18.374   0.454  0.00  0.00     0.002 A 
ATOM      4  C   UNL d   1      23.056 -17.722  -0.246  0.00  0.00     0.002 A 
ATOM      5  C   UNL d   1      23.374 -16.823  -1.258  0.00  0.00     0.025 A 
ATOM      6  C   UNL d   1      24.706 -16.584  -1.593  0.00  0.00     0.071 A 
ATOM      7  C   UNL d   1      24.944 -15.608  -2.636  0.00  0.00     0.102 C 
ATOM      8  N   UNL d   1      25.141 -14.808  -3.447  0.00  0.00    -0.191 NA
ENDROOT
BRANCH   1   9
ATOM      9  N   UNL d   1      27.119 -17.108  -1.285  0.00  0.00    -0.324 N 
ATOM     10  C   UNL d   1      27.944 -16.633  -0.290  0.00  0.00     0.255 C 
ATOM     11  O   UNL d   1      27.450 -16.582   0.840  0.00  0.00    -0.271 OA
ATOM     12  H   UNL d   1      27.530 -17.648  -2.033  0.00  0.00     0.169 HD
BRANCH  10  13
ATOM     13  C   UNL d   1      29.441 -16.317  -0.597  0.00  0.00     0.308 C 
ATOM     14  C   UNL d   1      29.975 -17.211  -1.716  0.00  0.00     0.053 C 
BRANCH  13  15
ATOM     15  N   UNL d   1      30.344 -16.441   0.587  0.00  0.00     0.105 N 
ATOM     16  H   UNL d   1      29.827 -16.859   1.355  0.00  0.00     0.317 HD
BRANCH  15  17
ATOM     17  C   UNL d   1      30.905 -15.156   1.055  0.00  0.00     0.251 C 
ATOM     18  C   UNL d   1      31.056 -14.131  -0.094  0.00  0.00     0.048 C 
BRANCH  17  19
ATOM     19  C   UNL d   1      30.173 -14.478   2.184  0.00  0.00    -0.015 A 
ATOM     20  C   UNL d   1      30.720 -14.482   3.469  0.00  0.00     0.010 A 
ATOM     21  C   UNL d   1      30.014 -13.935   4.520  0.00  0.00     0.002 A 
ATOM     22  C   UNL d   1      28.762 -13.372   4.292  0.00  0.00     0.012 A 
ATOM     23  C   UNL d   1      28.207 -13.305   3.002  0.00  0.00    -0.025 A 
ATOM     24  C   UNL d   1      26.966 -12.683   2.783  0.00  0.00     0.012 A 
ATOM     25  C   UNL d   1      28.905 -13.864   1.917  0.00  0.00    -0.018 A 
ATOM     26  C   UNL d   1      26.404 -12.604   1.507  0.00  0.00     0.001 A 
ATOM     27  C   UNL d   1      27.072 -13.149   0.423  0.00  0.00     0.001 A 
ATOM     28  C   UNL d   1      28.301 -13.771   0.626  0.00  0.00     0.013 A 
ENDBRANCH  17  19
ENDBRANCH  15  17
ENDBRANCH  13  15
ENDBRANCH  10  13
ENDBRANCH   1   9
TORSDOF 5
ENDMDL
MODEL 8
REMARK VINA RESULT:    -7.691      3.376      7.443
REMARK INTER + INTRA:         -11.072
REMARK INTER:                  -9.182
REMARK INTRA:                  -1.890
REMARK CONF_INDEPENDENT:        1.492
REMARK UNBOUND:                -1.890
REMARK  5 active torsions:
REMARK  status: ('A' for Active; 'I' for Inactive)
REMARK    1  A    between atoms: C_2  and  C_16 
REMARK    2  A    between atoms: C_2  and  N_3 
REMARK    3  A    between atoms: N_3  and  C_4 
REMARK    4  A    between atoms: C_4  and  C_6 
REMARK       I    between atoms: C_16  and  N_18 
REMARK    5  A    between atoms: N_18  and  C_19 
ROOT
ATOM      1  C   UNL d   1      28.843 -15.817  -4.222  0.00  0.00     0.055 A 
ATOM      2  C   UNL d   1      27.949 -14.760  -4.432  0.00  0.00     0.031 A 
ATOM      3  C   UNL d   1      27.908 -14.121  -5.680  0.00  0.00     0.002 A 
ATOM      4  C   UNL d   1      28.731 -14.547  -6.723  0.00  0.00     0.002 A 
ATOM      5  C   UNL d   1      29.644 -15.574  -6.514  0.00  0.00     0.025 A 
ATOM      6  C   UNL d   1      29.729 -16.197  -5.269  0.00  0.00     0.071 A 
ATOM      7  C   UNL d   1      30.731 -17.234  -5.133  0.00  0.00     0.102 C 
ATOM      8  N   UNL d   1      31.550 -18.041  -5.010  0.00  0.00    -0.191 NA
ENDROOT
BRANCH   1   9
ATOM      9  N   UNL d   1      28.875 -16.468  -2.948  0.00  0.00    -0.324 N 
ATOM     10  C   UNL d   1      29.710 -15.918  -2.002  0.00  0.00     0.255 C 
ATOM     11  O   UNL d   1      30.212 -14.830  -2.296  0.00  0.00    -0.271 OA
ATOM     12  H   UNL d   1      28.079 -17.005  -2.633  0.00  0.00     0.169 HD
BRANCH  10  13
ATOM     13  C   UNL d   1      29.875 -16.602  -0.609  0.00  0.00     0.308 C 
ATOM     14  C   UNL d   1      29.043 -17.881  -0.520  0.00  0.00     0.053 C 
BRANCH  13  15
ATOM     15  N   UNL d   1      29.524 -15.721   0.545  0.00  0.00     0.105 N 
ATOM     16  H   UNL d   1      30.077 -15.996   1.352  0.00  0.00     0.317 HD
BRANCH  15  17
ATOM     17  C   UNL d   1      28.097 -15.766   0.928  0.00  0.00     0.251 C 
ATOM     18  C   UNL d   1      27.780 -14.825   2.114  0.00  0.00     0.048 C 
BRANCH  17  19
ATOM     19  C   UNL d   1      27.103 -15.478  -0.168  0.00  0.00    -0.015 A 
ATOM     20  C   UNL d   1      27.212 -14.305  -0.916  0.00  0.00     0.010 A 
ATOM     21  C   UNL d   1      26.257 -13.998  -1.863  0.00  0.00     0.002 A 
ATOM     22  C   UNL d   1      25.193 -14.869  -2.075  0.00  0.00     0.012 A 
ATOM     23  C   UNL d   1      25.082 -16.084  -1.376  0.00  0.00    -0.025 A 
ATOM     24  C   UNL d   1      24.030 -16.977  -1.644  0.00  0.00     0.012 A 
ATOM     25  C   UNL d   1      26.040 -16.413  -0.400  0.00  0.00    -0.018 A 
ATOM     26  C   UNL d   1      23.909 -18.189  -0.961  0.00  0.00     0.001 A 
ATOM     27  C   UNL d   1      24.840 -18.533   0.005  0.00  0.00     0.001 A 
ATOM     28  C   UNL d   1      25.886 -17.657   0.283  0.00  0.00     0.013 A 
ENDBRANCH  17  19
ENDBRANCH  15  17
ENDBRANCH  13  15
ENDBRANCH  10  13
ENDBRANCH   1   9
TORSDOF 5
ENDMDL
MODEL 9
REMARK VINA RESULT:    -7.364      3.431      7.310
REMARK INTER + INTRA:         -10.716
REMARK INTER:                  -8.855
REMARK INTRA:                  -1.860
REMARK CONF_INDEPENDENT:        1.492
REMARK UNBOUND:                -1.860
REMARK  5 active torsions:
REMARK  status: ('A' for Active; 'I' for Inactive)
REMARK    1  A    between atoms: C_2  and  C_16 
REMARK    2  A    between atoms: C_2  and  N_3 
REMARK    3  A    between atoms: N_3  and  C_4 
REMARK    4  A    between atoms: C_4  and  C_6 
REMARK       I    between atoms: C_16  and  N_18 
REMARK    5  A    between atoms: N_18  and  C_19 
ROOT
ATOM      1  C   UNL d   1      30.931 -17.597  -3.376  0.00  0.00     0.055 A 
ATOM      2  C   UNL d   1      31.656 -18.741  -3.018  0.00  0.00     0.031 A 
ATOM      3  C   UNL d   1      31.740 -19.819  -3.911  0.00  0.00     0.002 A 
ATOM      4  C   UNL d   1      31.131 -19.751  -5.165  0.00  0.00     0.002 A 
ATOM      5  C   UNL d   1      30.382 -18.634  -5.516  0.00  0.00     0.025 A 
ATOM      6  C   UNL d   1      30.254 -17.567  -4.627  0.00  0.00     0.071 A 
ATOM      7  C   UNL d   1      29.428 -16.459  -5.064  0.00  0.00     0.102 C 
ATOM      8  N   UNL d   1      28.746 -15.586  -5.395  0.00  0.00    -0.191 NA
ENDROOT
BRANCH   1   9
ATOM      9  N   UNL d   1      30.855 -16.498  -2.462  0.00  0.00    -0.324 N 
ATOM     10  C   UNL d   1      30.038 -16.671  -1.367  0.00  0.00     0.255 C 
ATOM     11  O   UNL d   1      29.594 -17.811  -1.202  0.00  0.00    -0.271 OA
ATOM     12  H   UNL d   1      31.620 -15.843  -2.393  0.00  0.00     0.169 HD
BRANCH  10  13
ATOM     13  C   UNL d   1      29.827 -15.502  -0.354  0.00  0.00     0.308 C 
ATOM     14  C   UNL d   1      31.147 -14.798  -0.040  0.00  0.00     0.053 C 
BRANCH  13  15
ATOM     15  N   UNL d   1      29.188 -15.919   0.930  0.00  0.00     0.105 N 
ATOM     16  H   UNL d   1      29.271 -16.926   1.029  0.00  0.00     0.317 HD
BRANCH  15  17
ATOM     17  C   UNL d   1      27.759 -15.560   1.038  0.00  0.00     0.251 C 
ATOM     18  C   UNL d   1      27.551 -14.187   1.720  0.00  0.00     0.048 C 
BRANCH  17  19
ATOM     19  C   UNL d   1      26.970 -15.562  -0.247  0.00  0.00    -0.015 A 
ATOM     20  C   UNL d   1      27.213 -14.584  -1.214  0.00  0.00     0.010 A 
ATOM     21  C   UNL d   1      26.438 -14.533  -2.353  0.00  0.00     0.002 A 
ATOM     22  C   UNL d   1      25.422 -15.465  -2.538  0.00  0.00     0.012 A 
ATOM     23  C   UNL d   1      25.186 -16.494  -1.609  0.00  0.00    -0.025 A 
ATOM     24  C   UNL d   1      24.192 -17.460  -1.840  0.00  0.00     0.012 A 
ATOM     25  C   UNL d   1      25.958 -16.560  -0.436  0.00  0.00    -0.018 A 
ATOM     26  C   UNL d   1      23.948 -18.491  -0.929  0.00  0.00     0.001 A 
ATOM     27  C   UNL d   1      24.696 -18.575   0.233  0.00  0.00     0.001 A 
ATOM     28  C   UNL d   1      25.682 -17.623   0.477  0.00  0.00     0.013 A 
ENDBRANCH  17  19
ENDBRANCH  15  17
ENDBRANCH  13  15
ENDBRANCH  10  13
ENDBRANCH   1   9
TORSDOF 5
ENDMDL
