MODEL 1
REMARK VINA RESULT:   -31.326      0.000      0.000
REMARK INTER + INTRA:         -34.912
REMARK INTER:                 -34.011
REMARK INTRA:                  -0.901
REMARK CONF_INDEPENDENT:        2.685
REMARK UNBOUND:                -0.901
REMARK  9 active torsions:
REMARK  status: ('A' for Active; 'I' for Inactive)
REMARK    1  A    between atoms: C_2  and  C_4 
REMARK    2  A    between atoms: C_9  and  N_10 
REMARK    3  A    between atoms: N_10  and  C_11 
REMARK    4  A    between atoms: C_11  and  N_13 
REMARK    5  A    between atoms: N_13  and  N_14 
REMARK       I    between atoms: N_14  and  C_15 
REMARK    6  A    between atoms: C_15  and  C_17 
REMARK    7  A    between atoms: C_17  and  C_18 
REMARK    8  A    between atoms: C_18  and  N_19 
REMARK    9  A    between atoms: N_19  and  C_20 
ROOT
ATOM      1  N   UNL d   1      27.503 -17.734   0.285  0.00  0.00    -0.274 N 
ATOM      2  H   UNL d   1      28.163 -18.349   0.759  0.00  0.00     0.189 HD
ENDROOT
BRANCH   1   3
ATOM      3  C   UNL d   1      27.927 -16.422  -0.136  0.00  0.00     0.191 C 
ATOM      4  S   UNL d   1      28.222 -16.133  -1.803  0.00  0.00    -0.039 SA
BRANCH   3   5
ATOM      5  N   UNL d   1      28.350 -15.617   1.054  0.00  0.00    -0.332 N 
ATOM      6  H   UNL d   1      29.177 -15.974   1.519  0.00  0.00     0.168 HD
BRANCH   5   7
ATOM      7  C   UNL d   1      27.878 -14.302   1.668  0.00  0.00     0.041 C 
ATOM      8  C   UNL d   1      26.904 -13.533   0.971  0.00  0.00     0.030 C 
ATOM      9  C   UNL d   1      26.509 -12.227   1.394  0.00  0.00     0.002 C 
ATOM     10  C   UNL d   1      27.056 -11.648   2.531  0.00  0.00     0.001 C 
ATOM     11  C   UNL d   1      27.924 -12.409   3.291  0.00  0.00     0.010 C 
ATOM     12  C   UNL d   1      28.201 -13.764   2.961  0.00  0.00    -0.028 C 
BRANCH  12  13
ATOM     13  C   UNL d   1      28.690 -14.571   4.166  0.00  0.00     0.013 C 
ATOM     14  C   UNL d   1      29.882 -14.127   4.978  0.00  0.00     0.015 C 
ATOM     15  C   UNL d   1      27.662 -14.485   5.233  0.00  0.00     0.015 C 
ENDBRANCH  12  13
ENDBRANCH   5   7
ENDBRANCH   3   5
ENDBRANCH   1   3
BRANCH   1  16
ATOM     16  N   UNL d   1      26.113 -17.976   0.689  0.00  0.00    -0.268 N 
ATOM     17  C   UNL d   1      25.086 -17.669  -0.182  0.00  0.00     0.237 C 
ATOM     18  O   UNL d   1      25.306 -17.025  -1.228  0.00  0.00    -0.272 OA
ATOM     19  H   UNL d   1      25.975 -18.654   1.438  0.00  0.00     0.190 HD
BRANCH  17  20
ATOM     20  C   UNL d   1      23.691 -18.151   0.216  0.00  0.00     0.119 C 
BRANCH  20  21
ATOM     21  C   UNL d   1      22.884 -18.539  -1.035  0.00  0.00     0.104 C 
BRANCH  21  22
ATOM     22  N   UNL d   1      21.511 -18.028  -0.976  0.00  0.00    -0.261 NA
ATOM     23  H   UNL d   1      21.111 -17.705  -1.847  0.00  0.00     0.130 HD
BRANCH  22  24
ATOM     24  C   UNL d   1      20.617 -18.931  -0.392  0.00  0.00     0.201 A 
ATOM     25  N   UNL d   1      19.554 -19.325  -1.114  0.00  0.00    -0.231 NA
ATOM     26  C   UNL d   1      18.682 -20.170  -0.511  0.00  0.00     0.121 A 
ATOM     27  C   UNL d   1      18.801 -20.592   0.790  0.00  0.00     0.039 A 
ATOM     28  C   UNL d   1      19.899 -20.107   1.449  0.00  0.00     0.121 A 
ATOM     29  N   UNL d   1      20.824 -19.311   0.877  0.00  0.00    -0.231 NA
ENDBRANCH  22  24
ENDBRANCH  21  22
ENDBRANCH  20  21
ENDBRANCH  17  20
ENDBRANCH   1  16
TORSDOF 9
ENDMDL
MODEL 2
REMARK VINA RESULT:   -31.118      1.468      2.723
REMARK INTER + INTRA:         -35.108
REMARK INTER:                 -33.803
REMARK INTRA:                  -1.306
REMARK CONF_INDEPENDENT:        2.685
REMARK UNBOUND:                -1.306
REMARK  9 active torsions:
REMARK  status: ('A' for Active; 'I' for Inactive)
REMARK    1  A    between atoms: C_2  and  C_4 
REMARK    2  A    between atoms: C_9  and  N_10 
REMARK    3  A    between atoms: N_10  and  C_11 
REMARK    4  A    between atoms: C_11  and  N_13 
REMARK    5  A    between atoms: N_13  and  N_14 
REMARK       I    between atoms: N_14  and  C_15 
REMARK    6  A    between atoms: C_15  and  C_17 
REMARK    7  A    between atoms: C_17  and  C_18 
REMARK    8  A    between atoms: C_18  and  N_19 
REMARK    9  A    between atoms: N_19  and  C_20 
ROOT
ATOM      1  N   UNL d   1      27.201 -15.908   0.734  0.00  0.00    -0.274 N 
ATOM      2  H   UNL d   1      27.471 -16.769   1.208  0.00  0.00     0.189 HD
ENDROOT
BRANCH   1   3
ATOM      3  C   UNL d   1      27.406 -14.640   1.389  0.00  0.00     0.191 C 
ATOM      4  S   UNL d   1      27.042 -13.192   0.540  0.00  0.00    -0.039 SA
BRANCH   3   5
ATOM      5  N   UNL d   1      28.230 -14.833   2.624  0.00  0.00    -0.332 N 
ATOM      6  H   UNL d   1      28.959 -15.530   2.528  0.00  0.00     0.168 HD
BRANCH   5   7
ATOM      7  C   UNL d   1      28.294 -14.129   3.977  0.00  0.00     0.041 C 
ATOM      8  C   UNL d   1      28.883 -14.815   5.076  0.00  0.00     0.030 C 
ATOM      9  C   UNL d   1      28.861 -14.296   6.408  0.00  0.00     0.002 C 
ATOM     10  C   UNL d   1      28.267 -13.073   6.688  0.00  0.00     0.001 C 
ATOM     11  C   UNL d   1      27.781 -12.332   5.628  0.00  0.00     0.010 C 
ATOM     12  C   UNL d   1      27.940 -12.770   4.285  0.00  0.00    -0.028 C 
BRANCH  12  13
ATOM     13  C   UNL d   1      27.868 -11.618   3.281  0.00  0.00     0.013 C 
ATOM     14  C   UNL d   1      27.062 -10.374   3.568  0.00  0.00     0.015 C 
ATOM     15  C   UNL d   1      29.209 -10.989   3.197  0.00  0.00     0.015 C 
ENDBRANCH  12  13
ENDBRANCH   5   7
ENDBRANCH   3   5
ENDBRANCH   1   3
BRANCH   1  16
ATOM     16  N   UNL d   1      26.077 -16.098  -0.191  0.00  0.00    -0.268 N 
ATOM     17  C   UNL d   1      25.404 -17.304  -0.208  0.00  0.00     0.237 C 
ATOM     18  O   UNL d   1      25.846 -18.291   0.414  0.00  0.00    -0.272 OA
ATOM     19  H   UNL d   1      25.631 -15.247  -0.534  0.00  0.00     0.190 HD
BRANCH  17  20
ATOM     20  C   UNL d   1      24.116 -17.351  -1.030  0.00  0.00     0.119 C 
BRANCH  20  21
ATOM     21  C   UNL d   1      23.058 -18.209  -0.314  0.00  0.00     0.104 C 
BRANCH  21  22
ATOM     22  N   UNL d   1      21.757 -18.138  -0.987  0.00  0.00    -0.261 NA
ATOM     23  H   UNL d   1      21.753 -18.317  -1.982  0.00  0.00     0.130 HD
BRANCH  22  24
ATOM     24  C   UNL d   1      20.791 -18.955  -0.391  0.00  0.00     0.201 A 
ATOM     25  N   UNL d   1      19.730 -19.323  -1.131  0.00  0.00    -0.231 NA
ATOM     26  C   UNL d   1      18.788 -20.082  -0.518  0.00  0.00     0.121 A 
ATOM     27  C   UNL d   1      18.837 -20.440   0.806  0.00  0.00     0.039 A 
ATOM     28  C   UNL d   1      19.939 -19.985   1.480  0.00  0.00     0.121 A 
ATOM     29  N   UNL d   1      20.930 -19.277   0.903  0.00  0.00    -0.231 NA
ENDBRANCH  22  24
ENDBRANCH  21  22
ENDBRANCH  20  21
ENDBRANCH  17  20
ENDBRANCH   1  16
TORSDOF 9
ENDMDL
MODEL 3
REMARK VINA RESULT:   -30.756      3.217      4.925
REMARK INTER + INTRA:         -34.981
REMARK INTER:                 -33.441
REMARK INTRA:                  -1.539
REMARK CONF_INDEPENDENT:        2.685
REMARK UNBOUND:                -1.539
REMARK  9 active torsions:
REMARK  status: ('A' for Active; 'I' for Inactive)
REMARK    1  A    between atoms: C_2  and  C_4 
REMARK    2  A    between atoms: C_9  and  N_10 
REMARK    3  A    between atoms: N_10  and  C_11 
REMARK    4  A    between atoms: C_11  and  N_13 
REMARK    5  A    between atoms: N_13  and  N_14 
REMARK       I    between atoms: N_14  and  C_15 
REMARK    6  A    between atoms: C_15  and  C_17 
REMARK    7  A    between atoms: C_17  and  C_18 
REMARK    8  A    between atoms: C_18  and  N_19 
REMARK    9  A    between atoms: N_19  and  C_20 
ROOT
ATOM      1  N   UNL d   1      27.843 -17.598  -0.196  0.00  0.00    -0.274 N 
ATOM      2  H   UNL d   1      28.562 -18.135   0.289  0.00  0.00     0.189 HD
ENDROOT
BRANCH   1   3
ATOM      3  C   UNL d   1      28.200 -16.374  -0.869  0.00  0.00     0.191 C 
ATOM      4  S   UNL d   1      28.942 -15.112   0.029  0.00  0.00    -0.039 SA
BRANCH   3   5
ATOM      5  N   UNL d   1      27.539 -16.320  -2.211  0.00  0.00    -0.332 N 
ATOM      6  H   UNL d   1      27.451 -17.223  -2.663  0.00  0.00     0.168 HD
BRANCH   5   7
ATOM      7  C   UNL d   1      26.858 -15.216  -3.015  0.00  0.00     0.041 C 
ATOM      8  C   UNL d   1      25.793 -14.489  -2.412  0.00  0.00     0.030 C 
ATOM      9  C   UNL d   1      25.006 -13.539  -3.132  0.00  0.00     0.002 C 
ATOM     10  C   UNL d   1      25.259 -13.269  -4.470  0.00  0.00     0.001 C 
ATOM     11  C   UNL d   1      26.352 -13.876  -5.057  0.00  0.00     0.010 C 
ATOM     12  C   UNL d   1      27.232 -14.701  -4.304  0.00  0.00    -0.028 C 
BRANCH  12  13
ATOM     13  C   UNL d   1      28.622 -14.805  -4.937  0.00  0.00     0.013 C 
ATOM     14  C   UNL d   1      29.449 -16.061  -4.815  0.00  0.00     0.015 C 
ATOM     15  C   UNL d   1      28.464 -14.795  -6.412  0.00  0.00     0.015 C 
ENDBRANCH  12  13
ENDBRANCH   5   7
ENDBRANCH   3   5
ENDBRANCH   1   3
BRANCH   1  16
ATOM     16  N   UNL d   1      26.513 -17.760   0.404  0.00  0.00    -0.268 N 
ATOM     17  C   UNL d   1      25.404 -17.861  -0.412  0.00  0.00     0.237 C 
ATOM     18  O   UNL d   1      25.489 -17.638  -1.637  0.00  0.00    -0.272 OA
ATOM     19  H   UNL d   1      26.493 -18.121   1.358  0.00  0.00     0.190 HD
BRANCH  17  20
ATOM     20  C   UNL d   1      24.092 -18.248   0.270  0.00  0.00     0.119 C 
BRANCH  20  21
ATOM     21  C   UNL d   1      23.203 -19.048  -0.699  0.00  0.00     0.104 C 
BRANCH  21  22
ATOM     22  N   UNL d   1      21.936 -18.359  -0.967  0.00  0.00    -0.261 NA
ATOM     23  H   UNL d   1      21.709 -18.195  -1.938  0.00  0.00     0.130 HD
BRANCH  22  24
ATOM     24  C   UNL d   1      20.840 -18.977  -0.358  0.00  0.00     0.201 A 
ATOM     25  N   UNL d   1      20.918 -19.254   0.955  0.00  0.00    -0.231 NA
ATOM     26  C   UNL d   1      19.859 -19.890   1.512  0.00  0.00     0.121 A 
ATOM     27  C   UNL d   1      18.757 -20.304   0.806  0.00  0.00     0.039 A 
ATOM     28  C   UNL d   1      18.790 -20.006  -0.531  0.00  0.00     0.121 A 
ATOM     29  N   UNL d   1      19.793 -19.325  -1.121  0.00  0.00    -0.231 NA
ENDBRANCH  22  24
ENDBRANCH  21  22
ENDBRANCH  20  21
ENDBRANCH  17  20
ENDBRANCH   1  16
TORSDOF 9
ENDMDL
MODEL 4
REMARK VINA RESULT:   -30.616      3.123      5.064
REMARK INTER + INTRA:         -35.076
REMARK INTER:                 -33.301
REMARK INTRA:                  -1.775
REMARK CONF_INDEPENDENT:        2.685
REMARK UNBOUND:                -1.775
REMARK  9 active torsions:
REMARK  status: ('A' for Active; 'I' for Inactive)
REMARK    1  A    between atoms: C_2  and  C_4 
REMARK    2  A    between atoms: C_9  and  N_10 
REMARK    3  A    between atoms: N_10  and  C_11 
REMARK    4  A    between atoms: C_11  and  N_13 
REMARK    5  A    between atoms: N_13  and  N_14 
REMARK       I    between atoms: N_14  and  C_15 
REMARK    6  A    between atoms: C_15  and  C_17 
REMARK    7  A    between atoms: C_17  and  C_18 
REMARK    8  A    between atoms: C_18  and  N_19 
REMARK    9  A    between atoms: N_19  and  C_20 
ROOT
ATOM      1  N   UNL d   1      27.509 -17.139  -0.033  0.00  0.00    -0.274 N 
ATOM      2  H   UNL d   1      28.256 -17.384   0.615  0.00  0.00     0.189 HD
ENDROOT
BRANCH   1   3
ATOM      3  C   UNL d   1      27.633 -15.956  -0.849  0.00  0.00     0.191 C 
ATOM      4  S   UNL d   1      27.432 -14.414  -0.121  0.00  0.00    -0.039 SA
BRANCH   3   5
ATOM      5  N   UNL d   1      27.601 -16.332  -2.298  0.00  0.00    -0.332 N 
ATOM      6  H   UNL d   1      27.266 -17.272  -2.472  0.00  0.00     0.168 HD
BRANCH   5   7
ATOM      7  C   UNL d   1      27.853 -15.572  -3.596  0.00  0.00     0.041 C 
ATOM      8  C   UNL d   1      28.995 -15.910  -4.376  0.00  0.00     0.030 C 
ATOM      9  C   UNL d   1      29.389 -15.162  -5.528  0.00  0.00     0.002 C 
ATOM     10  C   UNL d   1      28.654 -14.062  -5.952  0.00  0.00     0.001 C 
ATOM     11  C   UNL d   1      27.482 -13.771  -5.282  0.00  0.00     0.010 C 
ATOM     12  C   UNL d   1      27.002 -14.604  -4.234  0.00  0.00    -0.028 C 
BRANCH  12  13
ATOM     13  C   UNL d   1      25.493 -14.465  -4.021  0.00  0.00     0.013 C 
ATOM     14  C   UNL d   1      24.838 -14.902  -2.733  0.00  0.00     0.015 C 
ATOM     15  C   UNL d   1      25.164 -13.021  -3.948  0.00  0.00     0.015 C 
ENDBRANCH  12  13
ENDBRANCH   5   7
ENDBRANCH   3   5
ENDBRANCH   1   3
BRANCH   1  16
ATOM     16  N   UNL d   1      26.191 -17.598   0.421  0.00  0.00    -0.268 N 
ATOM     17  C   UNL d   1      25.212 -17.887  -0.509  0.00  0.00     0.237 C 
ATOM     18  O   UNL d   1      25.366 -17.594  -1.712  0.00  0.00    -0.272 OA
ATOM     19  H   UNL d   1      26.154 -17.999   1.358  0.00  0.00     0.190 HD
BRANCH  17  20
ATOM     20  C   UNL d   1      23.950 -18.566   0.022  0.00  0.00     0.119 C 
BRANCH  20  21
ATOM     21  C   UNL d   1      22.954 -18.813  -1.125  0.00  0.00     0.104 C 
BRANCH  21  22
ATOM     22  N   UNL d   1      21.680 -18.124  -0.895  0.00  0.00    -0.261 NA
ATOM     23  H   UNL d   1      21.268 -17.659  -1.692  0.00  0.00     0.130 HD
BRANCH  22  24
ATOM     24  C   UNL d   1      20.710 -18.950  -0.319  0.00  0.00     0.201 A 
ATOM     25  N   UNL d   1      20.913 -19.383   0.938  0.00  0.00    -0.231 NA
ATOM     26  C   UNL d   1      19.978 -20.215   1.458  0.00  0.00     0.121 A 
ATOM     27  C   UNL d   1      18.885 -20.669   0.763  0.00  0.00     0.039 A 
ATOM     28  C   UNL d   1      18.788 -20.198  -0.520  0.00  0.00     0.121 A 
ATOM     29  N   UNL d   1      19.660 -19.325  -1.064  0.00  0.00    -0.231 NA
ENDBRANCH  22  24
ENDBRANCH  21  22
ENDBRANCH  20  21
ENDBRANCH  17  20
ENDBRANCH   1  16
TORSDOF 9
ENDMDL
MODEL 5
REMARK VINA RESULT:   -30.602      3.504      4.691
REMARK INTER + INTRA:         -34.949
REMARK INTER:                 -33.287
REMARK INTRA:                  -1.662
REMARK CONF_INDEPENDENT:        2.685
REMARK UNBOUND:                -1.662
REMARK  9 active torsions:
REMARK  status: ('A' for Active; 'I' for Inactive)
REMARK    1  A    between atoms: C_2  and  C_4 
REMARK    2  A    between atoms: C_9  and  N_10 
REMARK    3  A    between atoms: N_10  and  C_11 
REMARK    4  A    between atoms: C_11  and  N_13 
REMARK    5  A    between atoms: N_13  and  N_14 
REMARK       I    between atoms: N_14  and  C_15 
REMARK    6  A    between atoms: C_15  and  C_17 
REMARK    7  A    between atoms: C_17  and  C_18 
REMARK    8  A    between atoms: C_18  and  N_19 
REMARK    9  A    between atoms: N_19  and  C_20 
ROOT
ATOM      1  N   UNL d   1      25.938 -18.033   0.269  0.00  0.00    -0.274 N 
ATOM      2  H   UNL d   1      26.380 -18.600   0.992  0.00  0.00     0.189 HD
ENDROOT
BRANCH   1   3
ATOM      3  C   UNL d   1      26.702 -17.009  -0.400  0.00  0.00     0.191 C 
ATOM      4  S   UNL d   1      27.738 -16.000   0.527  0.00  0.00    -0.039 SA
BRANCH   3   5
ATOM      5  N   UNL d   1      26.182 -16.811  -1.789  0.00  0.00    -0.332 N 
ATOM      6  H   UNL d   1      25.707 -17.622  -2.170  0.00  0.00     0.168 HD
BRANCH   5   7
ATOM      7  C   UNL d   1      26.104 -15.615  -2.733  0.00  0.00     0.041 C 
ATOM      8  C   UNL d   1      24.935 -14.803  -2.713  0.00  0.00     0.030 C 
ATOM      9  C   UNL d   1      24.711 -13.752  -3.654  0.00  0.00     0.002 C 
ATOM     10  C   UNL d   1      25.649 -13.462  -4.637  0.00  0.00     0.001 C 
ATOM     11  C   UNL d   1      26.842 -14.158  -4.618  0.00  0.00     0.010 C 
ATOM     12  C   UNL d   1      27.135 -15.096  -3.591  0.00  0.00    -0.028 C 
BRANCH  12  13
ATOM     13  C   UNL d   1      28.638 -15.320  -3.415  0.00  0.00     0.013 C 
ATOM     14  C   UNL d   1      29.205 -16.700  -3.183  0.00  0.00     0.015 C 
ATOM     15  C   UNL d   1      29.307 -15.028  -4.706  0.00  0.00     0.015 C 
ENDBRANCH  12  13
ENDBRANCH   5   7
ENDBRANCH   3   5
ENDBRANCH   1   3
BRANCH   1  16
ATOM     16  N   UNL d   1      24.495 -17.870   0.480  0.00  0.00    -0.268 N 
ATOM     17  C   UNL d   1      23.617 -18.182  -0.540  0.00  0.00     0.237 C 
ATOM     18  O   UNL d   1      24.034 -18.426  -1.690  0.00  0.00    -0.272 OA
ATOM     19  H   UNL d   1      24.183 -17.856   1.450  0.00  0.00     0.190 HD
BRANCH  17  20
ATOM     20  C   UNL d   1      22.133 -18.200  -0.176  0.00  0.00     0.119 C 
BRANCH  20  21
ATOM     21  C   UNL d   1      21.329 -18.951  -1.252  0.00  0.00     0.104 C 
BRANCH  21  22
ATOM     22  N   UNL d   1      19.884 -18.789  -1.061  0.00  0.00    -0.261 NA
ATOM     23  H   UNL d   1      19.300 -18.961  -1.869  0.00  0.00     0.130 HD
BRANCH  22  24
ATOM     24  C   UNL d   1      19.388 -19.544   0.006  0.00  0.00     0.201 A 
ATOM     25  N   UNL d   1      19.979 -19.408   1.206  0.00  0.00    -0.231 NA
ATOM     26  C   UNL d   1      19.506 -20.180   2.214  0.00  0.00     0.121 A 
ATOM     27  C   UNL d   1      18.509 -21.111   2.062  0.00  0.00     0.039 A 
ATOM     28  C   UNL d   1      17.997 -21.197   0.794  0.00  0.00     0.121 A 
ATOM     29  N   UNL d   1      18.394 -20.413  -0.228  0.00  0.00    -0.231 NA
ENDBRANCH  22  24
ENDBRANCH  21  22
ENDBRANCH  20  21
ENDBRANCH  17  20
ENDBRANCH   1  16
TORSDOF 9
ENDMDL
MODEL 6
REMARK VINA RESULT:   -30.082      2.079      3.090
REMARK INTER + INTRA:         -34.331
REMARK INTER:                 -32.766
REMARK INTRA:                  -1.565
REMARK CONF_INDEPENDENT:        2.685
REMARK UNBOUND:                -1.565
REMARK  9 active torsions:
REMARK  status: ('A' for Active; 'I' for Inactive)
REMARK    1  A    between atoms: C_2  and  C_4 
REMARK    2  A    between atoms: C_9  and  N_10 
REMARK    3  A    between atoms: N_10  and  C_11 
REMARK    4  A    between atoms: C_11  and  N_13 
REMARK    5  A    between atoms: N_13  and  N_14 
REMARK       I    between atoms: N_14  and  C_15 
REMARK    6  A    between atoms: C_15  and  C_17 
REMARK    7  A    between atoms: C_17  and  C_18 
REMARK    8  A    between atoms: C_18  and  N_19 
REMARK    9  A    between atoms: N_19  and  C_20 
ROOT
ATOM      1  N   UNL d   1      24.684 -15.021  -2.496  0.00  0.00    -0.274 N 
ATOM      2  H   UNL d   1      23.720 -14.825  -2.763  0.00  0.00     0.189 HD
ENDROOT
BRANCH   1   3
ATOM      3  C   UNL d   1      25.760 -14.306  -3.138  0.00  0.00     0.191 C 
ATOM      4  S   UNL d   1      25.660 -13.981  -4.821  0.00  0.00    -0.039 SA
BRANCH   3   5
ATOM      5  N   UNL d   1      26.952 -14.261  -2.233  0.00  0.00    -0.332 N 
ATOM      6  H   UNL d   1      27.821 -14.045  -2.707  0.00  0.00     0.168 HD
BRANCH   5   7
ATOM      7  C   UNL d   1      27.141 -14.357  -0.722  0.00  0.00     0.041 C 
ATOM      8  C   UNL d   1      26.630 -13.312   0.099  0.00  0.00     0.030 C 
ATOM      9  C   UNL d   1      26.882 -13.245   1.504  0.00  0.00     0.002 C 
ATOM     10  C   UNL d   1      27.637 -14.220   2.142  0.00  0.00     0.001 C 
ATOM     11  C   UNL d   1      28.057 -15.304   1.396  0.00  0.00     0.010 C 
ATOM     12  C   UNL d   1      27.678 -15.456   0.034  0.00  0.00    -0.028 C 
BRANCH  12  13
ATOM     13  C   UNL d   1      27.741 -16.912  -0.432  0.00  0.00     0.013 C 
ATOM     14  C   UNL d   1      29.056 -17.645  -0.544  0.00  0.00     0.015 C 
ATOM     15  C   UNL d   1      27.112 -17.762   0.608  0.00  0.00     0.015 C 
ENDBRANCH  12  13
ENDBRANCH   5   7
ENDBRANCH   3   5
ENDBRANCH   1   3
BRANCH   1  16
ATOM     16  N   UNL d   1      24.875 -16.400  -2.033  0.00  0.00    -0.268 N 
ATOM     17  C   UNL d   1      24.231 -16.831  -0.889  0.00  0.00     0.237 C 
ATOM     18  O   UNL d   1      23.637 -16.023  -0.147  0.00  0.00    -0.272 OA
ATOM     19  H   UNL d   1      25.195 -17.068  -2.734  0.00  0.00     0.190 HD
BRANCH  17  20
ATOM     20  C   UNL d   1      24.301 -18.330  -0.595  0.00  0.00     0.119 C 
BRANCH  20  21
ATOM     21  C   UNL d   1      23.036 -19.034  -1.117  0.00  0.00     0.104 C 
BRANCH  21  22
ATOM     22  N   UNL d   1      21.826 -18.255  -0.835  0.00  0.00    -0.261 NA
ATOM     23  H   UNL d   1      21.448 -17.715  -1.602  0.00  0.00     0.130 HD
BRANCH  22  24
ATOM     24  C   UNL d   1      20.794 -19.028  -0.293  0.00  0.00     0.201 A 
ATOM     25  N   UNL d   1      19.746 -19.325  -1.080  0.00  0.00    -0.231 NA
ATOM     26  C   UNL d   1      18.741 -20.041  -0.518  0.00  0.00     0.121 A 
ATOM     27  C   UNL d   1      18.718 -20.424   0.800  0.00  0.00     0.039 A 
ATOM     28  C   UNL d   1      19.816 -20.042   1.524  0.00  0.00     0.121 A 
ATOM     29  N   UNL d   1      20.866 -19.379   0.999  0.00  0.00    -0.231 NA
ENDBRANCH  22  24
ENDBRANCH  21  22
ENDBRANCH  20  21
ENDBRANCH  17  20
ENDBRANCH   1  16
TORSDOF 9
ENDMDL
MODEL 7
REMARK VINA RESULT:   -30.042      2.390      3.653
REMARK INTER + INTRA:         -34.534
REMARK INTER:                 -32.727
REMARK INTRA:                  -1.807
REMARK CONF_INDEPENDENT:        2.685
REMARK UNBOUND:                -1.807
REMARK  9 active torsions:
REMARK  status: ('A' for Active; 'I' for Inactive)
REMARK    1  A    between atoms: C_2  and  C_4 
REMARK    2  A    between atoms: C_9  and  N_10 
REMARK    3  A    between atoms: N_10  and  C_11 
REMARK    4  A    between atoms: C_11  and  N_13 
REMARK    5  A    between atoms: N_13  and  N_14 
REMARK       I    between atoms: N_14  and  C_15 
REMARK    6  A    between atoms: C_15  and  C_17 
REMARK    7  A    between atoms: C_17  and  C_18 
REMARK    8  A    between atoms: C_18  and  N_19 
REMARK    9  A    between atoms: N_19  and  C_20 
ROOT
ATOM      1  N   UNL d   1      27.947 -17.576  -0.580  0.00  0.00    -0.274 N 
ATOM      2  H   UNL d   1      27.993 -17.886   0.391  0.00  0.00     0.189 HD
ENDROOT
BRANCH   1   3
ATOM      3  C   UNL d   1      29.000 -16.748  -1.114  0.00  0.00     0.191 C 
ATOM      4  S   UNL d   1      30.359 -16.386  -0.128  0.00  0.00    -0.039 SA
BRANCH   3   5
ATOM      5  N   UNL d   1      28.534 -16.078  -2.368  0.00  0.00    -0.332 N 
ATOM      6  H   UNL d   1      28.999 -16.405  -3.207  0.00  0.00     0.168 HD
BRANCH   5   7
ATOM      7  C   UNL d   1      27.423 -15.082  -2.689  0.00  0.00     0.041 C 
ATOM      8  C   UNL d   1      26.449 -15.435  -3.665  0.00  0.00     0.030 C 
ATOM      9  C   UNL d   1      25.460 -14.516  -4.132  0.00  0.00     0.002 C 
ATOM     10  C   UNL d   1      25.396 -13.221  -3.635  0.00  0.00     0.001 C 
ATOM     11  C   UNL d   1      26.257 -12.878  -2.611  0.00  0.00     0.010 C 
ATOM     12  C   UNL d   1      27.138 -13.834  -2.034  0.00  0.00    -0.028 C 
BRANCH  12  13
ATOM     13  C   UNL d   1      27.567 -13.453  -0.616  0.00  0.00     0.013 C 
ATOM     14  C   UNL d   1      27.513 -12.023  -0.136  0.00  0.00     0.015 C 
ATOM     15  C   UNL d   1      26.591 -14.035   0.338  0.00  0.00     0.015 C 
ENDBRANCH  12  13
ENDBRANCH   5   7
ENDBRANCH   3   5
ENDBRANCH   1   3
BRANCH   1  16
ATOM     16  N   UNL d   1      26.569 -17.439  -1.067  0.00  0.00    -0.268 N 
ATOM     17  C   UNL d   1      25.515 -17.651  -0.200  0.00  0.00     0.237 C 
ATOM     18  O   UNL d   1      25.707 -18.131   0.935  0.00  0.00    -0.272 OA
ATOM     19  H   UNL d   1      26.446 -16.878  -1.910  0.00  0.00     0.190 HD
BRANCH  17  20
ATOM     20  C   UNL d   1      24.126 -17.275  -0.716  0.00  0.00     0.119 C 
BRANCH  20  21
ATOM     21  C   UNL d   1      23.061 -18.199  -0.100  0.00  0.00     0.104 C 
BRANCH  21  22
ATOM     22  N   UNL d   1      21.907 -18.366  -0.991  0.00  0.00    -0.261 NA
ATOM     23  H   UNL d   1      22.083 -18.823  -1.876  0.00  0.00     0.130 HD
BRANCH  22  24
ATOM     24  C   UNL d   1      20.830 -19.009  -0.373  0.00  0.00     0.201 A 
ATOM     25  N   UNL d   1      20.950 -19.338   0.925  0.00  0.00    -0.231 NA
ATOM     26  C   UNL d   1      19.908 -19.995   1.490  0.00  0.00     0.121 A 
ATOM     27  C   UNL d   1      18.783 -20.380   0.804  0.00  0.00     0.039 A 
ATOM     28  C   UNL d   1      18.774 -20.028  -0.520  0.00  0.00     0.121 A 
ATOM     29  N   UNL d   1      19.759 -19.325  -1.114  0.00  0.00    -0.231 NA
ENDBRANCH  22  24
ENDBRANCH  21  22
ENDBRANCH  20  21
ENDBRANCH  17  20
ENDBRANCH   1  16
TORSDOF 9
ENDMDL
MODEL 8
REMARK VINA RESULT:   -30.010      2.442      3.592
REMARK INTER + INTRA:         -34.458
REMARK INTER:                 -32.695
REMARK INTRA:                  -1.763
REMARK CONF_INDEPENDENT:        2.685
REMARK UNBOUND:                -1.763
REMARK  9 active torsions:
REMARK  status: ('A' for Active; 'I' for Inactive)
REMARK    1  A    between atoms: C_2  and  C_4 
REMARK    2  A    between atoms: C_9  and  N_10 
REMARK    3  A    between atoms: N_10  and  C_11 
REMARK    4  A    between atoms: C_11  and  N_13 
REMARK    5  A    between atoms: N_13  and  N_14 
REMARK       I    between atoms: N_14  and  C_15 
REMARK    6  A    between atoms: C_15  and  C_17 
REMARK    7  A    between atoms: C_17  and  C_18 
REMARK    8  A    between atoms: C_18  and  N_19 
REMARK    9  A    between atoms: N_19  and  C_20 
ROOT
ATOM      1  N   UNL d   1      25.742 -17.876   0.273  0.00  0.00    -0.274 N 
ATOM      2  H   UNL d   1      25.611 -17.310   1.110  0.00  0.00     0.189 HD
ENDROOT
BRANCH   1   3
ATOM      3  C   UNL d   1      26.620 -17.410  -0.772  0.00  0.00     0.191 C 
ATOM      4  S   UNL d   1      28.319 -17.497  -0.538  0.00  0.00    -0.039 SA
BRANCH   3   5
ATOM      5  N   UNL d   1      25.841 -16.615  -1.774  0.00  0.00    -0.332 N 
ATOM      6  H   UNL d   1      24.989 -17.067  -2.086  0.00  0.00     0.168 HD
BRANCH   5   7
ATOM      7  C   UNL d   1      25.981 -15.211  -2.354  0.00  0.00     0.041 C 
ATOM      8  C   UNL d   1      25.027 -14.769  -3.314  0.00  0.00     0.030 C 
ATOM      9  C   UNL d   1      25.157 -13.531  -4.015  0.00  0.00     0.002 C 
ATOM     10  C   UNL d   1      26.231 -12.684  -3.774  0.00  0.00     0.001 C 
ATOM     11  C   UNL d   1      27.117 -13.030  -2.773  0.00  0.00     0.010 C 
ATOM     12  C   UNL d   1      26.907 -14.182  -1.966  0.00  0.00    -0.028 C 
BRANCH  12  13
ATOM     13  C   UNL d   1      27.622 -14.088  -0.616  0.00  0.00     0.013 C 
ATOM     14  C   UNL d   1      27.995 -12.755  -0.015  0.00  0.00     0.015 C 
ATOM     15  C   UNL d   1      26.686 -14.544   0.440  0.00  0.00     0.015 C 
ENDBRANCH  12  13
ENDBRANCH   5   7
ENDBRANCH   3   5
ENDBRANCH   1   3
BRANCH   1  16
ATOM     16  N   UNL d   1      24.568 -18.695  -0.048  0.00  0.00    -0.268 N 
ATOM     17  C   UNL d   1      23.466 -18.107  -0.638  0.00  0.00     0.237 C 
ATOM     18  O   UNL d   1      23.381 -16.866  -0.737  0.00  0.00    -0.272 OA
ATOM     19  H   UNL d   1      24.731 -19.698  -0.133  0.00  0.00     0.190 HD
BRANCH  17  20
ATOM     20  C   UNL d   1      22.378 -19.055  -1.142  0.00  0.00     0.119 C 
BRANCH  20  21
ATOM     21  C   UNL d   1      21.016 -18.339  -1.164  0.00  0.00     0.104 C 
BRANCH  21  22
ATOM     22  N   UNL d   1      19.905 -19.291  -1.270  0.00  0.00    -0.261 NA
ATOM     23  H   UNL d   1      20.012 -20.036  -1.944  0.00  0.00     0.130 HD
BRANCH  22  24
ATOM     24  C   UNL d   1      19.555 -19.858  -0.041  0.00  0.00     0.201 A 
ATOM     25  N   UNL d   1      18.499 -20.690  -0.006  0.00  0.00    -0.231 NA
ATOM     26  C   UNL d   1      18.155 -21.195   1.204  0.00  0.00     0.121 A 
ATOM     27  C   UNL d   1      18.786 -20.865   2.378  0.00  0.00     0.039 A 
ATOM     28  C   UNL d   1      19.825 -19.983   2.239  0.00  0.00     0.121 A 
ATOM     29  N   UNL d   1      20.242 -19.498   1.053  0.00  0.00    -0.231 NA
ENDBRANCH  22  24
ENDBRANCH  21  22
ENDBRANCH  20  21
ENDBRANCH  17  20
ENDBRANCH   1  16
TORSDOF 9
ENDMDL
MODEL 9
REMARK VINA RESULT:   -29.973      1.326      2.925
REMARK INTER + INTRA:         -34.315
REMARK INTER:                 -32.658
REMARK INTRA:                  -1.657
REMARK CONF_INDEPENDENT:        2.685
REMARK UNBOUND:                -1.657
REMARK  9 active torsions:
REMARK  status: ('A' for Active; 'I' for Inactive)
REMARK    1  A    between atoms: C_2  and  C_4 
REMARK    2  A    between atoms: C_9  and  N_10 
REMARK    3  A    between atoms: N_10  and  C_11 
REMARK    4  A    between atoms: C_11  and  N_13 
REMARK    5  A    between atoms: N_13  and  N_14 
REMARK       I    between atoms: N_14  and  C_15 
REMARK    6  A    between atoms: C_15  and  C_17 
REMARK    7  A    between atoms: C_17  and  C_18 
REMARK    8  A    between atoms: C_18  and  N_19 
REMARK    9  A    between atoms: N_19  and  C_20 
ROOT
ATOM      1  N   UNL d   1      27.861 -17.473  -0.261  0.00  0.00    -0.274 N 
ATOM      2  H   UNL d   1      27.712 -18.066   0.555  0.00  0.00     0.189 HD
ENDROOT
BRANCH   1   3
ATOM      3  C   UNL d   1      28.963 -16.543  -0.274  0.00  0.00     0.191 C 
ATOM      4  S   UNL d   1      30.273 -16.814  -1.351  0.00  0.00    -0.039 SA
BRANCH   3   5
ATOM      5  N   UNL d   1      28.893 -15.655   0.930  0.00  0.00    -0.332 N 
ATOM      6  H   UNL d   1      29.485 -15.954   1.697  0.00  0.00     0.168 HD
BRANCH   5   7
ATOM      7  C   UNL d   1      28.212 -14.323   1.227  0.00  0.00     0.041 C 
ATOM      8  C   UNL d   1      28.566 -13.625   2.416  0.00  0.00     0.030 C 
ATOM      9  C   UNL d   1      27.882 -12.446   2.849  0.00  0.00     0.002 C 
ATOM     10  C   UNL d   1      26.836 -11.915   2.107  0.00  0.00     0.001 C 
ATOM     11  C   UNL d   1      26.537 -12.505   0.894  0.00  0.00     0.010 C 
ATOM     12  C   UNL d   1      27.314 -13.581   0.384  0.00  0.00    -0.028 C 
BRANCH  12  13
ATOM     13  C   UNL d   1      27.207 -13.710  -1.137  0.00  0.00     0.013 C 
ATOM     14  C   UNL d   1      25.903 -14.074  -1.804  0.00  0.00     0.015 C 
ATOM     15  C   UNL d   1      27.383 -12.364  -1.732  0.00  0.00     0.015 C 
ENDBRANCH  12  13
ENDBRANCH   5   7
ENDBRANCH   3   5
ENDBRANCH   1   3
BRANCH   1  16
ATOM     16  N   UNL d   1      26.616 -17.167  -0.975  0.00  0.00    -0.268 N 
ATOM     17  C   UNL d   1      25.422 -17.690  -0.520  0.00  0.00     0.237 C 
ATOM     18  O   UNL d   1      25.405 -18.560   0.374  0.00  0.00    -0.272 OA
ATOM     19  H   UNL d   1      26.630 -16.332  -1.561  0.00  0.00     0.190 HD
BRANCH  17  20
ATOM     20  C   UNL d   1      24.151 -17.152  -1.176  0.00  0.00     0.119 C 
BRANCH  20  21
ATOM     21  C   UNL d   1      22.908 -17.656  -0.423  0.00  0.00     0.104 C 
BRANCH  21  22
ATOM     22  N   UNL d   1      22.104 -18.564  -1.249  0.00  0.00    -0.261 NA
ATOM     23  H   UNL d   1      22.595 -19.335  -1.681  0.00  0.00     0.130 HD
BRANCH  22  24
ATOM     24  C   UNL d   1      20.992 -19.076  -0.573  0.00  0.00     0.201 A 
ATOM     25  N   UNL d   1      21.122 -19.356   0.736  0.00  0.00    -0.231 NA
ATOM     26  C   UNL d   1      20.042 -19.889   1.359  0.00  0.00     0.121 A 
ATOM     27  C   UNL d   1      18.866 -20.198   0.721  0.00  0.00     0.039 A 
ATOM     28  C   UNL d   1      18.849 -19.907  -0.617  0.00  0.00     0.121 A 
ATOM     29  N   UNL d   1      19.874 -19.325  -1.270  0.00  0.00    -0.231 NA
ENDBRANCH  22  24
ENDBRANCH  21  22
ENDBRANCH  20  21
ENDBRANCH  17  20
ENDBRANCH   1  16
TORSDOF 9
ENDMDL
