MODEL 1
REMARK VINA RESULT:    -7.550      0.000      0.000
REMARK INTER + INTRA:          -9.501
REMARK INTER:                  -8.743
REMARK INTRA:                  -0.758
REMARK CONF_INDEPENDENT:        1.193
REMARK UNBOUND:                -0.758
REMARK  4 active torsions:
REMARK  status: ('A' for Active; 'I' for Inactive)
REMARK    1  A    between atoms: C_5  and  C_6 
REMARK       I    between atoms: C_6  and  N_7 
REMARK    2  A    between atoms: C_10  and  N_11 
REMARK       I    between atoms: N_11  and  C_12 
REMARK    3  A    between atoms: C_12  and  C_14 
REMARK    4  A    between atoms: C_18  and  C_19 
ROOT
ATOM      1  N   UNL d   1      25.644 -16.142  -2.934  0.00  0.00    -0.322 N 
ATOM      2  C   UNL d   1      25.476 -14.792  -3.227  0.00  0.00     0.256 C 
ATOM      3  O   UNL d   1      25.004 -14.448  -4.309  0.00  0.00    -0.267 OA
ATOM      4  H   UNL d   1      25.897 -16.700  -3.744  0.00  0.00     0.169 HD
ENDROOT
BRANCH   1   5
ATOM      5  C   UNL d   1      25.212 -16.862  -1.777  0.00  0.00     0.042 C 
ATOM      6  C   UNL d   1      23.825 -17.129  -1.644  0.00  0.00     0.047 C 
ATOM      7  C   UNL d   1      23.336 -17.939  -0.591  0.00  0.00     0.034 C 
ATOM      8  C   UNL d   1      24.244 -18.494   0.307  0.00  0.00     0.017 C 
ATOM      9  C   UNL d   1      25.593 -18.200   0.209  0.00  0.00     0.010 C 
ATOM     10  C   UNL d   1      26.083 -17.329  -0.766  0.00  0.00    -0.035 C 
ATOM     11  C   UNL d   1      27.533 -16.975  -0.601  0.00  0.00     0.050 C 
BRANCH   7  12
ATOM     12  C   UNL d   1      21.867 -18.212  -0.453  0.00  0.00     0.249 C 
ATOM     13  N   UNL d   1      21.482 -19.362   0.202  0.00  0.00    -0.366 N 
ATOM     14  H   UNL d   1      22.097 -20.050   0.602  0.00  0.00     0.159 HD
ATOM     15  H   UNL d   1      20.490 -19.537   0.294  0.00  0.00     0.159 HD
ATOM     16  O   UNL d   1      21.030 -17.450  -0.895  0.00  0.00    -0.268 OA
ENDBRANCH   7  12
ENDBRANCH   1   5
BRANCH   2  17
ATOM     17  C   UNL d   1      25.905 -13.740  -2.227  0.00  0.00     0.033 C 
ATOM     18  C   UNL d   1      26.300 -14.146  -0.937  0.00  0.00     0.017 C 
ATOM     19  C   UNL d   1      27.019 -13.270  -0.108  0.00  0.00     0.002 C 
ATOM     20  C   UNL d   1      27.399 -12.008  -0.576  0.00  0.00     0.016 C 
ATOM     21  C   UNL d   1      27.031 -11.592  -1.864  0.00  0.00     0.048 C 
ATOM     22  C   UNL d   1      26.202 -12.425  -2.642  0.00  0.00     0.033 C 
BRANCH  21  23
ATOM     23  C   UNL d   1      27.630 -10.341  -2.467  0.00  0.00     0.417 C 
ATOM     24  F   UNL d   1      28.532 -10.621  -3.441  0.00  0.00    -0.166 F 
ATOM     25  F   UNL d   1      26.694  -9.526  -3.037  0.00  0.00    -0.166 F 
ATOM     26  F   UNL d   1      28.279  -9.556  -1.560  0.00  0.00    -0.166 F 
ENDBRANCH  21  23
ENDBRANCH   2  17
TORSDOF 4
ENDMDL
MODEL 2
REMARK VINA RESULT:    -7.400      4.863      7.026
REMARK INTER + INTRA:          -9.410
REMARK INTER:                  -8.594
REMARK INTRA:                  -0.816
REMARK CONF_INDEPENDENT:        1.193
REMARK UNBOUND:                -0.816
REMARK  4 active torsions:
REMARK  status: ('A' for Active; 'I' for Inactive)
REMARK    1  A    between atoms: C_5  and  C_6 
REMARK       I    between atoms: C_6  and  N_7 
REMARK    2  A    between atoms: C_10  and  N_11 
REMARK       I    between atoms: N_11  and  C_12 
REMARK    3  A    between atoms: C_12  and  C_14 
REMARK    4  A    between atoms: C_18  and  C_19 
ROOT
ATOM      1  N   UNL d   1      27.049 -14.828  -3.008  0.00  0.00    -0.322 N 
ATOM      2  C   UNL d   1      25.754 -15.291  -2.800  0.00  0.00     0.256 C 
ATOM      3  O   UNL d   1      24.801 -14.722  -3.329  0.00  0.00    -0.267 OA
ATOM      4  H   UNL d   1      27.106 -13.816  -3.089  0.00  0.00     0.169 HD
ENDROOT
BRANCH   1   5
ATOM      5  C   UNL d   1      28.202 -15.563  -3.426  0.00  0.00     0.042 C 
ATOM      6  C   UNL d   1      28.937 -16.261  -2.433  0.00  0.00     0.047 C 
ATOM      7  C   UNL d   1      30.017 -17.106  -2.784  0.00  0.00     0.034 C 
ATOM      8  C   UNL d   1      30.335 -17.265  -4.131  0.00  0.00     0.017 C 
ATOM      9  C   UNL d   1      29.651 -16.552  -5.100  0.00  0.00     0.010 C 
ATOM     10  C   UNL d   1      28.645 -15.642  -4.766  0.00  0.00    -0.035 C 
ATOM     11  C   UNL d   1      28.152 -14.821  -5.922  0.00  0.00     0.050 C 
BRANCH   7  12
ATOM     12  C   UNL d   1      30.794 -17.836  -1.728  0.00  0.00     0.249 C 
ATOM     13  N   UNL d   1      30.175 -18.076  -0.520  0.00  0.00    -0.366 N 
ATOM     14  H   UNL d   1      29.239 -17.803  -0.270  0.00  0.00     0.159 HD
ATOM     15  H   UNL d   1      30.704 -18.571   0.185  0.00  0.00     0.159 HD
ATOM     16  O   UNL d   1      31.932 -18.216  -1.919  0.00  0.00    -0.268 OA
ENDBRANCH   7  12
ENDBRANCH   1   5
BRANCH   2  17
ATOM     17  C   UNL d   1      25.511 -16.479  -1.895  0.00  0.00     0.033 C 
ATOM     18  C   UNL d   1      26.439 -16.760  -0.873  0.00  0.00     0.017 C 
ATOM     19  C   UNL d   1      26.090 -17.616   0.184  0.00  0.00     0.002 C 
ATOM     20  C   UNL d   1      24.801 -18.153   0.262  0.00  0.00     0.016 C 
ATOM     21  C   UNL d   1      23.856 -17.871  -0.736  0.00  0.00     0.048 C 
ATOM     22  C   UNL d   1      24.252 -17.115  -1.858  0.00  0.00     0.033 C 
BRANCH  21  23
ATOM     23  C   UNL d   1      22.403 -18.244  -0.545  0.00  0.00     0.417 C 
ATOM     24  F   UNL d   1      21.564 -17.236  -0.894  0.00  0.00    -0.166 F 
ATOM     25  F   UNL d   1      22.030 -19.325  -1.292  0.00  0.00    -0.166 F 
ATOM     26  F   UNL d   1      22.090 -18.575   0.740  0.00  0.00    -0.166 F 
ENDBRANCH  21  23
ENDBRANCH   2  17
TORSDOF 4
ENDMDL
MODEL 3
REMARK VINA RESULT:    -7.192      2.842      3.647
REMARK INTER + INTRA:          -9.326
REMARK INTER:                  -8.385
REMARK INTRA:                  -0.941
REMARK CONF_INDEPENDENT:        1.193
REMARK UNBOUND:                -0.941
REMARK  4 active torsions:
REMARK  status: ('A' for Active; 'I' for Inactive)
REMARK    1  A    between atoms: C_5  and  C_6 
REMARK       I    between atoms: C_6  and  N_7 
REMARK    2  A    between atoms: C_10  and  N_11 
REMARK       I    between atoms: N_11  and  C_12 
REMARK    3  A    between atoms: C_12  and  C_14 
REMARK    4  A    between atoms: C_18  and  C_19 
ROOT
ATOM      1  N   UNL d   1      25.392 -15.197  -0.216  0.00  0.00    -0.322 N 
ATOM      2  C   UNL d   1      26.398 -14.663  -1.015  0.00  0.00     0.256 C 
ATOM      3  O   UNL d   1      27.305 -14.004  -0.510  0.00  0.00    -0.267 OA
ATOM      4  H   UNL d   1      25.145 -14.603   0.570  0.00  0.00     0.169 HD
ENDROOT
BRANCH   1   5
ATOM      5  C   UNL d   1      24.915 -16.544  -0.167  0.00  0.00     0.042 C 
ATOM      6  C   UNL d   1      23.522 -16.759  -0.339  0.00  0.00     0.047 C 
ATOM      7  C   UNL d   1      22.992 -18.068  -0.422  0.00  0.00     0.034 C 
ATOM      8  C   UNL d   1      23.864 -19.152  -0.358  0.00  0.00     0.017 C 
ATOM      9  C   UNL d   1      25.216 -18.950  -0.145  0.00  0.00     0.010 C 
ATOM     10  C   UNL d   1      25.746 -17.670   0.033  0.00  0.00    -0.035 C 
ATOM     11  C   UNL d   1      27.190 -17.655   0.446  0.00  0.00     0.050 C 
BRANCH   7  12
ATOM     12  C   UNL d   1      21.518 -18.288  -0.597  0.00  0.00     0.249 C 
ATOM     13  N   UNL d   1      20.945 -19.370   0.037  0.00  0.00    -0.366 N 
ATOM     14  H   UNL d   1      21.426 -20.041   0.612  0.00  0.00     0.159 HD
ATOM     15  H   UNL d   1      19.951 -19.509  -0.084  0.00  0.00     0.159 HD
ATOM     16  O   UNL d   1      20.835 -17.541  -1.270  0.00  0.00    -0.268 OA
ENDBRANCH   7  12
ENDBRANCH   1   5
BRANCH   2  17
ATOM     17  C   UNL d   1      26.361 -14.864  -2.515  0.00  0.00     0.033 C 
ATOM     18  C   UNL d   1      25.366 -14.209  -3.267  0.00  0.00     0.017 C 
ATOM     19  C   UNL d   1      25.499 -14.087  -4.660  0.00  0.00     0.002 C 
ATOM     20  C   UNL d   1      26.644 -14.564  -5.305  0.00  0.00     0.016 C 
ATOM     21  C   UNL d   1      27.654 -15.203  -4.572  0.00  0.00     0.048 C 
ATOM     22  C   UNL d   1      27.457 -15.435  -3.195  0.00  0.00     0.033 C 
BRANCH  21  23
ATOM     23  C   UNL d   1      28.990 -15.508  -5.209  0.00  0.00     0.417 C 
ATOM     24  F   UNL d   1      29.496 -16.698  -4.797  0.00  0.00    -0.166 F 
ATOM     25  F   UNL d   1      28.925 -15.573  -6.572  0.00  0.00    -0.166 F 
ATOM     26  F   UNL d   1      29.946 -14.573  -4.944  0.00  0.00    -0.166 F 
ENDBRANCH  21  23
ENDBRANCH   2  17
TORSDOF 4
ENDMDL
MODEL 4
REMARK VINA RESULT:    -7.116      1.988      2.590
REMARK INTER + INTRA:          -9.213
REMARK INTER:                  -8.309
REMARK INTRA:                  -0.904
REMARK CONF_INDEPENDENT:        1.193
REMARK UNBOUND:                -0.904
REMARK  4 active torsions:
REMARK  status: ('A' for Active; 'I' for Inactive)
REMARK    1  A    between atoms: C_5  and  C_6 
REMARK       I    between atoms: C_6  and  N_7 
REMARK    2  A    between atoms: C_10  and  N_11 
REMARK       I    between atoms: N_11  and  C_12 
REMARK    3  A    between atoms: C_12  and  C_14 
REMARK    4  A    between atoms: C_18  and  C_19 
ROOT
ATOM      1  N   UNL d   1      25.595 -16.063  -3.252  0.00  0.00    -0.322 N 
ATOM      2  C   UNL d   1      25.583 -14.703  -3.546  0.00  0.00     0.256 C 
ATOM      3  O   UNL d   1      24.955 -14.285  -4.516  0.00  0.00    -0.267 OA
ATOM      4  H   UNL d   1      25.582 -16.653  -4.080  0.00  0.00     0.169 HD
ENDROOT
BRANCH   1   5
ATOM      5  C   UNL d   1      25.307 -16.708  -2.010  0.00  0.00     0.042 C 
ATOM      6  C   UNL d   1      23.945 -16.932  -1.680  0.00  0.00     0.047 C 
ATOM      7  C   UNL d   1      23.586 -17.670  -0.527  0.00  0.00     0.034 C 
ATOM      8  C   UNL d   1      24.594 -18.200   0.273  0.00  0.00     0.017 C 
ATOM      9  C   UNL d   1      25.924 -17.946  -0.018  0.00  0.00     0.010 C 
ATOM     10  C   UNL d   1      26.296 -17.143  -1.098  0.00  0.00    -0.035 C 
ATOM     11  C   UNL d   1      27.762 -16.818  -1.145  0.00  0.00     0.050 C 
BRANCH   7  12
ATOM     12  C   UNL d   1      22.143 -17.897  -0.182  0.00  0.00     0.249 C 
ATOM     13  N   UNL d   1      21.856 -18.576   0.984  0.00  0.00    -0.366 N 
ATOM     14  H   UNL d   1      22.529 -18.943   1.635  0.00  0.00     0.159 HD
ATOM     15  H   UNL d   1      20.882 -18.721   1.211  0.00  0.00     0.159 HD
ATOM     16  O   UNL d   1      21.244 -17.497  -0.894  0.00  0.00    -0.268 OA
ENDBRANCH   7  12
ENDBRANCH   1   5
BRANCH   2  17
ATOM     17  C   UNL d   1      26.372 -13.737  -2.689  0.00  0.00     0.033 C 
ATOM     18  C   UNL d   1      26.589 -12.427  -3.161  0.00  0.00     0.017 C 
ATOM     19  C   UNL d   1      27.001 -11.416  -2.277  0.00  0.00     0.002 C 
ATOM     20  C   UNL d   1      27.145 -11.686  -0.913  0.00  0.00     0.016 C 
ATOM     21  C   UNL d   1      26.916 -12.979  -0.420  0.00  0.00     0.048 C 
ATOM     22  C   UNL d   1      26.626 -14.017  -1.330  0.00  0.00     0.033 C 
BRANCH  21  23
ATOM     23  C   UNL d   1      26.835 -13.231   1.069  0.00  0.00     0.417 C 
ATOM     24  F   UNL d   1      25.583 -13.038   1.555  0.00  0.00    -0.166 F 
ATOM     25  F   UNL d   1      27.184 -14.506   1.411  0.00  0.00    -0.166 F 
ATOM     26  F   UNL d   1      27.657 -12.428   1.802  0.00  0.00    -0.166 F 
ENDBRANCH  21  23
ENDBRANCH   2  17
TORSDOF 4
ENDMDL
MODEL 5
REMARK VINA RESULT:    -7.039      4.500      7.203
REMARK INTER + INTRA:          -9.122
REMARK INTER:                  -8.232
REMARK INTRA:                  -0.890
REMARK CONF_INDEPENDENT:        1.193
REMARK UNBOUND:                -0.890
REMARK  4 active torsions:
REMARK  status: ('A' for Active; 'I' for Inactive)
REMARK    1  A    between atoms: C_5  and  C_6 
REMARK       I    between atoms: C_6  and  N_7 
REMARK    2  A    between atoms: C_10  and  N_11 
REMARK       I    between atoms: N_11  and  C_12 
REMARK    3  A    between atoms: C_12  and  C_14 
REMARK    4  A    between atoms: C_18  and  C_19 
ROOT
ATOM      1  N   UNL d   1      27.480 -14.291  -1.598  0.00  0.00    -0.322 N 
ATOM      2  C   UNL d   1      26.622 -14.699  -0.582  0.00  0.00     0.256 C 
ATOM      3  O   UNL d   1      26.280 -13.908   0.295  0.00  0.00    -0.267 OA
ATOM      4  H   UNL d   1      28.177 -13.619  -1.289  0.00  0.00     0.169 HD
ENDROOT
BRANCH   1   5
ATOM      5  C   UNL d   1      27.317 -14.432  -3.011  0.00  0.00     0.042 C 
ATOM      6  C   UNL d   1      28.487 -14.586  -3.799  0.00  0.00     0.047 C 
ATOM      7  C   UNL d   1      28.402 -14.851  -5.187  0.00  0.00     0.034 C 
ATOM      8  C   UNL d   1      27.144 -14.983  -5.770  0.00  0.00     0.017 C 
ATOM      9  C   UNL d   1      26.000 -14.788  -5.016  0.00  0.00     0.010 C 
ATOM     10  C   UNL d   1      26.064 -14.434  -3.666  0.00  0.00    -0.035 C 
ATOM     11  C   UNL d   1      24.737 -14.075  -3.062  0.00  0.00     0.050 C 
BRANCH   7  12
ATOM     12  C   UNL d   1      29.643 -15.007  -6.015  0.00  0.00     0.249 C 
ATOM     13  N   UNL d   1      29.557 -14.741  -7.366  0.00  0.00    -0.366 N 
ATOM     14  H   UNL d   1      28.731 -14.450  -7.860  0.00  0.00     0.159 HD
ATOM     15  H   UNL d   1      30.399 -14.845  -7.916  0.00  0.00     0.159 HD
ATOM     16  O   UNL d   1      30.700 -15.351  -5.526  0.00  0.00    -0.268 OA
ENDBRANCH   7  12
ENDBRANCH   1   5
BRANCH   2  17
ATOM     17  C   UNL d   1      26.131 -16.131  -0.535  0.00  0.00     0.033 C 
ATOM     18  C   UNL d   1      26.867 -17.081   0.200  0.00  0.00     0.017 C 
ATOM     19  C   UNL d   1      26.283 -18.308   0.554  0.00  0.00     0.002 C 
ATOM     20  C   UNL d   1      24.950 -18.575   0.230  0.00  0.00     0.016 C 
ATOM     21  C   UNL d   1      24.194 -17.635  -0.486  0.00  0.00     0.048 C 
ATOM     22  C   UNL d   1      24.823 -16.461  -0.948  0.00  0.00     0.033 C 
BRANCH  21  23
ATOM     23  C   UNL d   1      22.699 -17.804  -0.635  0.00  0.00     0.417 C 
ATOM     24  F   UNL d   1      22.376 -18.655  -1.641  0.00  0.00    -0.166 F 
ATOM     25  F   UNL d   1      22.107 -18.303   0.490  0.00  0.00    -0.166 F 
ATOM     26  F   UNL d   1      22.042 -16.638  -0.895  0.00  0.00    -0.166 F 
ENDBRANCH  21  23
ENDBRANCH   2  17
TORSDOF 4
ENDMDL
MODEL 6
REMARK VINA RESULT:    -7.019      2.124      2.443
REMARK INTER + INTRA:          -9.249
REMARK INTER:                  -8.212
REMARK INTRA:                  -1.037
REMARK CONF_INDEPENDENT:        1.193
REMARK UNBOUND:                -1.037
REMARK  4 active torsions:
REMARK  status: ('A' for Active; 'I' for Inactive)
REMARK    1  A    between atoms: C_5  and  C_6 
REMARK       I    between atoms: C_6  and  N_7 
REMARK    2  A    between atoms: C_10  and  N_11 
REMARK       I    between atoms: N_11  and  C_12 
REMARK    3  A    between atoms: C_12  and  C_14 
REMARK    4  A    between atoms: C_18  and  C_19 
ROOT
ATOM      1  N   UNL d   1      25.444 -16.387  -2.988  0.00  0.00    -0.322 N 
ATOM      2  C   UNL d   1      25.681 -15.033  -3.196  0.00  0.00     0.256 C 
ATOM      3  O   UNL d   1      25.154 -14.450  -4.141  0.00  0.00    -0.267 OA
ATOM      4  H   UNL d   1      25.340 -16.914  -3.851  0.00  0.00     0.169 HD
ENDROOT
BRANCH   1   5
ATOM      5  C   UNL d   1      25.026 -17.045  -1.790  0.00  0.00     0.042 C 
ATOM      6  C   UNL d   1      23.655 -17.392  -1.670  0.00  0.00     0.047 C 
ATOM      7  C   UNL d   1      23.188 -18.150  -0.570  0.00  0.00     0.034 C 
ATOM      8  C   UNL d   1      24.103 -18.575   0.390  0.00  0.00     0.017 C 
ATOM      9  C   UNL d   1      25.433 -18.200   0.303  0.00  0.00     0.010 C 
ATOM     10  C   UNL d   1      25.895 -17.375  -0.725  0.00  0.00    -0.035 C 
ATOM     11  C   UNL d   1      27.314 -16.916  -0.552  0.00  0.00     0.050 C 
BRANCH   7  12
ATOM     12  C   UNL d   1      21.736 -18.508  -0.447  0.00  0.00     0.249 C 
ATOM     13  N   UNL d   1      21.412 -19.681   0.201  0.00  0.00    -0.366 N 
ATOM     14  H   UNL d   1      22.062 -20.334   0.605  0.00  0.00     0.159 HD
ATOM     15  H   UNL d   1      20.431 -19.913   0.283  0.00  0.00     0.159 HD
ATOM     16  O   UNL d   1      20.861 -17.795  -0.895  0.00  0.00    -0.268 OA
ENDBRANCH   7  12
ENDBRANCH   1   5
BRANCH   2  17
ATOM     17  C   UNL d   1      26.616 -14.277  -2.275  0.00  0.00     0.033 C 
ATOM     18  C   UNL d   1      26.172 -13.935  -0.983  0.00  0.00     0.017 C 
ATOM     19  C   UNL d   1      27.096 -13.554   0.004  0.00  0.00     0.002 C 
ATOM     20  C   UNL d   1      28.467 -13.564  -0.270  0.00  0.00     0.016 C 
ATOM     21  C   UNL d   1      28.930 -13.919  -1.545  0.00  0.00     0.048 C 
ATOM     22  C   UNL d   1      27.993 -14.178  -2.566  0.00  0.00     0.033 C 
BRANCH  21  23
ATOM     23  C   UNL d   1      30.403 -14.165  -1.786  0.00  0.00     0.417 C 
ATOM     24  F   UNL d   1      30.876 -15.207  -1.058  0.00  0.00    -0.166 F 
ATOM     25  F   UNL d   1      30.686 -14.452  -3.091  0.00  0.00    -0.166 F 
ATOM     26  F   UNL d   1      31.190 -13.095  -1.478  0.00  0.00    -0.166 F 
ENDBRANCH  21  23
ENDBRANCH   2  17
TORSDOF 4
ENDMDL
MODEL 7
REMARK VINA RESULT:    -6.995      4.814      6.756
REMARK INTER + INTRA:          -9.173
REMARK INTER:                  -8.189
REMARK INTRA:                  -0.984
REMARK CONF_INDEPENDENT:        1.193
REMARK UNBOUND:                -0.984
REMARK  4 active torsions:
REMARK  status: ('A' for Active; 'I' for Inactive)
REMARK    1  A    between atoms: C_5  and  C_6 
REMARK       I    between atoms: C_6  and  N_7 
REMARK    2  A    between atoms: C_10  and  N_11 
REMARK       I    between atoms: N_11  and  C_12 
REMARK    3  A    between atoms: C_12  and  C_14 
REMARK    4  A    between atoms: C_18  and  C_19 
ROOT
ATOM      1  N   UNL d   1      26.191 -14.178  -1.381  0.00  0.00    -0.322 N 
ATOM      2  C   UNL d   1      25.684 -15.209  -2.165  0.00  0.00     0.256 C 
ATOM      3  O   UNL d   1      25.492 -15.036  -3.367  0.00  0.00    -0.267 OA
ATOM      4  H   UNL d   1      25.864 -13.259  -1.666  0.00  0.00     0.169 HD
ENDROOT
BRANCH   1   5
ATOM      5  C   UNL d   1      27.305 -14.205  -0.486  0.00  0.00     0.042 C 
ATOM      6  C   UNL d   1      27.043 -14.048   0.900  0.00  0.00     0.047 C 
ATOM      7  C   UNL d   1      28.077 -14.183   1.858  0.00  0.00     0.034 C 
ATOM      8  C   UNL d   1      29.361 -14.500   1.421  0.00  0.00     0.017 C 
ATOM      9  C   UNL d   1      29.631 -14.610   0.067  0.00  0.00     0.010 C 
ATOM     10  C   UNL d   1      28.645 -14.388  -0.897  0.00  0.00    -0.035 C 
ATOM     11  C   UNL d   1      29.161 -14.357  -2.307  0.00  0.00     0.050 C 
BRANCH   7  12
ATOM     12  C   UNL d   1      27.794 -14.009   3.321  0.00  0.00     0.249 C 
ATOM     13  N   UNL d   1      28.434 -14.848   4.208  0.00  0.00    -0.366 N 
ATOM     14  H   UNL d   1      29.081 -15.580   3.968  0.00  0.00     0.159 HD
ATOM     15  H   UNL d   1      28.240 -14.721   5.192  0.00  0.00     0.159 HD
ATOM     16  O   UNL d   1      27.030 -13.156   3.728  0.00  0.00    -0.268 OA
ENDBRANCH   7  12
ENDBRANCH   1   5
BRANCH   2  17
ATOM     17  C   UNL d   1      25.337 -16.540  -1.534  0.00  0.00     0.033 C 
ATOM     18  C   UNL d   1      26.239 -17.118  -0.619  0.00  0.00     0.017 C 
ATOM     19  C   UNL d   1      25.817 -18.150   0.235  0.00  0.00     0.002 C 
ATOM     20  C   UNL d   1      24.484 -18.575   0.225  0.00  0.00     0.016 C 
ATOM     21  C   UNL d   1      23.566 -18.000  -0.666  0.00  0.00     0.048 C 
ATOM     22  C   UNL d   1      24.025 -17.055  -1.607  0.00  0.00     0.033 C 
BRANCH  21  23
ATOM     23  C   UNL d   1      22.086 -18.276  -0.527  0.00  0.00     0.417 C 
ATOM     24  F   UNL d   1      21.329 -17.212  -0.895  0.00  0.00    -0.166 F 
ATOM     25  F   UNL d   1      21.667 -19.325  -1.294  0.00  0.00    -0.166 F 
ATOM     26  F   UNL d   1      21.708 -18.592   0.744  0.00  0.00    -0.166 F 
ENDBRANCH  21  23
ENDBRANCH   2  17
TORSDOF 4
ENDMDL
MODEL 8
REMARK VINA RESULT:    -6.918      3.247      4.221
REMARK INTER + INTRA:          -9.132
REMARK INTER:                  -8.111
REMARK INTRA:                  -1.021
REMARK CONF_INDEPENDENT:        1.193
REMARK UNBOUND:                -1.021
REMARK  4 active torsions:
REMARK  status: ('A' for Active; 'I' for Inactive)
REMARK    1  A    between atoms: C_5  and  C_6 
REMARK       I    between atoms: C_6  and  N_7 
REMARK    2  A    between atoms: C_10  and  N_11 
REMARK       I    between atoms: N_11  and  C_12 
REMARK    3  A    between atoms: C_12  and  C_14 
REMARK    4  A    between atoms: C_18  and  C_19 
ROOT
ATOM      1  N   UNL d   1      24.918 -14.497  -2.455  0.00  0.00    -0.322 N 
ATOM      2  C   UNL d   1      25.908 -13.827  -3.166  0.00  0.00     0.256 C 
ATOM      3  O   UNL d   1      26.017 -12.606  -3.074  0.00  0.00    -0.267 OA
ATOM      4  H   UNL d   1      24.056 -13.964  -2.368  0.00  0.00     0.169 HD
ENDROOT
BRANCH   1   5
ATOM      5  C   UNL d   1      25.050 -15.633  -1.598  0.00  0.00     0.042 C 
ATOM      6  C   UNL d   1      24.030 -16.619  -1.645  0.00  0.00     0.047 C 
ATOM      7  C   UNL d   1      24.150 -17.827  -0.917  0.00  0.00     0.034 C 
ATOM      8  C   UNL d   1      25.302 -18.048  -0.167  0.00  0.00     0.017 C 
ATOM      9  C   UNL d   1      26.279 -17.071  -0.082  0.00  0.00     0.010 C 
ATOM     10  C   UNL d   1      26.137 -15.836  -0.717  0.00  0.00    -0.035 C 
ATOM     11  C   UNL d   1      27.196 -14.834  -0.356  0.00  0.00     0.050 C 
BRANCH   7  12
ATOM     12  C   UNL d   1      23.064 -18.861  -0.966  0.00  0.00     0.249 C 
ATOM     13  N   UNL d   1      22.513 -19.277   0.228  0.00  0.00    -0.366 N 
ATOM     14  H   UNL d   1      22.772 -18.953   1.144  0.00  0.00     0.159 HD
ATOM     15  H   UNL d   1      21.780 -19.972   0.186  0.00  0.00     0.159 HD
ATOM     16  O   UNL d   1      22.669 -19.325  -2.017  0.00  0.00    -0.268 OA
ENDBRANCH   7  12
ENDBRANCH   1   5
BRANCH   2  17
ATOM     17  C   UNL d   1      26.837 -14.597  -4.080  0.00  0.00     0.033 C 
ATOM     18  C   UNL d   1      27.044 -14.130  -5.393  0.00  0.00     0.017 C 
ATOM     19  C   UNL d   1      28.134 -14.596  -6.145  0.00  0.00     0.002 C 
ATOM     20  C   UNL d   1      29.054 -15.485  -5.580  0.00  0.00     0.016 C 
ATOM     21  C   UNL d   1      28.876 -15.948  -4.268  0.00  0.00     0.048 C 
ATOM     22  C   UNL d   1      27.713 -15.575  -3.564  0.00  0.00     0.033 C 
BRANCH  21  23
ATOM     23  C   UNL d   1      29.976 -16.712  -3.567  0.00  0.00     0.417 C 
ATOM     24  F   UNL d   1      31.091 -15.959  -3.388  0.00  0.00    -0.166 F 
ATOM     25  F   UNL d   1      29.610 -17.151  -2.327  0.00  0.00    -0.166 F 
ATOM     26  F   UNL d   1      30.374 -17.831  -4.237  0.00  0.00    -0.166 F 
ENDBRANCH  21  23
ENDBRANCH   2  17
TORSDOF 4
ENDMDL
MODEL 9
REMARK VINA RESULT:    -6.798      4.143      5.903
REMARK INTER + INTRA:          -9.119
REMARK INTER:                  -7.992
REMARK INTRA:                  -1.128
REMARK CONF_INDEPENDENT:        1.193
REMARK UNBOUND:                -1.128
REMARK  4 active torsions:
REMARK  status: ('A' for Active; 'I' for Inactive)
REMARK    1  A    between atoms: C_5  and  C_6 
REMARK       I    between atoms: C_6  and  N_7 
REMARK    2  A    between atoms: C_10  and  N_11 
REMARK       I    between atoms: N_11  and  C_12 
REMARK    3  A    between atoms: C_12  and  C_14 
REMARK    4  A    between atoms: C_18  and  C_19 
ROOT
ATOM      1  N   UNL d   1      28.583 -15.409   0.191  0.00  0.00    -0.322 N 
ATOM      2  C   UNL d   1      28.058 -16.587  -0.330  0.00  0.00     0.256 C 
ATOM      3  O   UNL d   1      28.724 -17.619  -0.320  0.00  0.00    -0.267 OA
ATOM      4  H   UNL d   1      29.583 -15.311   0.035  0.00  0.00     0.169 HD
ENDROOT
BRANCH   1   5
ATOM      5  C   UNL d   1      28.002 -14.521   1.148  0.00  0.00     0.042 C 
ATOM      6  C   UNL d   1      28.176 -14.825   2.523  0.00  0.00     0.047 C 
ATOM      7  C   UNL d   1      27.734 -13.932   3.529  0.00  0.00     0.034 C 
ATOM      8  C   UNL d   1      27.143 -12.730   3.148  0.00  0.00     0.017 C 
ATOM      9  C   UNL d   1      26.930 -12.449   1.810  0.00  0.00     0.010 C 
ATOM     10  C   UNL d   1      27.274 -13.358   0.807  0.00  0.00    -0.035 C 
ATOM     11  C   UNL d   1      26.793 -12.972  -0.563  0.00  0.00     0.050 C 
BRANCH   7  12
ATOM     12  C   UNL d   1      27.916 -14.263   4.981  0.00  0.00     0.249 C 
ATOM     13  N   UNL d   1      28.693 -15.356   5.303  0.00  0.00    -0.366 N 
ATOM     14  H   UNL d   1      29.157 -15.965   4.650  0.00  0.00     0.159 HD
ATOM     15  H   UNL d   1      28.814 -15.570   6.284  0.00  0.00     0.159 HD
ATOM     16  O   UNL d   1      27.405 -13.596   5.859  0.00  0.00    -0.268 OA
ENDBRANCH   7  12
ENDBRANCH   1   5
BRANCH   2  17
ATOM     17  C   UNL d   1      26.673 -16.593  -0.941  0.00  0.00     0.033 C 
ATOM     18  C   UNL d   1      25.599 -17.115  -0.192  0.00  0.00     0.017 C 
ATOM     19  C   UNL d   1      24.275 -16.832  -0.564  0.00  0.00     0.002 C 
ATOM     20  C   UNL d   1      24.010 -15.986  -1.645  0.00  0.00     0.016 C 
ATOM     21  C   UNL d   1      25.065 -15.443  -2.392  0.00  0.00     0.048 C 
ATOM     22  C   UNL d   1      26.387 -15.831  -2.093  0.00  0.00     0.033 C 
BRANCH  21  23
ATOM     23  C   UNL d   1      24.806 -14.349  -3.404  0.00  0.00     0.417 C 
ATOM     24  F   UNL d   1      25.275 -14.668  -4.637  0.00  0.00    -0.166 F 
ATOM     25  F   UNL d   1      23.477 -14.075  -3.561  0.00  0.00    -0.166 F 
ATOM     26  F   UNL d   1      25.378 -13.156  -3.074  0.00  0.00    -0.166 F 
ENDBRANCH  21  23
ENDBRANCH   2  17
TORSDOF 4
ENDMDL
