MODEL 1
REMARK VINA RESULT:   -10.393      0.000      0.000
REMARK INTER + INTRA:         -16.170
REMARK INTER:                 -14.569
REMARK INTRA:                  -1.601
REMARK CONF_INDEPENDENT:        4.176
REMARK UNBOUND:                -1.601
REMARK  14 active torsions:
REMARK  status: ('A' for Active; 'I' for Inactive)
REMARK    1  A    between atoms: C_2  and  C_3 
REMARK    2  A    between atoms: C_3  and  C_4 
REMARK    3  A    between atoms: C_4  and  O_5 
REMARK    4  A    between atoms: O_5  and  C_6 
REMARK    5  A    between atoms: C_9  and  C_10 
REMARK    6  A    between atoms: C_10  and  O_12 
REMARK    7  A    between atoms: O_12  and  C_13 
REMARK    8  A    between atoms: C_16  and  C_17 
REMARK    9  A    between atoms: N_18  and  N_19 
REMARK       I    between atoms: N_19  and  C_20 
REMARK   10  A    between atoms: C_20  and  C_22 
REMARK   11  A    between atoms: C_22  and  O_23 
REMARK   12  A    between atoms: O_23  and  C_24 
REMARK   13  A    between atoms: C_27  and  O_28 
REMARK   14  A    between atoms: C_33  and  O_34 
ROOT
ATOM      1  C   UNL d   1      25.960 -15.019  -3.554  0.00  0.00     0.112 A 
ATOM      2  C   UNL d   1      25.146 -14.012  -2.993  0.00  0.00     0.041 A 
ATOM      3  C   UNL d   1      25.097 -12.712  -3.551  0.00  0.00     0.016 A 
ATOM      4  C   UNL d   1      25.915 -12.378  -4.635  0.00  0.00    -0.014 A 
ATOM      5  C   UNL d   1      26.696 -13.397  -5.207  0.00  0.00     0.052 A 
ATOM      6  C   UNL d   1      26.715 -14.727  -4.699  0.00  0.00     0.102 A 
ENDROOT
BRANCH   4   7
ATOM      7  C   UNL d   1      25.996 -10.951  -5.129  0.00  0.00     0.150 C 
ATOM      8  N   UNL d   1      25.217 -10.505  -6.069  0.00  0.00    -0.184 NA
BRANCH   8   9
ATOM      9  N   UNL d   1      25.344  -9.199  -6.529  0.00  0.00    -0.246 N 
ATOM     10  C   UNL d   1      24.465  -8.231  -6.006  0.00  0.00     0.261 C 
ATOM     11  O   UNL d   1      23.593  -8.508  -5.180  0.00  0.00    -0.269 OA
ATOM     12  H   UNL d   1      26.045  -8.978  -7.227  0.00  0.00     0.192 HD
BRANCH  10  13
ATOM     13  C   UNL d   1      24.643  -6.777  -6.528  0.00  0.00     0.280 C 
BRANCH  13  14
ATOM     14  O   UNL d   1      23.873  -6.585  -7.729  0.00  0.00    -0.342 OA
BRANCH  14  15
ATOM     15  C   UNL d   1      22.511  -6.497  -7.641  0.00  0.00     0.069 A 
ATOM     16  C   UNL d   1      21.793  -6.683  -8.829  0.00  0.00     0.039 A 
ATOM     17  C   UNL d   1      20.401  -6.499  -8.868  0.00  0.00     0.039 A 
ATOM     18  C   UNL d   1      19.698  -6.187  -7.704  0.00  0.00     0.068 A 
ATOM     19  C   UNL d   1      20.417  -5.979  -6.526  0.00  0.00     0.039 A 
ATOM     20  C   UNL d   1      21.814  -6.125  -6.496  0.00  0.00     0.039 A 
BRANCH  18  21
ATOM     21  O   UNL d   1      18.336  -6.116  -7.822  0.00  0.00    -0.356 OA
ATOM     22  C   UNL d   1      17.810  -6.203  -9.145  0.00  0.00     0.210 C 
ENDBRANCH  18  21
ENDBRANCH  14  15
ENDBRANCH  13  14
ENDBRANCH  10  13
ENDBRANCH   8   9
ENDBRANCH   4   7
BRANCH   6  23
ATOM     23  O   UNL d   1      27.509 -15.550  -5.456  0.00  0.00    -0.353 OA
ATOM     24  C   UNL d   1      28.535 -15.026  -6.278  0.00  0.00     0.210 C 
ENDBRANCH   6  23
BRANCH   1  25
ATOM     25  O   UNL d   1      25.851 -16.320  -2.981  0.00  0.00    -0.272 OA
BRANCH  25  26
ATOM     26  C   UNL d   1      25.635 -16.427  -1.607  0.00  0.00     0.298 C 
ATOM     27  O   UNL d   1      26.489 -16.251  -0.737  0.00  0.00    -0.259 OA
BRANCH  26  28
ATOM     28  C   UNL d   1      24.275 -17.010  -1.299  0.00  0.00     0.040 A 
ATOM     29  C   UNL d   1      23.166 -16.159  -1.114  0.00  0.00     0.020 A 
ATOM     30  C   UNL d   1      21.878 -16.680  -0.888  0.00  0.00     0.038 A 
ATOM     31  C   UNL d   1      21.668 -18.059  -0.892  0.00  0.00     0.068 A 
ATOM     32  C   UNL d   1      22.773 -18.904  -1.007  0.00  0.00     0.038 A 
ATOM     33  C   UNL d   1      24.072 -18.385  -1.175  0.00  0.00     0.020 A 
BRANCH  31  34
ATOM     34  O   UNL d   1      20.361 -18.473  -0.902  0.00  0.00    -0.351 OA
BRANCH  34  35
ATOM     35  C   UNL d   1      20.101 -19.776  -0.371  0.00  0.00     0.175 C 
BRANCH  35  36
ATOM     36  C   UNL d   1      20.237 -19.740   1.153  0.00  0.00     0.026 C 
BRANCH  36  37
ATOM     37  C   UNL d   1      19.003 -20.337   1.829  0.00  0.00    -0.002 C 
ATOM     38  C   UNL d   1      18.230 -21.235   0.878  0.00  0.00     0.005 C 
ENDBRANCH  36  37
ENDBRANCH  35  36
ENDBRANCH  34  35
ENDBRANCH  31  34
ENDBRANCH  26  28
ENDBRANCH  25  26
ENDBRANCH   1  25
TORSDOF 14
ENDMDL
MODEL 2
REMARK VINA RESULT:    -9.736      1.625      2.267
REMARK INTER + INTRA:         -16.215
REMARK INTER:                 -13.912
REMARK INTRA:                  -2.304
REMARK CONF_INDEPENDENT:        4.176
REMARK UNBOUND:                -2.304
REMARK  14 active torsions:
REMARK  status: ('A' for Active; 'I' for Inactive)
REMARK    1  A    between atoms: C_2  and  C_3 
REMARK    2  A    between atoms: C_3  and  C_4 
REMARK    3  A    between atoms: C_4  and  O_5 
REMARK    4  A    between atoms: O_5  and  C_6 
REMARK    5  A    between atoms: C_9  and  C_10 
REMARK    6  A    between atoms: C_10  and  O_12 
REMARK    7  A    between atoms: O_12  and  C_13 
REMARK    8  A    between atoms: C_16  and  C_17 
REMARK    9  A    between atoms: N_18  and  N_19 
REMARK       I    between atoms: N_19  and  C_20 
REMARK   10  A    between atoms: C_20  and  C_22 
REMARK   11  A    between atoms: C_22  and  O_23 
REMARK   12  A    between atoms: O_23  and  C_24 
REMARK   13  A    between atoms: C_27  and  O_28 
REMARK   14  A    between atoms: C_33  and  O_34 
ROOT
ATOM      1  C   UNL d   1      26.212 -15.613  -2.211  0.00  0.00     0.112 A 
ATOM      2  C   UNL d   1      25.746 -15.456  -3.534  0.00  0.00     0.041 A 
ATOM      3  C   UNL d   1      25.596 -14.173  -4.113  0.00  0.00     0.016 A 
ATOM      4  C   UNL d   1      25.843 -13.023  -3.354  0.00  0.00    -0.014 A 
ATOM      5  C   UNL d   1      26.340 -13.191  -2.051  0.00  0.00     0.052 A 
ATOM      6  C   UNL d   1      26.555 -14.473  -1.469  0.00  0.00     0.102 A 
ENDROOT
BRANCH   4   7
ATOM      7  C   UNL d   1      25.525 -11.652  -3.906  0.00  0.00     0.150 C 
ATOM      8  N   UNL d   1      25.492 -10.598  -3.146  0.00  0.00    -0.184 NA
BRANCH   8   9
ATOM      9  N   UNL d   1      25.157  -9.357  -3.678  0.00  0.00    -0.246 N 
ATOM     10  C   UNL d   1      25.927  -8.874  -4.753  0.00  0.00     0.261 C 
ATOM     11  O   UNL d   1      26.882  -9.502  -5.217  0.00  0.00    -0.269 OA
ATOM     12  H   UNL d   1      24.388  -8.831  -3.279  0.00  0.00     0.192 HD
BRANCH  10  13
ATOM     13  C   UNL d   1      25.517  -7.491  -5.336  0.00  0.00     0.280 C 
BRANCH  13  14
ATOM     14  O   UNL d   1      24.343  -7.001  -4.664  0.00  0.00    -0.342 OA
BRANCH  14  15
ATOM     15  C   UNL d   1      23.231  -6.697  -5.401  0.00  0.00     0.069 A 
ATOM     16  C   UNL d   1      23.300  -6.959  -6.775  0.00  0.00     0.039 A 
ATOM     17  C   UNL d   1      22.257  -6.576  -7.636  0.00  0.00     0.039 A 
ATOM     18  C   UNL d   1      21.103  -5.982  -7.124  0.00  0.00     0.068 A 
ATOM     19  C   UNL d   1      21.046  -5.701  -5.759  0.00  0.00     0.039 A 
ATOM     20  C   UNL d   1      22.105  -6.048  -4.904  0.00  0.00     0.039 A 
BRANCH  18  21
ATOM     21  O   UNL d   1      20.104  -5.727  -8.026  0.00  0.00    -0.356 OA
ATOM     22  C   UNL d   1      20.144  -6.474  -9.242  0.00  0.00     0.210 C 
ENDBRANCH  18  21
ENDBRANCH  14  15
ENDBRANCH  13  14
ENDBRANCH  10  13
ENDBRANCH   8   9
ENDBRANCH   4   7
BRANCH   6  23
ATOM     23  O   UNL d   1      27.094 -14.379  -0.212  0.00  0.00    -0.353 OA
ATOM     24  C   UNL d   1      28.496 -14.386  -0.013  0.00  0.00     0.210 C 
ENDBRANCH   6  23
BRANCH   1  25
ATOM     25  O   UNL d   1      26.429 -16.950  -1.766  0.00  0.00    -0.272 OA
BRANCH  25  26
ATOM     26  C   UNL d   1      25.980 -17.310  -0.496  0.00  0.00     0.298 C 
ATOM     27  O   UNL d   1      26.703 -17.541   0.475  0.00  0.00    -0.259 OA
BRANCH  26  28
ATOM     28  C   UNL d   1      24.500 -17.611  -0.491  0.00  0.00     0.040 A 
ATOM     29  C   UNL d   1      23.564 -16.558  -0.562  0.00  0.00     0.020 A 
ATOM     30  C   UNL d   1      22.181 -16.817  -0.622  0.00  0.00     0.038 A 
ATOM     31  C   UNL d   1      21.713 -18.130  -0.663  0.00  0.00     0.068 A 
ATOM     32  C   UNL d   1      22.632 -19.172  -0.524  0.00  0.00     0.038 A 
ATOM     33  C   UNL d   1      24.011 -18.916  -0.405  0.00  0.00     0.020 A 
BRANCH  31  34
ATOM     34  O   UNL d   1      20.384 -18.291  -0.957  0.00  0.00    -0.351 OA
BRANCH  34  35
ATOM     35  C   UNL d   1      19.751 -19.460  -0.429  0.00  0.00     0.175 C 
BRANCH  35  36
ATOM     36  C   UNL d   1      19.658 -19.343   1.094  0.00  0.00     0.026 C 
BRANCH  36  37
ATOM     37  C   UNL d   1      18.874 -20.514   1.687  0.00  0.00    -0.002 C 
ATOM     38  C   UNL d   1      18.017 -21.198   0.636  0.00  0.00     0.005 C 
ENDBRANCH  36  37
ENDBRANCH  35  36
ENDBRANCH  34  35
ENDBRANCH  31  34
ENDBRANCH  26  28
ENDBRANCH  25  26
ENDBRANCH   1  25
TORSDOF 14
ENDMDL
MODEL 3
REMARK VINA RESULT:    -9.662      5.315      9.221
REMARK INTER + INTRA:         -16.036
REMARK INTER:                 -13.839
REMARK INTRA:                  -2.197
REMARK CONF_INDEPENDENT:        4.176
REMARK UNBOUND:                -2.197
REMARK  14 active torsions:
REMARK  status: ('A' for Active; 'I' for Inactive)
REMARK    1  A    between atoms: C_2  and  C_3 
REMARK    2  A    between atoms: C_3  and  C_4 
REMARK    3  A    between atoms: C_4  and  O_5 
REMARK    4  A    between atoms: O_5  and  C_6 
REMARK    5  A    between atoms: C_9  and  C_10 
REMARK    6  A    between atoms: C_10  and  O_12 
REMARK    7  A    between atoms: O_12  and  C_13 
REMARK    8  A    between atoms: C_16  and  C_17 
REMARK    9  A    between atoms: N_18  and  N_19 
REMARK       I    between atoms: N_19  and  C_20 
REMARK   10  A    between atoms: C_20  and  C_22 
REMARK   11  A    between atoms: C_22  and  O_23 
REMARK   12  A    between atoms: O_23  and  C_24 
REMARK   13  A    between atoms: C_27  and  O_28 
REMARK   14  A    between atoms: C_33  and  O_34 
ROOT
ATOM      1  C   UNL d   1      26.414 -15.605  -2.080  0.00  0.00     0.112 A 
ATOM      2  C   UNL d   1      27.738 -16.030  -1.841  0.00  0.00     0.041 A 
ATOM      3  C   UNL d   1      28.698 -16.063  -2.880  0.00  0.00     0.016 A 
ATOM      4  C   UNL d   1      28.331 -15.738  -4.191  0.00  0.00    -0.014 A 
ATOM      5  C   UNL d   1      27.021 -15.282  -4.411  0.00  0.00     0.052 A 
ATOM      6  C   UNL d   1      26.055 -15.184  -3.370  0.00  0.00     0.102 A 
ENDROOT
BRANCH   4   7
ATOM      7  C   UNL d   1      29.301 -15.932  -5.334  0.00  0.00     0.150 C 
ATOM      8  N   UNL d   1      29.529 -14.997  -6.207  0.00  0.00    -0.184 NA
BRANCH   8   9
ATOM      9  N   UNL d   1      30.397 -15.221  -7.270  0.00  0.00    -0.246 N 
ATOM     10  C   UNL d   1      31.773 -15.024  -7.046  0.00  0.00     0.261 C 
ATOM     11  O   UNL d   1      32.219 -14.649  -5.959  0.00  0.00    -0.269 OA
ATOM     12  H   UNL d   1      30.027 -15.504  -8.170  0.00  0.00     0.192 HD
BRANCH  10  13
ATOM     13  C   UNL d   1      32.720 -15.298  -8.250  0.00  0.00     0.280 C 
BRANCH  13  14
ATOM     14  O   UNL d   1      32.637 -16.682  -8.637  0.00  0.00    -0.342 OA
BRANCH  14  15
ATOM     15  C   UNL d   1      32.219 -17.607  -7.722  0.00  0.00     0.069 A 
ATOM     16  C   UNL d   1      31.030 -18.287  -8.017  0.00  0.00     0.039 A 
ATOM     17  C   UNL d   1      30.456 -19.172  -7.089  0.00  0.00     0.039 A 
ATOM     18  C   UNL d   1      31.095 -19.437  -5.877  0.00  0.00     0.068 A 
ATOM     19  C   UNL d   1      32.266 -18.742  -5.575  0.00  0.00     0.039 A 
ATOM     20  C   UNL d   1      32.820 -17.828  -6.487  0.00  0.00     0.039 A 
BRANCH  18  21
ATOM     21  O   UNL d   1      30.507 -20.380  -5.077  0.00  0.00    -0.356 OA
ATOM     22  C   UNL d   1      31.380 -21.125  -4.230  0.00  0.00     0.210 C 
ENDBRANCH  18  21
ENDBRANCH  14  15
ENDBRANCH  13  14
ENDBRANCH  10  13
ENDBRANCH   8   9
ENDBRANCH   4   7
BRANCH   6  23
ATOM     23  O   UNL d   1      24.869 -14.664  -3.820  0.00  0.00    -0.353 OA
ATOM     24  C   UNL d   1      24.782 -13.326  -4.274  0.00  0.00     0.210 C 
ENDBRANCH   6  23
BRANCH   1  25
ATOM     25  O   UNL d   1      25.560 -15.506  -0.943  0.00  0.00    -0.272 OA
BRANCH  25  26
ATOM     26  C   UNL d   1      25.452 -16.607  -0.093  0.00  0.00     0.298 C 
ATOM     27  O   UNL d   1      26.350 -17.036   0.632  0.00  0.00    -0.259 OA
BRANCH  26  28
ATOM     28  C   UNL d   1      24.167 -17.368  -0.325  0.00  0.00     0.040 A 
ATOM     29  C   UNL d   1      22.975 -16.671  -0.613  0.00  0.00     0.020 A 
ATOM     30  C   UNL d   1      21.780 -17.359  -0.895  0.00  0.00     0.038 A 
ATOM     31  C   UNL d   1      21.766 -18.754  -0.942  0.00  0.00     0.068 A 
ATOM     32  C   UNL d   1      22.927 -19.446  -0.592  0.00  0.00     0.038 A 
ATOM     33  C   UNL d   1      24.109 -18.760  -0.253  0.00  0.00     0.020 A 
BRANCH  31  34
ATOM     34  O   UNL d   1      20.632 -19.331  -1.450  0.00  0.00    -0.351 OA
BRANCH  34  35
ATOM     35  C   UNL d   1      19.529 -19.470  -0.549  0.00  0.00     0.175 C 
BRANCH  35  36
ATOM     36  C   UNL d   1      20.053 -19.827   0.843  0.00  0.00     0.026 C 
BRANCH  36  37
ATOM     37  C   UNL d   1      18.929 -20.360   1.733  0.00  0.00    -0.002 C 
ATOM     38  C   UNL d   1      18.037 -21.329   0.977  0.00  0.00     0.005 C 
ENDBRANCH  36  37
ENDBRANCH  35  36
ENDBRANCH  34  35
ENDBRANCH  31  34
ENDBRANCH  26  28
ENDBRANCH  25  26
ENDBRANCH   1  25
TORSDOF 14
ENDMDL
MODEL 4
REMARK VINA RESULT:    -9.591      1.479      2.120
REMARK INTER + INTRA:         -15.522
REMARK INTER:                 -13.767
REMARK INTRA:                  -1.756
REMARK CONF_INDEPENDENT:        4.176
REMARK UNBOUND:                -1.756
REMARK  14 active torsions:
REMARK  status: ('A' for Active; 'I' for Inactive)
REMARK    1  A    between atoms: C_2  and  C_3 
REMARK    2  A    between atoms: C_3  and  C_4 
REMARK    3  A    between atoms: C_4  and  O_5 
REMARK    4  A    between atoms: O_5  and  C_6 
REMARK    5  A    between atoms: C_9  and  C_10 
REMARK    6  A    between atoms: C_10  and  O_12 
REMARK    7  A    between atoms: O_12  and  C_13 
REMARK    8  A    between atoms: C_16  and  C_17 
REMARK    9  A    between atoms: N_18  and  N_19 
REMARK       I    between atoms: N_19  and  C_20 
REMARK   10  A    between atoms: C_20  and  C_22 
REMARK   11  A    between atoms: C_22  and  O_23 
REMARK   12  A    between atoms: O_23  and  C_24 
REMARK   13  A    between atoms: C_27  and  O_28 
REMARK   14  A    between atoms: C_33  and  O_34 
ROOT
ATOM      1  C   UNL d   1      26.671 -15.386  -1.775  0.00  0.00     0.112 A 
ATOM      2  C   UNL d   1      27.034 -14.381  -0.853  0.00  0.00     0.041 A 
ATOM      3  C   UNL d   1      26.831 -13.010  -1.142  0.00  0.00     0.016 A 
ATOM      4  C   UNL d   1      26.326 -12.619  -2.387  0.00  0.00    -0.014 A 
ATOM      5  C   UNL d   1      25.935 -13.628  -3.283  0.00  0.00     0.052 A 
ATOM      6  C   UNL d   1      26.075 -15.014  -2.989  0.00  0.00     0.102 A 
ENDROOT
BRANCH   4   7
ATOM      7  C   UNL d   1      26.264 -11.158  -2.770  0.00  0.00     0.150 C 
ATOM      8  N   UNL d   1      25.157 -10.595  -3.154  0.00  0.00    -0.184 NA
BRANCH   8   9
ATOM      9  N   UNL d   1      25.142  -9.258  -3.538  0.00  0.00    -0.246 N 
ATOM     10  C   UNL d   1      25.561  -8.945  -4.845  0.00  0.00     0.261 C 
ATOM     11  O   UNL d   1      25.950  -9.806  -5.638  0.00  0.00    -0.269 OA
ATOM     12  H   UNL d   1      24.846  -8.550  -2.876  0.00  0.00     0.192 HD
BRANCH  10  13
ATOM     13  C   UNL d   1      25.517  -7.444  -5.248  0.00  0.00     0.280 C 
BRANCH  13  14
ATOM     14  O   UNL d   1      25.046  -7.310  -6.602  0.00  0.00    -0.342 OA
BRANCH  14  15
ATOM     15  C   UNL d   1      23.769  -6.875  -6.823  0.00  0.00     0.069 A 
ATOM     16  C   UNL d   1      22.899  -6.900  -5.726  0.00  0.00     0.039 A 
ATOM     17  C   UNL d   1      21.538  -6.584  -5.876  0.00  0.00     0.039 A 
ATOM     18  C   UNL d   1      21.041  -6.177  -7.115  0.00  0.00     0.068 A 
ATOM     19  C   UNL d   1      21.903  -6.174  -8.211  0.00  0.00     0.039 A 
ATOM     20  C   UNL d   1      23.255  -6.528  -8.069  0.00  0.00     0.039 A 
BRANCH  18  21
ATOM     21  O   UNL d   1      19.724  -5.803  -7.144  0.00  0.00    -0.356 OA
ATOM     22  C   UNL d   1      18.777  -6.841  -7.397  0.00  0.00     0.210 C 
ENDBRANCH  18  21
ENDBRANCH  14  15
ENDBRANCH  13  14
ENDBRANCH  10  13
ENDBRANCH   8   9
ENDBRANCH   4   7
BRANCH   6  23
ATOM     23  O   UNL d   1      25.574 -15.802  -3.994  0.00  0.00    -0.353 OA
ATOM     24  C   UNL d   1      25.926 -15.578  -5.346  0.00  0.00     0.210 C 
ENDBRANCH   6  23
BRANCH   1  25
ATOM     25  O   UNL d   1      26.817 -16.735  -1.338  0.00  0.00    -0.272 OA
BRANCH  25  26
ATOM     26  C   UNL d   1      26.121 -17.146  -0.201  0.00  0.00     0.298 C 
ATOM     27  O   UNL d   1      26.636 -17.461   0.872  0.00  0.00    -0.259 OA
BRANCH  26  28
ATOM     28  C   UNL d   1      24.659 -17.383  -0.497  0.00  0.00     0.040 A 
ATOM     29  C   UNL d   1      24.151 -18.699  -0.545  0.00  0.00     0.020 A 
ATOM     30  C   UNL d   1      22.781 -18.942  -0.756  0.00  0.00     0.038 A 
ATOM     31  C   UNL d   1      21.887 -17.877  -0.873  0.00  0.00     0.068 A 
ATOM     32  C   UNL d   1      22.396 -16.577  -0.894  0.00  0.00     0.038 A 
ATOM     33  C   UNL d   1      23.774 -16.332  -0.741  0.00  0.00     0.020 A 
BRANCH  31  34
ATOM     34  O   UNL d   1      20.555 -18.198  -0.839  0.00  0.00    -0.351 OA
BRANCH  34  35
ATOM     35  C   UNL d   1      20.234 -19.551  -0.506  0.00  0.00     0.175 C 
BRANCH  35  36
ATOM     36  C   UNL d   1      20.178 -19.699   1.016  0.00  0.00     0.026 C 
BRANCH  36  37
ATOM     37  C   UNL d   1      18.905 -20.427   1.450  0.00  0.00    -0.002 C 
ATOM     38  C   UNL d   1      18.124 -20.941   0.253  0.00  0.00     0.005 C 
ENDBRANCH  36  37
ENDBRANCH  35  36
ENDBRANCH  34  35
ENDBRANCH  31  34
ENDBRANCH  26  28
ENDBRANCH  25  26
ENDBRANCH   1  25
TORSDOF 14
ENDMDL
MODEL 5
REMARK VINA RESULT:    -9.186      3.848      5.756
REMARK INTER + INTRA:         -15.379
REMARK INTER:                 -13.362
REMARK INTRA:                  -2.017
REMARK CONF_INDEPENDENT:        4.176
REMARK UNBOUND:                -2.017
REMARK  14 active torsions:
REMARK  status: ('A' for Active; 'I' for Inactive)
REMARK    1  A    between atoms: C_2  and  C_3 
REMARK    2  A    between atoms: C_3  and  C_4 
REMARK    3  A    between atoms: C_4  and  O_5 
REMARK    4  A    between atoms: O_5  and  C_6 
REMARK    5  A    between atoms: C_9  and  C_10 
REMARK    6  A    between atoms: C_10  and  O_12 
REMARK    7  A    between atoms: O_12  and  C_13 
REMARK    8  A    between atoms: C_16  and  C_17 
REMARK    9  A    between atoms: N_18  and  N_19 
REMARK       I    between atoms: N_19  and  C_20 
REMARK   10  A    between atoms: C_20  and  C_22 
REMARK   11  A    between atoms: C_22  and  O_23 
REMARK   12  A    between atoms: O_23  and  C_24 
REMARK   13  A    between atoms: C_27  and  O_28 
REMARK   14  A    between atoms: C_33  and  O_34 
ROOT
ATOM      1  C   UNL d   1      26.837 -15.653  -2.240  0.00  0.00     0.112 A 
ATOM      2  C   UNL d   1      28.212 -15.871  -2.474  0.00  0.00     0.041 A 
ATOM      3  C   UNL d   1      28.809 -15.535  -3.712  0.00  0.00     0.016 A 
ATOM      4  C   UNL d   1      28.026 -15.042  -4.762  0.00  0.00    -0.014 A 
ATOM      5  C   UNL d   1      26.667 -14.796  -4.508  0.00  0.00     0.052 A 
ATOM      6  C   UNL d   1      26.058 -15.070  -3.251  0.00  0.00     0.102 A 
ENDROOT
BRANCH   4   7
ATOM      7  C   UNL d   1      28.620 -14.840  -6.138  0.00  0.00     0.150 C 
ATOM      8  N   UNL d   1      29.566 -13.976  -6.357  0.00  0.00    -0.184 NA
BRANCH   8   9
ATOM      9  N   UNL d   1      30.063 -13.786  -7.642  0.00  0.00    -0.246 N 
ATOM     10  C   UNL d   1      31.331 -13.187  -7.774  0.00  0.00     0.261 C 
ATOM     11  O   UNL d   1      31.991 -12.818  -6.800  0.00  0.00    -0.269 OA
ATOM     12  H   UNL d   1      29.508 -14.067  -8.442  0.00  0.00     0.192 HD
BRANCH  10  13
ATOM     13  C   UNL d   1      31.866 -13.004  -9.222  0.00  0.00     0.280 C 
BRANCH  13  14
ATOM     14  O   UNL d   1      30.773 -12.752 -10.125  0.00  0.00    -0.342 OA
BRANCH  14  15
ATOM     15  C   UNL d   1      29.737 -11.959  -9.713  0.00  0.00     0.069 A 
ATOM     16  C   UNL d   1      28.445 -12.440  -9.958  0.00  0.00     0.039 A 
ATOM     17  C   UNL d   1      27.316 -11.651  -9.679  0.00  0.00     0.039 A 
ATOM     18  C   UNL d   1      27.463 -10.394  -9.092  0.00  0.00     0.068 A 
ATOM     19  C   UNL d   1      28.751  -9.907  -8.870  0.00  0.00     0.039 A 
ATOM     20  C   UNL d   1      29.881 -10.680  -9.185  0.00  0.00     0.039 A 
BRANCH  18  21
ATOM     21  O   UNL d   1      26.304  -9.737  -8.774  0.00  0.00    -0.356 OA
ATOM     22  C   UNL d   1      26.282  -9.063  -7.517  0.00  0.00     0.210 C 
ENDBRANCH  18  21
ENDBRANCH  14  15
ENDBRANCH  13  14
ENDBRANCH  10  13
ENDBRANCH   8   9
ENDBRANCH   4   7
BRANCH   6  23
ATOM     23  O   UNL d   1      24.738 -14.696  -3.230  0.00  0.00    -0.353 OA
ATOM     24  C   UNL d   1      24.245 -13.700  -4.107  0.00  0.00     0.210 C 
ENDBRANCH   6  23
BRANCH   1  25
ATOM     25  O   UNL d   1      26.363 -15.925  -0.924  0.00  0.00    -0.272 OA
BRANCH  25  26
ATOM     26  C   UNL d   1      26.110 -17.249  -0.566  0.00  0.00     0.298 C 
ATOM     27  O   UNL d   1      26.962 -18.133  -0.466  0.00  0.00    -0.259 OA
BRANCH  26  28
ATOM     28  C   UNL d   1      24.629 -17.546  -0.531  0.00  0.00     0.040 A 
ATOM     29  C   UNL d   1      23.696 -16.488  -0.525  0.00  0.00     0.020 A 
ATOM     30  C   UNL d   1      22.311 -16.739  -0.555  0.00  0.00     0.038 A 
ATOM     31  C   UNL d   1      21.836 -18.048  -0.642  0.00  0.00     0.068 A 
ATOM     32  C   UNL d   1      22.754 -19.098  -0.579  0.00  0.00     0.038 A 
ATOM     33  C   UNL d   1      24.137 -18.852  -0.490  0.00  0.00     0.020 A 
BRANCH  31  34
ATOM     34  O   UNL d   1      20.498 -18.191  -0.903  0.00  0.00    -0.351 OA
BRANCH  34  35
ATOM     35  C   UNL d   1      19.971 -19.519  -0.824  0.00  0.00     0.175 C 
BRANCH  35  36
ATOM     36  C   UNL d   1      20.122 -20.041   0.606  0.00  0.00     0.026 C 
BRANCH  36  37
ATOM     37  C   UNL d   1      18.768 -20.102   1.314  0.00  0.00    -0.002 C 
ATOM     38  C   UNL d   1      18.037 -21.396   1.001  0.00  0.00     0.005 C 
ENDBRANCH  36  37
ENDBRANCH  35  36
ENDBRANCH  34  35
ENDBRANCH  31  34
ENDBRANCH  26  28
ENDBRANCH  25  26
ENDBRANCH   1  25
TORSDOF 14
ENDMDL
MODEL 6
REMARK VINA RESULT:    -8.755      5.513      7.490
REMARK INTER + INTRA:         -14.940
REMARK INTER:                 -12.931
REMARK INTRA:                  -2.009
REMARK CONF_INDEPENDENT:        4.176
REMARK UNBOUND:                -2.009
REMARK  14 active torsions:
REMARK  status: ('A' for Active; 'I' for Inactive)
REMARK    1  A    between atoms: C_2  and  C_3 
REMARK    2  A    between atoms: C_3  and  C_4 
REMARK    3  A    between atoms: C_4  and  O_5 
REMARK    4  A    between atoms: O_5  and  C_6 
REMARK    5  A    between atoms: C_9  and  C_10 
REMARK    6  A    between atoms: C_10  and  O_12 
REMARK    7  A    between atoms: O_12  and  C_13 
REMARK    8  A    between atoms: C_16  and  C_17 
REMARK    9  A    between atoms: N_18  and  N_19 
REMARK       I    between atoms: N_19  and  C_20 
REMARK   10  A    between atoms: C_20  and  C_22 
REMARK   11  A    between atoms: C_22  and  O_23 
REMARK   12  A    between atoms: O_23  and  C_24 
REMARK   13  A    between atoms: C_27  and  O_28 
REMARK   14  A    between atoms: C_33  and  O_34 
ROOT
ATOM      1  C   UNL d   1      26.572 -15.777  -1.679  0.00  0.00     0.112 A 
ATOM      2  C   UNL d   1      25.512 -15.290  -2.473  0.00  0.00     0.041 A 
ATOM      3  C   UNL d   1      25.720 -14.901  -3.818  0.00  0.00     0.016 A 
ATOM      4  C   UNL d   1      27.006 -14.927  -4.369  0.00  0.00    -0.014 A 
ATOM      5  C   UNL d   1      28.047 -15.447  -3.582  0.00  0.00     0.052 A 
ATOM      6  C   UNL d   1      27.849 -15.899  -2.247  0.00  0.00     0.102 A 
ENDROOT
BRANCH   4   7
ATOM      7  C   UNL d   1      27.267 -14.357  -5.745  0.00  0.00     0.150 C 
ATOM      8  N   UNL d   1      28.461 -14.318  -6.257  0.00  0.00    -0.184 NA
BRANCH   8   9
ATOM      9  N   UNL d   1      28.673 -13.750  -7.508  0.00  0.00    -0.246 N 
ATOM     10  C   UNL d   1      28.594 -12.348  -7.616  0.00  0.00     0.261 C 
ATOM     11  O   UNL d   1      28.329 -11.626  -6.652  0.00  0.00    -0.269 OA
ATOM     12  H   UNL d   1      28.866 -14.347  -8.304  0.00  0.00     0.192 HD
BRANCH  10  13
ATOM     13  C   UNL d   1      28.852 -11.743  -9.025  0.00  0.00     0.280 C 
BRANCH  13  14
ATOM     14  O   UNL d   1      29.770 -12.574  -9.758  0.00  0.00    -0.342 OA
BRANCH  14  15
ATOM     15  C   UNL d   1      31.115 -12.373  -9.612  0.00  0.00     0.069 A 
ATOM     16  C   UNL d   1      31.562 -11.047  -9.689  0.00  0.00     0.039 A 
ATOM     17  C   UNL d   1      32.934 -10.745  -9.668  0.00  0.00     0.039 A 
ATOM     18  C   UNL d   1      33.877 -11.762  -9.506  0.00  0.00     0.068 A 
ATOM     19  C   UNL d   1      33.432 -13.082  -9.453  0.00  0.00     0.039 A 
ATOM     20  C   UNL d   1      32.062 -13.387  -9.514  0.00  0.00     0.039 A 
BRANCH  18  21
ATOM     21  O   UNL d   1      35.183 -11.362  -9.407  0.00  0.00    -0.356 OA
ATOM     22  C   UNL d   1      35.718 -11.273  -8.087  0.00  0.00     0.210 C 
ENDBRANCH  18  21
ENDBRANCH  14  15
ENDBRANCH  13  14
ENDBRANCH  10  13
ENDBRANCH   8   9
ENDBRANCH   4   7
BRANCH   6  23
ATOM     23  O   UNL d   1      29.000 -16.411  -1.706  0.00  0.00    -0.353 OA
ATOM     24  C   UNL d   1      29.093 -16.704  -0.324  0.00  0.00     0.210 C 
ENDBRANCH   6  23
BRANCH   1  25
ATOM     25  O   UNL d   1      26.231 -16.242  -0.376  0.00  0.00    -0.272 OA
BRANCH  25  26
ATOM     26  C   UNL d   1      25.887 -17.585  -0.216  0.00  0.00     0.298 C 
ATOM     27  O   UNL d   1      26.686 -18.519  -0.143  0.00  0.00    -0.259 OA
BRANCH  26  28
ATOM     28  C   UNL d   1      24.400 -17.803  -0.368  0.00  0.00     0.040 A 
ATOM     29  C   UNL d   1      23.536 -16.700  -0.534  0.00  0.00     0.020 A 
ATOM     30  C   UNL d   1      22.156 -16.881  -0.741  0.00  0.00     0.038 A 
ATOM     31  C   UNL d   1      21.622 -18.166  -0.835  0.00  0.00     0.068 A 
ATOM     32  C   UNL d   1      22.462 -19.257  -0.604  0.00  0.00     0.038 A 
ATOM     33  C   UNL d   1      23.833 -19.078  -0.339  0.00  0.00     0.020 A 
BRANCH  31  34
ATOM     34  O   UNL d   1      20.325 -18.253  -1.268  0.00  0.00    -0.351 OA
BRANCH  34  35
ATOM     35  C   UNL d   1      19.548 -19.334  -0.744  0.00  0.00     0.175 C 
BRANCH  35  36
ATOM     36  C   UNL d   1      19.633 -19.326   0.784  0.00  0.00     0.026 C 
BRANCH  36  37
ATOM     37  C   UNL d   1      19.091 -20.629   1.371  0.00  0.00    -0.002 C 
ATOM     38  C   UNL d   1      18.018 -21.234   0.482  0.00  0.00     0.005 C 
ENDBRANCH  36  37
ENDBRANCH  35  36
ENDBRANCH  34  35
ENDBRANCH  31  34
ENDBRANCH  26  28
ENDBRANCH  25  26
ENDBRANCH   1  25
TORSDOF 14
ENDMDL
MODEL 7
REMARK VINA RESULT:    -8.720      5.412     10.372
REMARK INTER + INTRA:         -15.156
REMARK INTER:                 -12.896
REMARK INTRA:                  -2.260
REMARK CONF_INDEPENDENT:        4.176
REMARK UNBOUND:                -2.260
REMARK  14 active torsions:
REMARK  status: ('A' for Active; 'I' for Inactive)
REMARK    1  A    between atoms: C_2  and  C_3 
REMARK    2  A    between atoms: C_3  and  C_4 
REMARK    3  A    between atoms: C_4  and  O_5 
REMARK    4  A    between atoms: O_5  and  C_6 
REMARK    5  A    between atoms: C_9  and  C_10 
REMARK    6  A    between atoms: C_10  and  O_12 
REMARK    7  A    between atoms: O_12  and  C_13 
REMARK    8  A    between atoms: C_16  and  C_17 
REMARK    9  A    between atoms: N_18  and  N_19 
REMARK       I    between atoms: N_19  and  C_20 
REMARK   10  A    between atoms: C_20  and  C_22 
REMARK   11  A    between atoms: C_22  and  O_23 
REMARK   12  A    between atoms: O_23  and  C_24 
REMARK   13  A    between atoms: C_27  and  O_28 
REMARK   14  A    between atoms: C_33  and  O_34 
ROOT
ATOM      1  C   UNL d   1      26.568 -15.418  -2.469  0.00  0.00     0.112 A 
ATOM      2  C   UNL d   1      27.918 -15.739  -2.209  0.00  0.00     0.041 A 
ATOM      3  C   UNL d   1      28.877 -15.776  -3.249  0.00  0.00     0.016 A 
ATOM      4  C   UNL d   1      28.489 -15.561  -4.576  0.00  0.00    -0.014 A 
ATOM      5  C   UNL d   1      27.152 -15.207  -4.819  0.00  0.00     0.052 A 
ATOM      6  C   UNL d   1      26.182 -15.106  -3.781  0.00  0.00     0.102 A 
ENDROOT
BRANCH   4   7
ATOM      7  C   UNL d   1      29.469 -15.763  -5.709  0.00  0.00     0.150 C 
ATOM      8  N   UNL d   1      29.809 -16.949  -6.118  0.00  0.00    -0.184 NA
BRANCH   8   9
ATOM      9  N   UNL d   1      30.744 -17.103  -7.136  0.00  0.00    -0.246 N 
ATOM     10  C   UNL d   1      32.068 -16.698  -6.879  0.00  0.00     0.261 C 
ATOM     11  O   UNL d   1      32.411 -16.206  -5.801  0.00  0.00    -0.269 OA
ATOM     12  H   UNL d   1      30.455 -17.484  -8.030  0.00  0.00     0.192 HD
BRANCH  10  13
ATOM     13  C   UNL d   1      33.092 -16.897  -8.032  0.00  0.00     0.280 C 
BRANCH  13  14
ATOM     14  O   UNL d   1      32.468 -17.579  -9.135  0.00  0.00    -0.342 OA
BRANCH  14  15
ATOM     15  C   UNL d   1      32.566 -18.940  -9.220  0.00  0.00     0.069 A 
ATOM     16  C   UNL d   1      31.847 -19.680  -8.272  0.00  0.00     0.039 A 
ATOM     17  C   UNL d   1      31.973 -21.078  -8.202  0.00  0.00     0.039 A 
ATOM     18  C   UNL d   1      32.771 -21.761  -9.120  0.00  0.00     0.068 A 
ATOM     19  C   UNL d   1      33.504 -21.021 -10.048  0.00  0.00     0.039 A 
ATOM     20  C   UNL d   1      33.409 -19.620 -10.093  0.00  0.00     0.039 A 
BRANCH  18  21
ATOM     21  O   UNL d   1      32.760 -23.128  -9.029  0.00  0.00    -0.356 OA
ATOM     22  C   UNL d   1      31.904 -23.689  -8.036  0.00  0.00     0.210 C 
ENDBRANCH  18  21
ENDBRANCH  14  15
ENDBRANCH  13  14
ENDBRANCH  10  13
ENDBRANCH   8   9
ENDBRANCH   4   7
BRANCH   6  23
ATOM     23  O   UNL d   1      24.964 -14.694  -4.259  0.00  0.00    -0.353 OA
ATOM     24  C   UNL d   1      24.605 -13.325  -4.266  0.00  0.00     0.210 C 
ENDBRANCH   6  23
BRANCH   1  25
ATOM     25  O   UNL d   1      25.711 -15.302  -1.336  0.00  0.00    -0.272 OA
BRANCH  25  26
ATOM     26  C   UNL d   1      25.716 -16.327  -0.389  0.00  0.00     0.298 C 
ATOM     27  O   UNL d   1      26.675 -16.633   0.321  0.00  0.00    -0.259 OA
BRANCH  26  28
ATOM     28  C   UNL d   1      24.474 -17.182  -0.483  0.00  0.00     0.040 A 
ATOM     29  C   UNL d   1      23.222 -16.585  -0.741  0.00  0.00     0.020 A 
ATOM     30  C   UNL d   1      22.062 -17.366  -0.895  0.00  0.00     0.038 A 
ATOM     31  C   UNL d   1      22.140 -18.758  -0.844  0.00  0.00     0.068 A 
ATOM     32  C   UNL d   1      23.364 -19.348  -0.523  0.00  0.00     0.038 A 
ATOM     33  C   UNL d   1      24.515 -18.566  -0.310  0.00  0.00     0.020 A 
BRANCH  31  34
ATOM     34  O   UNL d   1      21.018 -19.442  -1.236  0.00  0.00    -0.351 OA
BRANCH  34  35
ATOM     35  C   UNL d   1      19.764 -18.918  -0.790  0.00  0.00     0.175 C 
BRANCH  35  36
ATOM     36  C   UNL d   1      18.801 -20.074  -0.513  0.00  0.00     0.026 C 
BRANCH  36  37
ATOM     37  C   UNL d   1      19.043 -20.672   0.873  0.00  0.00    -0.002 C 
ATOM     38  C   UNL d   1      20.025 -19.834   1.674  0.00  0.00     0.005 C 
ENDBRANCH  36  37
ENDBRANCH  35  36
ENDBRANCH  34  35
ENDBRANCH  31  34
ENDBRANCH  26  28
ENDBRANCH  25  26
ENDBRANCH   1  25
TORSDOF 14
ENDMDL
MODEL 8
REMARK VINA RESULT:    -8.582      7.276     12.040
REMARK INTER + INTRA:         -15.136
REMARK INTER:                 -12.758
REMARK INTRA:                  -2.378
REMARK CONF_INDEPENDENT:        4.176
REMARK UNBOUND:                -2.378
REMARK  14 active torsions:
REMARK  status: ('A' for Active; 'I' for Inactive)
REMARK    1  A    between atoms: C_2  and  C_3 
REMARK    2  A    between atoms: C_3  and  C_4 
REMARK    3  A    between atoms: C_4  and  O_5 
REMARK    4  A    between atoms: O_5  and  C_6 
REMARK    5  A    between atoms: C_9  and  C_10 
REMARK    6  A    between atoms: C_10  and  O_12 
REMARK    7  A    between atoms: O_12  and  C_13 
REMARK    8  A    between atoms: C_16  and  C_17 
REMARK    9  A    between atoms: N_18  and  N_19 
REMARK       I    between atoms: N_19  and  C_20 
REMARK   10  A    between atoms: C_20  and  C_22 
REMARK   11  A    between atoms: C_22  and  O_23 
REMARK   12  A    between atoms: O_23  and  C_24 
REMARK   13  A    between atoms: C_27  and  O_28 
REMARK   14  A    between atoms: C_33  and  O_34 
ROOT
ATOM      1  C   UNL d   1      26.934 -15.113  -0.983  0.00  0.00     0.112 A 
ATOM      2  C   UNL d   1      26.649 -13.842  -0.439  0.00  0.00     0.041 A 
ATOM      3  C   UNL d   1      27.075 -13.488   0.863  0.00  0.00     0.016 A 
ATOM      4  C   UNL d   1      27.730 -14.425   1.670  0.00  0.00    -0.014 A 
ATOM      5  C   UNL d   1      28.039 -15.674   1.107  0.00  0.00     0.052 A 
ATOM      6  C   UNL d   1      27.674 -16.030  -0.222  0.00  0.00     0.102 A 
ENDROOT
BRANCH   4   7
ATOM      7  C   UNL d   1      28.037 -14.115   3.118  0.00  0.00     0.150 C 
ATOM      8  N   UNL d   1      27.120 -13.702   3.941  0.00  0.00    -0.184 NA
BRANCH   8   9
ATOM      9  N   UNL d   1      27.443 -13.388   5.257  0.00  0.00    -0.246 N 
ATOM     10  C   UNL d   1      28.003 -12.121   5.510  0.00  0.00     0.261 C 
ATOM     11  O   UNL d   1      28.225 -11.305   4.613  0.00  0.00    -0.269 OA
ATOM     12  H   UNL d   1      27.283 -14.069   5.990  0.00  0.00     0.192 HD
BRANCH  10  13
ATOM     13  C   UNL d   1      28.338 -11.794   6.993  0.00  0.00     0.280 C 
BRANCH  13  14
ATOM     14  O   UNL d   1      27.802 -12.812   7.857  0.00  0.00    -0.342 OA
BRANCH  14  15
ATOM     15  C   UNL d   1      28.660 -13.578   8.598  0.00  0.00     0.069 A 
ATOM     16  C   UNL d   1      28.317 -13.784   9.940  0.00  0.00     0.039 A 
ATOM     17  C   UNL d   1      29.188 -14.457  10.813  0.00  0.00     0.039 A 
ATOM     18  C   UNL d   1      30.388 -14.990  10.340  0.00  0.00     0.068 A 
ATOM     19  C   UNL d   1      30.739 -14.764   9.009  0.00  0.00     0.039 A 
ATOM     20  C   UNL d   1      29.886 -14.057   8.145  0.00  0.00     0.039 A 
BRANCH  18  21
ATOM     21  O   UNL d   1      31.128 -15.706  11.242  0.00  0.00    -0.356 OA
ATOM     22  C   UNL d   1      32.544 -15.674  11.067  0.00  0.00     0.210 C 
ENDBRANCH  18  21
ENDBRANCH  14  15
ENDBRANCH  13  14
ENDBRANCH  10  13
ENDBRANCH   8   9
ENDBRANCH   4   7
BRANCH   6  23
ATOM     23  O   UNL d   1      28.132 -17.277  -0.561  0.00  0.00    -0.353 OA
ATOM     24  C   UNL d   1      29.464 -17.474  -0.998  0.00  0.00     0.210 C 
ENDBRANCH   6  23
BRANCH   1  25
ATOM     25  O   UNL d   1      26.555 -15.324  -2.341  0.00  0.00    -0.272 OA
BRANCH  25  26
ATOM     26  C   UNL d   1      25.197 -15.346  -2.659  0.00  0.00     0.298 C 
ATOM     27  O   UNL d   1      24.633 -14.559  -3.421  0.00  0.00    -0.259 OA
BRANCH  26  28
ATOM     28  C   UNL d   1      24.434 -16.312  -1.784  0.00  0.00     0.040 A 
ATOM     29  C   UNL d   1      23.168 -15.956  -1.273  0.00  0.00     0.020 A 
ATOM     30  C   UNL d   1      22.411 -16.863  -0.508  0.00  0.00     0.038 A 
ATOM     31  C   UNL d   1      22.882 -18.157  -0.282  0.00  0.00     0.068 A 
ATOM     32  C   UNL d   1      24.162 -18.489  -0.729  0.00  0.00     0.038 A 
ATOM     33  C   UNL d   1      24.947 -17.565  -1.444  0.00  0.00     0.020 A 
BRANCH  31  34
ATOM     34  O   UNL d   1      21.988 -19.040   0.264  0.00  0.00    -0.351 OA
BRANCH  34  35
ATOM     35  C   UNL d   1      20.670 -19.040  -0.294  0.00  0.00     0.175 C 
BRANCH  35  36
ATOM     36  C   UNL d   1      20.073 -20.445  -0.185  0.00  0.00     0.026 C 
BRANCH  36  37
ATOM     37  C   UNL d   1      19.111 -20.542   0.999  0.00  0.00    -0.002 C 
ATOM     38  C   UNL d   1      19.737 -19.993   2.269  0.00  0.00     0.005 C 
ENDBRANCH  36  37
ENDBRANCH  35  36
ENDBRANCH  34  35
ENDBRANCH  31  34
ENDBRANCH  26  28
ENDBRANCH  25  26
ENDBRANCH   1  25
TORSDOF 14
ENDMDL
MODEL 9
REMARK VINA RESULT:    -8.468      3.768      5.261
REMARK INTER + INTRA:         -15.073
REMARK INTER:                 -12.645
REMARK INTRA:                  -2.428
REMARK CONF_INDEPENDENT:        4.176
REMARK UNBOUND:                -2.428
REMARK  14 active torsions:
REMARK  status: ('A' for Active; 'I' for Inactive)
REMARK    1  A    between atoms: C_2  and  C_3 
REMARK    2  A    between atoms: C_3  and  C_4 
REMARK    3  A    between atoms: C_4  and  O_5 
REMARK    4  A    between atoms: O_5  and  C_6 
REMARK    5  A    between atoms: C_9  and  C_10 
REMARK    6  A    between atoms: C_10  and  O_12 
REMARK    7  A    between atoms: O_12  and  C_13 
REMARK    8  A    between atoms: C_16  and  C_17 
REMARK    9  A    between atoms: N_18  and  N_19 
REMARK       I    between atoms: N_19  and  C_20 
REMARK   10  A    between atoms: C_20  and  C_22 
REMARK   11  A    between atoms: C_22  and  O_23 
REMARK   12  A    between atoms: O_23  and  C_24 
REMARK   13  A    between atoms: C_27  and  O_28 
REMARK   14  A    between atoms: C_33  and  O_34 
ROOT
ATOM      1  C   UNL d   1      26.592 -15.477  -1.811  0.00  0.00     0.112 A 
ATOM      2  C   UNL d   1      27.095 -14.593  -0.832  0.00  0.00     0.041 A 
ATOM      3  C   UNL d   1      27.009 -13.190  -0.996  0.00  0.00     0.016 A 
ATOM      4  C   UNL d   1      26.483 -12.648  -2.174  0.00  0.00    -0.014 A 
ATOM      5  C   UNL d   1      25.954 -13.536  -3.126  0.00  0.00     0.052 A 
ATOM      6  C   UNL d   1      25.975 -14.949  -2.955  0.00  0.00     0.102 A 
ENDROOT
BRANCH   4   7
ATOM      7  C   UNL d   1      26.541 -11.160  -2.431  0.00  0.00     0.150 C 
ATOM      8  N   UNL d   1      27.286 -10.654  -3.369  0.00  0.00    -0.184 NA
BRANCH   8   9
ATOM      9  N   UNL d   1      27.348  -9.277  -3.555  0.00  0.00    -0.246 N 
ATOM     10  C   UNL d   1      26.186  -8.622  -4.008  0.00  0.00     0.261 C 
ATOM     11  O   UNL d   1      25.141  -9.228  -4.255  0.00  0.00    -0.269 OA
ATOM     12  H   UNL d   1      28.215  -8.784  -3.375  0.00  0.00     0.192 HD
BRANCH  10  13
ATOM     13  C   UNL d   1      26.283  -7.081  -4.189  0.00  0.00     0.280 C 
BRANCH  13  14
ATOM     14  O   UNL d   1      26.960  -6.492  -3.064  0.00  0.00    -0.342 OA
BRANCH  14  15
ATOM     15  C   UNL d   1      26.541  -6.798  -1.799  0.00  0.00     0.069 A 
ATOM     16  C   UNL d   1      27.399  -7.596  -1.030  0.00  0.00     0.039 A 
ATOM     17  C   UNL d   1      27.010  -8.060   0.237  0.00  0.00     0.039 A 
ATOM     18  C   UNL d   1      25.782  -7.681   0.781  0.00  0.00     0.068 A 
ATOM     19  C   UNL d   1      24.920  -6.906   0.006  0.00  0.00     0.039 A 
ATOM     20  C   UNL d   1      25.292  -6.474  -1.278  0.00  0.00     0.039 A 
BRANCH  18  21
ATOM     21  O   UNL d   1      25.529  -8.108   2.057  0.00  0.00    -0.356 OA
ATOM     22  C   UNL d   1      25.767  -9.490   2.320  0.00  0.00     0.210 C 
ENDBRANCH  18  21
ENDBRANCH  14  15
ENDBRANCH  13  14
ENDBRANCH  10  13
ENDBRANCH   8   9
ENDBRANCH   4   7
BRANCH   6  23
ATOM     23  O   UNL d   1      25.353 -15.598  -3.990  0.00  0.00    -0.353 OA
ATOM     24  C   UNL d   1      25.892 -15.576  -5.298  0.00  0.00     0.210 C 
ENDBRANCH   6  23
BRANCH   1  25
ATOM     25  O   UNL d   1      26.631 -16.867  -1.495  0.00  0.00    -0.272 OA
BRANCH  25  26
ATOM     26  C   UNL d   1      25.983 -17.306  -0.341  0.00  0.00     0.298 C 
ATOM     27  O   UNL d   1      26.544 -17.687   0.688  0.00  0.00    -0.259 OA
BRANCH  26  28
ATOM     28  C   UNL d   1      24.499 -17.481  -0.565  0.00  0.00     0.040 A 
ATOM     29  C   UNL d   1      23.969 -18.762  -0.823  0.00  0.00     0.020 A 
ATOM     30  C   UNL d   1      22.583 -18.960  -0.973  0.00  0.00     0.038 A 
ATOM     31  C   UNL d   1      21.700 -17.891  -0.819  0.00  0.00     0.068 A 
ATOM     32  C   UNL d   1      22.226 -16.611  -0.631  0.00  0.00     0.038 A 
ATOM     33  C   UNL d   1      23.615 -16.401  -0.538  0.00  0.00     0.020 A 
BRANCH  31  34
ATOM     34  O   UNL d   1      20.369 -18.210  -0.746  0.00  0.00    -0.351 OA
BRANCH  34  35
ATOM     35  C   UNL d   1      19.988 -19.478  -1.288  0.00  0.00     0.175 C 
BRANCH  35  36
ATOM     36  C   UNL d   1      19.647 -20.436  -0.145  0.00  0.00     0.026 C 
BRANCH  36  37
ATOM     37  C   UNL d   1      19.893 -19.779   1.214  0.00  0.00    -0.002 C 
ATOM     38  C   UNL d   1      18.675 -19.896   2.115  0.00  0.00     0.005 C 
ENDBRANCH  36  37
ENDBRANCH  35  36
ENDBRANCH  34  35
ENDBRANCH  31  34
ENDBRANCH  26  28
ENDBRANCH  25  26
ENDBRANCH   1  25
TORSDOF 14
ENDMDL
