MODEL 1
REMARK VINA RESULT:   -19.218      0.000      0.000
REMARK INTER + INTRA:         -20.312
REMARK INTER:                 -20.113
REMARK INTRA:                  -0.199
REMARK CONF_INDEPENDENT:        0.895
REMARK UNBOUND:                -0.199
REMARK  3 active torsions:
REMARK  status: ('A' for Active; 'I' for Inactive)
REMARK    1  A    between atoms: C_7  and  C_8 
REMARK    2  A    between atoms: N_14  and  C_15 
REMARK    3  A    between atoms: C_15  and  C_16 
ROOT
ATOM      1  C   UNL d   1      20.560 -19.363   0.041  0.00  0.00     0.100 A 
ATOM      2  N   UNL d   1      19.805 -19.325  -1.067  0.00  0.00    -0.173 NA
ATOM      3  N   UNL d   1      20.660 -19.028  -2.054  0.00  0.00    -0.281 N 
ATOM      4  C   UNL d   1      21.926 -18.878  -1.605  0.00  0.00     0.040 A 
ATOM      5  C   UNL d   1      21.900 -19.056  -0.245  0.00  0.00     0.023 A 
ATOM      6  C   UNL d   1      23.039 -18.950   0.666  0.00  0.00     0.278 A 
ATOM      7  N   UNL d   1      24.317 -18.510  -0.007  0.00  0.00    -0.063 N 
ATOM      8  C   UNL d   1      24.305 -18.374  -1.513  0.00  0.00     0.241 A 
ATOM      9  C   UNL d   1      23.086 -18.547  -2.403  0.00  0.00     0.087 A 
ATOM     10  H   UNL d   1      20.303 -18.939  -3.009  0.00  0.00     0.189 HD
ATOM     11  H   UNL d   1      25.010 -19.235   0.214  0.00  0.00     0.280 HD
ENDROOT
BRANCH   7  12
ATOM     12  C   UNL d   1      24.827 -17.213   0.637  0.00  0.00     0.273 C 
BRANCH  12  13
ATOM     13  C   UNL d   1      25.508 -16.242  -0.304  0.00  0.00    -0.030 C 
ATOM     14  C   UNL d   1      26.851 -15.915  -0.116  0.00  0.00     0.012 C 
ATOM     15  C   UNL d   1      27.486 -15.027  -0.995  0.00  0.00     0.040 C 
ATOM     16  C   UNL d   1      26.805 -14.499  -2.094  0.00  0.00     0.102 C 
ATOM     17  C   UNL d   1      25.485 -14.839  -2.304  0.00  0.00     0.102 C 
ATOM     18  O   UNL d   1      27.461 -13.635  -2.925  0.00  0.00    -0.346 OA
ATOM     19  C   UNL d   1      24.836 -15.611  -1.371  0.00  0.00     0.048 C 
ATOM     20  O   UNL d   1      24.718 -14.455  -3.367  0.00  0.00    -0.346 OA
ATOM     21  C   UNL d   1      25.520 -13.870  -4.393  0.00  0.00     0.202 C 
ATOM     22  C   UNL d   1      26.535 -12.924  -3.768  0.00  0.00     0.202 C 
ENDBRANCH  12  13
ENDBRANCH   7  12
BRANCH   1  23
ATOM     23  C   UNL d   1      20.046 -19.694   1.350  0.00  0.00     0.034 A 
ATOM     24  C   UNL d   1      20.769 -19.352   2.504  0.00  0.00     0.017 A 
ATOM     25  C   UNL d   1      20.293 -19.730   3.758  0.00  0.00     0.001 A 
ATOM     26  C   UNL d   1      19.102 -20.450   3.859  0.00  0.00     0.003 A 
ATOM     27  C   UNL d   1      18.405 -20.824   2.710  0.00  0.00     0.043 A 
ATOM     28  C   UNL d   1      18.884 -20.452   1.461  0.00  0.00     0.129 A 
ATOM     29  F   UNL d   1      18.246 -20.891   0.366  0.00  0.00    -0.205 F 
ENDBRANCH   1  23
TORSDOF 3
ENDMDL
MODEL 2
REMARK VINA RESULT:   -18.064      1.706      2.408
REMARK INTER + INTRA:         -19.339
REMARK INTER:                 -18.959
REMARK INTRA:                  -0.380
REMARK CONF_INDEPENDENT:        0.895
REMARK UNBOUND:                -0.380
REMARK  3 active torsions:
REMARK  status: ('A' for Active; 'I' for Inactive)
REMARK    1  A    between atoms: C_7  and  C_8 
REMARK    2  A    between atoms: N_14  and  C_15 
REMARK    3  A    between atoms: C_15  and  C_16 
ROOT
ATOM      1  C   UNL d   1      20.559 -19.363   0.047  0.00  0.00     0.100 A 
ATOM      2  N   UNL d   1      19.804 -19.325  -1.061  0.00  0.00    -0.173 NA
ATOM      3  N   UNL d   1      20.660 -19.028  -2.048  0.00  0.00    -0.281 N 
ATOM      4  C   UNL d   1      21.926 -18.878  -1.598  0.00  0.00     0.040 A 
ATOM      5  C   UNL d   1      21.899 -19.056  -0.238  0.00  0.00     0.023 A 
ATOM      6  C   UNL d   1      23.037 -18.950   0.673  0.00  0.00     0.278 A 
ATOM      7  N   UNL d   1      24.316 -18.510   0.001  0.00  0.00    -0.063 N 
ATOM      8  C   UNL d   1      24.305 -18.374  -1.505  0.00  0.00     0.241 A 
ATOM      9  C   UNL d   1      23.086 -18.547  -2.395  0.00  0.00     0.087 A 
ATOM     10  H   UNL d   1      20.303 -18.939  -3.003  0.00  0.00     0.189 HD
ATOM     11  H   UNL d   1      25.009 -19.235   0.223  0.00  0.00     0.280 HD
ENDROOT
BRANCH   7  12
ATOM     12  C   UNL d   1      24.826 -17.213   0.645  0.00  0.00     0.273 C 
BRANCH  12  13
ATOM     13  C   UNL d   1      26.092 -16.641   0.046  0.00  0.00    -0.030 C 
ATOM     14  C   UNL d   1      26.188 -15.273  -0.208  0.00  0.00     0.012 C 
ATOM     15  C   UNL d   1      27.366 -14.741  -0.751  0.00  0.00     0.040 C 
ATOM     16  C   UNL d   1      28.472 -15.557  -0.997  0.00  0.00     0.102 C 
ATOM     17  C   UNL d   1      28.397 -16.907  -0.723  0.00  0.00     0.102 C 
ATOM     18  O   UNL d   1      29.600 -14.998  -1.528  0.00  0.00    -0.346 OA
ATOM     19  C   UNL d   1      27.200 -17.439  -0.308  0.00  0.00     0.048 C 
ATOM     20  O   UNL d   1      29.415 -17.808  -0.849  0.00  0.00    -0.346 OA
ATOM     21  C   UNL d   1      30.664 -17.147  -1.046  0.00  0.00     0.202 C 
ATOM     22  C   UNL d   1      30.486 -16.011  -2.042  0.00  0.00     0.202 C 
ENDBRANCH  12  13
ENDBRANCH   7  12
BRANCH   1  23
ATOM     23  C   UNL d   1      20.044 -19.694   1.356  0.00  0.00     0.034 A 
ATOM     24  C   UNL d   1      20.765 -19.351   2.510  0.00  0.00     0.017 A 
ATOM     25  C   UNL d   1      20.289 -19.729   3.764  0.00  0.00     0.001 A 
ATOM     26  C   UNL d   1      19.099 -20.450   3.865  0.00  0.00     0.003 A 
ATOM     27  C   UNL d   1      18.403 -20.825   2.715  0.00  0.00     0.043 A 
ATOM     28  C   UNL d   1      18.882 -20.453   1.466  0.00  0.00     0.129 A 
ATOM     29  F   UNL d   1      18.247 -20.893   0.371  0.00  0.00    -0.205 F 
ENDBRANCH   1  23
TORSDOF 3
ENDMDL
