MODEL 1
REMARK VINA RESULT:   -28.676      0.000      0.000
REMARK INTER + INTRA:         -30.584
REMARK INTER:                 -30.168
REMARK INTRA:                  -0.417
REMARK CONF_INDEPENDENT:        1.492
REMARK UNBOUND:                -0.417
REMARK  5 active torsions:
REMARK  status: ('A' for Active; 'I' for Inactive)
REMARK    1  A    between atoms: C_8  and  C_9 
REMARK    2  A    between atoms: C_9  and  C_10 
REMARK    3  A    between atoms: C_10  and  N_11 
REMARK       I    between atoms: N_11  and  C_12 
REMARK    4  A    between atoms: C_12  and  C_14 
REMARK    5  A    between atoms: C_18  and  N_17 
ROOT
ATOM      1  N   UNL d   1      26.637 -16.266   0.026  0.00  0.00    -0.360 N 
ATOM      2  C   UNL d   1      25.410 -16.329  -0.584  0.00  0.00     0.221 C 
ATOM      3  O   UNL d   1      24.825 -15.282  -0.881  0.00  0.00    -0.273 OA
ATOM      4  H   UNL d   1      27.069 -17.105   0.396  0.00  0.00     0.162 HD
ENDROOT
BRANCH   2   5
ATOM      5  C   UNL d   1      24.673 -17.642  -0.737  0.00  0.00     0.081 C 
ATOM      6  C   UNL d   1      24.057 -18.462   0.427  0.00  0.00     0.044 C 
ATOM      7  C   UNL d   1      23.565 -19.779  -0.195  0.00  0.00     0.276 C 
ATOM      8  N   UNL d   1      22.550 -19.468  -1.222  0.00  0.00     0.117 N 
ATOM      9  C   UNL d   1      23.281 -18.924  -2.385  0.00  0.00     0.276 C 
ATOM     10  C   UNL d   1      23.824 -17.565  -2.017  0.00  0.00     0.044 C 
BRANCH   8  11
ATOM     11  C   UNL d   1      21.387 -18.630  -0.676  0.00  0.00     0.370 C 
ATOM     12  N   UNL d   1      19.905 -18.739  -1.096  0.00  0.00    -0.252 NA
ATOM     13  C   UNL d   1      19.168 -19.418  -0.070  0.00  0.00     0.046 C 
ATOM     14  H   UNL d   1      19.461 -17.876  -1.404  0.00  0.00     0.130 HD
ATOM     15  C   UNL d   1      18.027 -20.203  -0.294  0.00  0.00     0.028 C 
ATOM     16  C   UNL d   1      19.888 -19.638   1.102  0.00  0.00     0.117 C 
ATOM     17  C   UNL d   1      17.933 -21.394   0.441  0.00  0.00     0.021 C 
ATOM     18  C   UNL d   1      18.783 -21.575   1.529  0.00  0.00     0.118 C 
ATOM     19  N   UNL d   1      19.704 -20.676   1.927  0.00  0.00    -0.252 NA
ATOM     20  S   UNL d   1      21.374 -18.685   1.150  0.00  0.00    -0.057 SA
ENDBRANCH   8  11
ENDBRANCH   2   5
BRANCH   1  21
ATOM     21  C   UNL d   1      27.147 -14.941   0.315  0.00  0.00     0.127 C 
BRANCH  21  22
ATOM     22  C   UNL d   1      27.817 -14.800   1.673  0.00  0.00     0.056 C 
BRANCH  22  23
ATOM     23  C   UNL d   1      27.675 -13.431   2.270  0.00  0.00    -0.048 A 
ATOM     24  C   UNL d   1      27.923 -13.115   3.547  0.00  0.00    -0.005 A 
ATOM     25  C   UNL d   1      27.651 -11.667   3.644  0.00  0.00     0.038 A 
ATOM     26  C   UNL d   1      28.352 -13.874   4.668  0.00  0.00     0.020 A 
ATOM     27  C   UNL d   1      27.845 -11.034   4.970  0.00  0.00     0.030 A 
ATOM     28  N   UNL d   1      27.283 -11.175   2.546  0.00  0.00    -0.385 N 
ATOM     29  C   UNL d   1      28.252 -11.819   5.986  0.00  0.00     0.009 A 
ATOM     30  C   UNL d   1      28.513 -13.256   5.853  0.00  0.00    -0.061 A 
ATOM     31  C   UNL d   1      28.965 -14.046   7.046  0.00  0.00     0.048 C 
ATOM     32  C   UNL d   1      27.237 -12.217   1.496  0.00  0.00     0.155 A 
ATOM     33  H   UNL d   1      27.047 -10.184   2.405  0.00  0.00     0.160 HD
ENDBRANCH  22  23
ENDBRANCH  21  22
ENDBRANCH   1  21
TORSDOF 5
ENDMDL
MODEL 2
REMARK VINA RESULT:   -28.463      3.978      6.005
REMARK INTER + INTRA:         -30.398
REMARK INTER:                 -29.955
REMARK INTRA:                  -0.443
REMARK CONF_INDEPENDENT:        1.492
REMARK UNBOUND:                -0.443
REMARK  5 active torsions:
REMARK  status: ('A' for Active; 'I' for Inactive)
REMARK    1  A    between atoms: C_8  and  C_9 
REMARK    2  A    between atoms: C_9  and  C_10 
REMARK    3  A    between atoms: C_10  and  N_11 
REMARK       I    between atoms: N_11  and  C_12 
REMARK    4  A    between atoms: C_12  and  C_14 
REMARK    5  A    between atoms: C_18  and  N_17 
ROOT
ATOM      1  N   UNL d   1      25.373 -15.266  -1.498  0.00  0.00    -0.360 N 
ATOM      2  C   UNL d   1      25.367 -16.205  -0.498  0.00  0.00     0.221 C 
ATOM      3  O   UNL d   1      26.078 -16.036   0.498  0.00  0.00    -0.273 OA
ATOM      4  H   UNL d   1      24.903 -15.449  -2.377  0.00  0.00     0.162 HD
ENDROOT
BRANCH   2   5
ATOM      5  C   UNL d   1      24.651 -17.528  -0.665  0.00  0.00     0.081 C 
ATOM      6  C   UNL d   1      24.048 -18.369   0.491  0.00  0.00     0.044 C 
ATOM      7  C   UNL d   1      23.579 -19.688  -0.145  0.00  0.00     0.276 C 
ATOM      8  N   UNL d   1      22.558 -19.383  -1.169  0.00  0.00     0.117 N 
ATOM      9  C   UNL d   1      23.280 -18.815  -2.326  0.00  0.00     0.276 C 
ATOM     10  C   UNL d   1      23.800 -17.452  -1.945  0.00  0.00     0.044 C 
BRANCH   8  11
ATOM     11  C   UNL d   1      21.382 -18.570  -0.615  0.00  0.00     0.370 C 
ATOM     12  N   UNL d   1      19.905 -18.681  -1.054  0.00  0.00    -0.252 NA
ATOM     13  C   UNL d   1      19.164 -19.393  -0.054  0.00  0.00     0.046 C 
ATOM     14  H   UNL d   1      19.457 -17.814  -1.344  0.00  0.00     0.130 HD
ATOM     15  C   UNL d   1      18.032 -20.182  -0.311  0.00  0.00     0.028 C 
ATOM     16  C   UNL d   1      19.872 -19.636   1.120  0.00  0.00     0.117 C 
ATOM     17  C   UNL d   1      17.941 -21.392   0.392  0.00  0.00     0.021 C 
ATOM     18  C   UNL d   1      18.780 -21.594   1.485  0.00  0.00     0.118 C 
ATOM     19  N   UNL d   1      19.688 -20.697   1.916  0.00  0.00    -0.252 NA
ATOM     20  S   UNL d   1      21.349 -18.672   1.209  0.00  0.00    -0.057 SA
ENDBRANCH   8  11
ENDBRANCH   2   5
BRANCH   1  21
ATOM     21  C   UNL d   1      26.266 -14.139  -1.319  0.00  0.00     0.127 C 
BRANCH  21  22
ATOM     22  C   UNL d   1      27.236 -13.907  -2.467  0.00  0.00     0.056 C 
BRANCH  22  23
ATOM     23  C   UNL d   1      26.735 -12.923  -3.483  0.00  0.00    -0.048 A 
ATOM     24  C   UNL d   1      27.221 -12.774  -4.721  0.00  0.00    -0.005 A 
ATOM     25  C   UNL d   1      26.405 -11.703  -5.328  0.00  0.00     0.038 A 
ATOM     26  C   UNL d   1      28.268 -13.415  -5.435  0.00  0.00     0.020 A 
ATOM     27  C   UNL d   1      26.727 -11.321  -6.723  0.00  0.00     0.030 A 
ATOM     28  N   UNL d   1      25.530 -11.263  -4.538  0.00  0.00    -0.385 N 
ATOM     29  C   UNL d   1      27.735 -11.973  -7.334  0.00  0.00     0.009 A 
ATOM     30  C   UNL d   1      28.525 -13.033  -6.700  0.00  0.00    -0.061 A 
ATOM     31  C   UNL d   1      29.628 -13.702  -7.466  0.00  0.00     0.048 C 
ATOM     32  C   UNL d   1      25.600 -11.965  -3.238  0.00  0.00     0.155 A 
ATOM     33  H   UNL d   1      24.862 -10.516  -4.771  0.00  0.00     0.160 HD
ENDBRANCH  22  23
ENDBRANCH  21  22
ENDBRANCH   1  21
TORSDOF 5
ENDMDL
MODEL 3
REMARK VINA RESULT:   -28.330      2.935      5.106
REMARK INTER + INTRA:         -30.797
REMARK INTER:                 -29.821
REMARK INTRA:                  -0.975
REMARK CONF_INDEPENDENT:        1.492
REMARK UNBOUND:                -0.975
REMARK  5 active torsions:
REMARK  status: ('A' for Active; 'I' for Inactive)
REMARK    1  A    between atoms: C_8  and  C_9 
REMARK    2  A    between atoms: C_9  and  C_10 
REMARK    3  A    between atoms: C_10  and  N_11 
REMARK       I    between atoms: N_11  and  C_12 
REMARK    4  A    between atoms: C_12  and  C_14 
REMARK    5  A    between atoms: C_18  and  N_17 
ROOT
ATOM      1  N   UNL d   1      26.583 -16.238   0.202  0.00  0.00    -0.360 N 
ATOM      2  C   UNL d   1      25.416 -16.299  -0.517  0.00  0.00     0.221 C 
ATOM      3  O   UNL d   1      24.877 -15.253  -0.891  0.00  0.00    -0.273 OA
ATOM      4  H   UNL d   1      26.966 -17.072   0.630  0.00  0.00     0.162 HD
ENDROOT
BRANCH   2   5
ATOM      5  C   UNL d   1      24.676 -17.606  -0.706  0.00  0.00     0.081 C 
ATOM      6  C   UNL d   1      24.048 -18.450   0.434  0.00  0.00     0.044 C 
ATOM      7  C   UNL d   1      23.557 -19.751  -0.222  0.00  0.00     0.276 C 
ATOM      8  N   UNL d   1      22.551 -19.414  -1.249  0.00  0.00     0.117 N 
ATOM      9  C   UNL d   1      23.293 -18.845  -2.394  0.00  0.00     0.276 C 
ATOM     10  C   UNL d   1      23.837 -17.498  -1.991  0.00  0.00     0.044 C 
BRANCH   8  11
ATOM     11  C   UNL d   1      21.387 -18.584  -0.694  0.00  0.00     0.370 C 
ATOM     12  N   UNL d   1      19.904 -18.692  -1.115  0.00  0.00    -0.252 NA
ATOM     13  C   UNL d   1      19.170 -19.384  -0.097  0.00  0.00     0.046 C 
ATOM     14  H   UNL d   1      19.459 -17.826  -1.413  0.00  0.00     0.130 HD
ATOM     15  C   UNL d   1      18.030 -20.169  -0.329  0.00  0.00     0.028 C 
ATOM     16  C   UNL d   1      19.890 -19.615   1.073  0.00  0.00     0.117 C 
ATOM     17  C   UNL d   1      17.939 -21.368   0.392  0.00  0.00     0.021 C 
ATOM     18  C   UNL d   1      18.789 -21.560   1.478  0.00  0.00     0.118 C 
ATOM     19  N   UNL d   1      19.708 -20.664   1.885  0.00  0.00    -0.252 NA
ATOM     20  S   UNL d   1      21.374 -18.660   1.131  0.00  0.00    -0.057 SA
ENDBRANCH   8  11
ENDBRANCH   2   5
BRANCH   1  21
ATOM     21  C   UNL d   1      27.084 -14.912   0.505  0.00  0.00     0.127 C 
BRANCH  21  22
ATOM     22  C   UNL d   1      28.439 -14.591  -0.105  0.00  0.00     0.056 C 
BRANCH  22  23
ATOM     23  C   UNL d   1      28.621 -15.149  -1.486  0.00  0.00    -0.048 A 
ATOM     24  C   UNL d   1      27.824 -14.902  -2.532  0.00  0.00    -0.005 A 
ATOM     25  C   UNL d   1      28.414 -15.661  -3.653  0.00  0.00     0.038 A 
ATOM     26  C   UNL d   1      26.650 -14.118  -2.693  0.00  0.00     0.020 A 
ATOM     27  C   UNL d   1      27.725 -15.571  -4.962  0.00  0.00     0.030 A 
ATOM     28  N   UNL d   1      29.449 -16.290  -3.312  0.00  0.00    -0.385 N 
ATOM     29  C   UNL d   1      26.616 -14.810  -5.036  0.00  0.00     0.009 A 
ATOM     30  C   UNL d   1      26.058 -14.069  -3.900  0.00  0.00    -0.061 A 
ATOM     31  C   UNL d   1      24.817 -13.246  -4.084  0.00  0.00     0.048 C 
ATOM     32  C   UNL d   1      29.746 -16.068  -1.880  0.00  0.00     0.155 A 
ATOM     33  H   UNL d   1      30.005 -16.877  -3.947  0.00  0.00     0.160 HD
ENDBRANCH  22  23
ENDBRANCH  21  22
ENDBRANCH   1  21
TORSDOF 5
ENDMDL
MODEL 4
REMARK VINA RESULT:   -28.235      2.873      4.879
REMARK INTER + INTRA:         -30.776
REMARK INTER:                 -29.726
REMARK INTRA:                  -1.050
REMARK CONF_INDEPENDENT:        1.492
REMARK UNBOUND:                -1.050
REMARK  5 active torsions:
REMARK  status: ('A' for Active; 'I' for Inactive)
REMARK    1  A    between atoms: C_8  and  C_9 
REMARK    2  A    between atoms: C_9  and  C_10 
REMARK    3  A    between atoms: C_10  and  N_11 
REMARK       I    between atoms: N_11  and  C_12 
REMARK    4  A    between atoms: C_12  and  C_14 
REMARK    5  A    between atoms: C_18  and  N_17 
ROOT
ATOM      1  N   UNL d   1      26.227 -15.867   0.340  0.00  0.00    -0.360 N 
ATOM      2  C   UNL d   1      25.275 -16.106  -0.617  0.00  0.00     0.221 C 
ATOM      3  O   UNL d   1      24.847 -15.167  -1.298  0.00  0.00    -0.273 OA
ATOM      4  H   UNL d   1      26.491 -16.594   0.994  0.00  0.00     0.162 HD
ENDROOT
BRANCH   2   5
ATOM      5  C   UNL d   1      24.602 -17.456  -0.738  0.00  0.00     0.081 C 
ATOM      6  C   UNL d   1      24.025 -18.277   0.446  0.00  0.00     0.044 C 
ATOM      7  C   UNL d   1      23.598 -19.630  -0.144  0.00  0.00     0.276 C 
ATOM      8  N   UNL d   1      22.570 -19.395  -1.177  0.00  0.00     0.117 N 
ATOM      9  C   UNL d   1      23.274 -18.844  -2.353  0.00  0.00     0.276 C 
ATOM     10  C   UNL d   1      23.750 -17.452  -2.019  0.00  0.00     0.044 C 
BRANCH   8  11
ATOM     11  C   UNL d   1      21.367 -18.600  -0.651  0.00  0.00     0.370 C 
ATOM     12  N   UNL d   1      19.905 -18.729  -1.132  0.00  0.00    -0.252 NA
ATOM     13  C   UNL d   1      19.146 -19.457  -0.158  0.00  0.00     0.046 C 
ATOM     14  H   UNL d   1      19.454 -17.866  -1.430  0.00  0.00     0.130 HD
ATOM     15  C   UNL d   1      18.032 -20.259  -0.451  0.00  0.00     0.028 C 
ATOM     16  C   UNL d   1      19.825 -19.698   1.034  0.00  0.00     0.117 C 
ATOM     17  C   UNL d   1      17.938 -21.475   0.242  0.00  0.00     0.021 C 
ATOM     18  C   UNL d   1      18.749 -21.673   1.356  0.00  0.00     0.118 C 
ATOM     19  N   UNL d   1      19.633 -20.767   1.818  0.00  0.00    -0.252 NA
ATOM     20  S   UNL d   1      21.285 -18.715   1.171  0.00  0.00    -0.057 SA
ENDBRANCH   8  11
ENDBRANCH   2   5
BRANCH   1  21
ATOM     21  C   UNL d   1      26.641 -14.488   0.508  0.00  0.00     0.127 C 
BRANCH  21  22
ATOM     22  C   UNL d   1      27.786 -14.054  -0.393  0.00  0.00     0.056 C 
BRANCH  22  23
ATOM     23  C   UNL d   1      27.401 -12.993  -1.381  0.00  0.00    -0.048 A 
ATOM     24  C   UNL d   1      26.934 -13.219  -2.615  0.00  0.00    -0.005 A 
ATOM     25  C   UNL d   1      26.696 -11.878  -3.186  0.00  0.00     0.038 A 
ATOM     26  C   UNL d   1      26.672 -14.405  -3.351  0.00  0.00     0.020 A 
ATOM     27  C   UNL d   1      26.168 -11.821  -4.570  0.00  0.00     0.030 A 
ATOM     28  N   UNL d   1      26.988 -10.956  -2.381  0.00  0.00    -0.385 N 
ATOM     29  C   UNL d   1      25.946 -12.987  -5.205  0.00  0.00     0.009 A 
ATOM     30  C   UNL d   1      26.194 -14.303  -4.606  0.00  0.00    -0.061 A 
ATOM     31  C   UNL d   1      25.913 -15.548  -5.395  0.00  0.00     0.048 C 
ATOM     32  C   UNL d   1      27.485 -11.516  -1.105  0.00  0.00     0.155 A 
ATOM     33  H   UNL d   1      26.893  -9.953  -2.589  0.00  0.00     0.160 HD
ENDBRANCH  22  23
ENDBRANCH  21  22
ENDBRANCH   1  21
TORSDOF 5
ENDMDL
MODEL 5
REMARK VINA RESULT:   -28.192      3.563      5.392
REMARK INTER + INTRA:         -30.439
REMARK INTER:                 -29.683
REMARK INTRA:                  -0.756
REMARK CONF_INDEPENDENT:        1.492
REMARK UNBOUND:                -0.756
REMARK  5 active torsions:
REMARK  status: ('A' for Active; 'I' for Inactive)
REMARK    1  A    between atoms: C_8  and  C_9 
REMARK    2  A    between atoms: C_9  and  C_10 
REMARK    3  A    between atoms: C_10  and  N_11 
REMARK       I    between atoms: N_11  and  C_12 
REMARK    4  A    between atoms: C_12  and  C_14 
REMARK    5  A    between atoms: C_18  and  N_17 
ROOT
ATOM      1  N   UNL d   1      25.557 -15.292  -1.570  0.00  0.00    -0.360 N 
ATOM      2  C   UNL d   1      25.344 -16.125  -0.502  0.00  0.00     0.221 C 
ATOM      3  O   UNL d   1      25.863 -15.861   0.588  0.00  0.00    -0.273 OA
ATOM      4  H   UNL d   1      25.253 -15.560  -2.499  0.00  0.00     0.162 HD
ENDROOT
BRANCH   2   5
ATOM      5  C   UNL d   1      24.639 -17.454  -0.668  0.00  0.00     0.081 C 
ATOM      6  C   UNL d   1      24.043 -18.300   0.488  0.00  0.00     0.044 C 
ATOM      7  C   UNL d   1      23.584 -19.622  -0.147  0.00  0.00     0.276 C 
ATOM      8  N   UNL d   1      22.562 -19.327  -1.171  0.00  0.00     0.117 N 
ATOM      9  C   UNL d   1      23.279 -18.753  -2.328  0.00  0.00     0.276 C 
ATOM     10  C   UNL d   1      23.788 -17.386  -1.948  0.00  0.00     0.044 C 
BRANCH   8  11
ATOM     11  C   UNL d   1      21.378 -18.523  -0.617  0.00  0.00     0.370 C 
ATOM     12  N   UNL d   1      19.905 -18.636  -1.067  0.00  0.00    -0.252 NA
ATOM     13  C   UNL d   1      19.160 -19.360  -0.078  0.00  0.00     0.046 C 
ATOM     14  H   UNL d   1      19.456 -17.768  -1.353  0.00  0.00     0.130 HD
ATOM     15  C   UNL d   1      18.033 -20.151  -0.349  0.00  0.00     0.028 C 
ATOM     16  C   UNL d   1      19.862 -19.610   1.098  0.00  0.00     0.117 C 
ATOM     17  C   UNL d   1      17.942 -21.367   0.343  0.00  0.00     0.021 C 
ATOM     18  C   UNL d   1      18.775 -21.575   1.439  0.00  0.00     0.118 C 
ATOM     19  N   UNL d   1      19.677 -20.679   1.883  0.00  0.00    -0.252 NA
ATOM     20  S   UNL d   1      21.335 -18.642   1.206  0.00  0.00    -0.057 SA
ENDBRANCH   8  11
ENDBRANCH   2   5
BRANCH   1  21
ATOM     21  C   UNL d   1      26.429 -14.158  -1.340  0.00  0.00     0.127 C 
BRANCH  21  22
ATOM     22  C   UNL d   1      27.778 -14.241  -2.037  0.00  0.00     0.056 C 
BRANCH  22  23
ATOM     23  C   UNL d   1      28.560 -15.471  -1.680  0.00  0.00    -0.048 A 
ATOM     24  C   UNL d   1      29.299 -16.191  -2.532  0.00  0.00    -0.005 A 
ATOM     25  C   UNL d   1      29.872 -17.281  -1.716  0.00  0.00     0.038 A 
ATOM     26  C   UNL d   1      29.572 -16.071  -3.921  0.00  0.00     0.020 A 
ATOM     27  C   UNL d   1      30.749 -18.251  -2.413  0.00  0.00     0.030 A 
ATOM     28  N   UNL d   1      29.514 -17.216  -0.512  0.00  0.00    -0.385 N 
ATOM     29  C   UNL d   1      30.961 -18.073  -3.731  0.00  0.00     0.009 A 
ATOM     30  C   UNL d   1      30.374 -16.977  -4.510  0.00  0.00    -0.061 A 
ATOM     31  C   UNL d   1      30.671 -16.862  -5.976  0.00  0.00     0.048 C 
ATOM     32  C   UNL d   1      28.622 -16.056  -0.295  0.00  0.00     0.155 A 
ATOM     33  H   UNL d   1      29.806 -17.882   0.216  0.00  0.00     0.160 HD
ENDBRANCH  22  23
ENDBRANCH  21  22
ENDBRANCH   1  21
TORSDOF 5
ENDMDL
MODEL 6
REMARK VINA RESULT:   -28.156      3.157      5.140
REMARK INTER + INTRA:         -30.486
REMARK INTER:                 -29.647
REMARK INTRA:                  -0.839
REMARK CONF_INDEPENDENT:        1.492
REMARK UNBOUND:                -0.839
REMARK  5 active torsions:
REMARK  status: ('A' for Active; 'I' for Inactive)
REMARK    1  A    between atoms: C_8  and  C_9 
REMARK    2  A    between atoms: C_9  and  C_10 
REMARK    3  A    between atoms: C_10  and  N_11 
REMARK       I    between atoms: N_11  and  C_12 
REMARK    4  A    between atoms: C_12  and  C_14 
REMARK    5  A    between atoms: C_18  and  N_17 
ROOT
ATOM      1  N   UNL d   1      26.769 -16.163  -0.544  0.00  0.00    -0.360 N 
ATOM      2  C   UNL d   1      25.419 -16.269  -0.331  0.00  0.00     0.221 C 
ATOM      3  O   UNL d   1      24.818 -15.344   0.228  0.00  0.00    -0.273 OA
ATOM      4  H   UNL d   1      27.300 -16.960  -0.877  0.00  0.00     0.162 HD
ENDROOT
BRANCH   2   5
ATOM      5  C   UNL d   1      24.678 -17.561  -0.596  0.00  0.00     0.081 C 
ATOM      6  C   UNL d   1      24.060 -18.477   0.493  0.00  0.00     0.044 C 
ATOM      7  C   UNL d   1      23.565 -19.734  -0.240  0.00  0.00     0.276 C 
ATOM      8  N   UNL d   1      22.550 -19.333  -1.236  0.00  0.00     0.117 N 
ATOM      9  C   UNL d   1      23.282 -18.692  -2.348  0.00  0.00     0.276 C 
ATOM     10  C   UNL d   1      23.828 -17.373  -1.865  0.00  0.00     0.044 C 
BRANCH   8  11
ATOM     11  C   UNL d   1      21.389 -18.542  -0.619  0.00  0.00     0.370 C 
ATOM     12  N   UNL d   1      19.905 -18.617  -1.040  0.00  0.00    -0.252 NA
ATOM     13  C   UNL d   1      19.173 -19.377  -0.070  0.00  0.00     0.046 C 
ATOM     14  H   UNL d   1      19.461 -17.732  -1.276  0.00  0.00     0.130 HD
ATOM     15  C   UNL d   1      18.030 -20.142  -0.351  0.00  0.00     0.028 C 
ATOM     16  C   UNL d   1      19.897 -19.691   1.078  0.00  0.00     0.117 C 
ATOM     17  C   UNL d   1      17.939 -21.388   0.285  0.00  0.00     0.021 C 
ATOM     18  C   UNL d   1      18.793 -21.656   1.351  0.00  0.00     0.118 C 
ATOM     19  N   UNL d   1      19.716 -20.792   1.817  0.00  0.00    -0.252 NA
ATOM     20  S   UNL d   1      21.384 -18.745   1.197  0.00  0.00    -0.057 SA
ENDBRANCH   8  11
ENDBRANCH   2   5
BRANCH   1  21
ATOM     21  C   UNL d   1      27.408 -14.960  -0.051  0.00  0.00     0.127 C 
BRANCH  21  22
ATOM     22  C   UNL d   1      26.933 -13.673  -0.707  0.00  0.00     0.056 C 
BRANCH  22  23
ATOM     23  C   UNL d   1      26.599 -13.831  -2.161  0.00  0.00    -0.048 A 
ATOM     24  C   UNL d   1      27.364 -14.449  -3.068  0.00  0.00    -0.005 A 
ATOM     25  C   UNL d   1      26.612 -14.352  -4.335  0.00  0.00     0.038 A 
ATOM     26  C   UNL d   1      28.626 -15.097  -2.993  0.00  0.00     0.020 A 
ATOM     27  C   UNL d   1      27.234 -14.961  -5.534  0.00  0.00     0.030 A 
ATOM     28  N   UNL d   1      25.519 -13.743  -4.197  0.00  0.00    -0.385 N 
ATOM     29  C   UNL d   1      28.433 -15.557  -5.385  0.00  0.00     0.009 A 
ATOM     30  C   UNL d   1      29.152 -15.635  -4.109  0.00  0.00    -0.061 A 
ATOM     31  C   UNL d   1      30.484 -16.321  -4.044  0.00  0.00     0.048 C 
ATOM     32  C   UNL d   1      25.335 -13.313  -2.794  0.00  0.00     0.155 A 
ATOM     33  H   UNL d   1      24.851 -13.572  -4.961  0.00  0.00     0.160 HD
ENDBRANCH  22  23
ENDBRANCH  21  22
ENDBRANCH   1  21
TORSDOF 5
ENDMDL
MODEL 7
REMARK VINA RESULT:   -27.934      1.721      2.570
REMARK INTER + INTRA:         -30.302
REMARK INTER:                 -29.425
REMARK INTRA:                  -0.877
REMARK CONF_INDEPENDENT:        1.492
REMARK UNBOUND:                -0.877
REMARK  5 active torsions:
REMARK  status: ('A' for Active; 'I' for Inactive)
REMARK    1  A    between atoms: C_8  and  C_9 
REMARK    2  A    between atoms: C_9  and  C_10 
REMARK    3  A    between atoms: C_10  and  N_11 
REMARK       I    between atoms: N_11  and  C_12 
REMARK    4  A    between atoms: C_12  and  C_14 
REMARK    5  A    between atoms: C_18  and  N_17 
ROOT
ATOM      1  N   UNL d   1      25.242 -15.224  -1.757  0.00  0.00    -0.360 N 
ATOM      2  C   UNL d   1      25.240 -16.088  -0.692  0.00  0.00     0.221 C 
ATOM      3  O   UNL d   1      25.910 -15.819   0.311  0.00  0.00    -0.273 OA
ATOM      4  H   UNL d   1      24.809 -15.490  -2.634  0.00  0.00     0.162 HD
ENDROOT
BRANCH   2   5
ATOM      5  C   UNL d   1      24.584 -17.449  -0.783  0.00  0.00     0.081 C 
ATOM      6  C   UNL d   1      24.036 -18.259   0.422  0.00  0.00     0.044 C 
ATOM      7  C   UNL d   1      23.619 -19.627  -0.141  0.00  0.00     0.276 C 
ATOM      8  N   UNL d   1      22.572 -19.420  -1.162  0.00  0.00     0.117 N 
ATOM      9  C   UNL d   1      23.251 -18.878  -2.357  0.00  0.00     0.276 C 
ATOM     10  C   UNL d   1      23.713 -17.475  -2.051  0.00  0.00     0.044 C 
BRANCH   8  11
ATOM     11  C   UNL d   1      21.367 -18.634  -0.630  0.00  0.00     0.370 C 
ATOM     12  N   UNL d   1      19.905 -18.764  -1.112  0.00  0.00    -0.252 NA
ATOM     13  C   UNL d   1      19.149 -19.503  -0.143  0.00  0.00     0.046 C 
ATOM     14  H   UNL d   1      19.451 -17.901  -1.402  0.00  0.00     0.130 HD
ATOM     15  C   UNL d   1      18.038 -20.307  -0.443  0.00  0.00     0.028 C 
ATOM     16  C   UNL d   1      19.828 -19.752   1.047  0.00  0.00     0.117 C 
ATOM     17  C   UNL d   1      17.948 -21.529   0.240  0.00  0.00     0.021 C 
ATOM     18  C   UNL d   1      18.760 -21.732   1.353  0.00  0.00     0.118 C 
ATOM     19  N   UNL d   1      19.640 -20.827   1.822  0.00  0.00    -0.252 NA
ATOM     20  S   UNL d   1      21.286 -18.765   1.191  0.00  0.00    -0.057 SA
ENDBRANCH   8  11
ENDBRANCH   2   5
BRANCH   1  21
ATOM     21  C   UNL d   1      26.082 -14.051  -1.634  0.00  0.00     0.127 C 
BRANCH  21  22
ATOM     22  C   UNL d   1      27.567 -14.307  -1.840  0.00  0.00     0.056 C 
BRANCH  22  23
ATOM     23  C   UNL d   1      28.315 -14.548  -0.562  0.00  0.00    -0.048 A 
ATOM     24  C   UNL d   1      28.179 -13.832   0.561  0.00  0.00    -0.005 A 
ATOM     25  C   UNL d   1      29.107 -14.454   1.527  0.00  0.00     0.038 A 
ATOM     26  C   UNL d   1      27.378 -12.711   0.905  0.00  0.00     0.020 A 
ATOM     27  C   UNL d   1      29.168 -13.854   2.881  0.00  0.00     0.030 A 
ATOM     28  N   UNL d   1      29.726 -15.432   1.035  0.00  0.00    -0.385 N 
ATOM     29  C   UNL d   1      28.379 -12.792   3.132  0.00  0.00     0.009 A 
ATOM     30  C   UNL d   1      27.469 -12.200   2.147  0.00  0.00    -0.061 A 
ATOM     31  C   UNL d   1      26.628 -11.015   2.524  0.00  0.00     0.048 C 
ATOM     32  C   UNL d   1      29.323 -15.649  -0.372  0.00  0.00     0.155 A 
ATOM     33  H   UNL d   1      30.416 -15.998   1.546  0.00  0.00     0.160 HD
ENDBRANCH  22  23
ENDBRANCH  21  22
ENDBRANCH   1  21
TORSDOF 5
ENDMDL
MODEL 8
REMARK VINA RESULT:   -27.430      5.059      7.639
REMARK INTER + INTRA:         -29.878
REMARK INTER:                 -28.922
REMARK INTRA:                  -0.956
REMARK CONF_INDEPENDENT:        1.492
REMARK UNBOUND:                -0.956
REMARK  5 active torsions:
REMARK  status: ('A' for Active; 'I' for Inactive)
REMARK    1  A    between atoms: C_8  and  C_9 
REMARK    2  A    between atoms: C_9  and  C_10 
REMARK    3  A    between atoms: C_10  and  N_11 
REMARK       I    between atoms: N_11  and  C_12 
REMARK    4  A    between atoms: C_12  and  C_14 
REMARK    5  A    between atoms: C_18  and  N_17 
ROOT
ATOM      1  N   UNL d   1      28.618 -16.525  -2.402  0.00  0.00    -0.360 N 
ATOM      2  C   UNL d   1      27.820 -16.802  -1.322  0.00  0.00     0.221 C 
ATOM      3  O   UNL d   1      28.274 -17.466  -0.384  0.00  0.00    -0.273 OA
ATOM      4  H   UNL d   1      28.227 -16.100  -3.234  0.00  0.00     0.162 HD
ENDROOT
BRANCH   2   5
ATOM      5  C   UNL d   1      26.343 -16.471  -1.330  0.00  0.00     0.081 C 
ATOM      6  C   UNL d   1      25.333 -16.917  -2.420  0.00  0.00     0.044 C 
ATOM      7  C   UNL d   1      24.009 -16.212  -2.085  0.00  0.00     0.276 C 
ATOM      8  N   UNL d   1      23.567 -16.644  -0.743  0.00  0.00     0.117 N 
ATOM      9  C   UNL d   1      24.444 -15.959   0.229  0.00  0.00     0.276 C 
ATOM     10  C   UNL d   1      25.830 -16.542   0.119  0.00  0.00     0.044 C 
BRANCH   8  11
ATOM     11  C   UNL d   1      23.447 -18.168  -0.617  0.00  0.00     0.370 C 
ATOM     12  N   UNL d   1      22.953 -18.947   0.622  0.00  0.00    -0.252 NA
ATOM     13  C   UNL d   1      21.619 -19.416   0.389  0.00  0.00     0.046 C 
ATOM     14  H   UNL d   1      23.578 -19.671   0.974  0.00  0.00     0.130 HD
ATOM     15  C   UNL d   1      20.657 -19.616   1.391  0.00  0.00     0.028 C 
ATOM     16  C   UNL d   1      21.168 -19.238  -0.917  0.00  0.00     0.117 C 
ATOM     17  C   UNL d   1      19.347 -19.217   1.090  0.00  0.00     0.021 C 
ATOM     18  C   UNL d   1      19.022 -18.942  -0.236  0.00  0.00     0.118 C 
ATOM     19  N   UNL d   1      19.891 -19.030  -1.261  0.00  0.00    -0.252 NA
ATOM     20  S   UNL d   1      22.488 -18.841  -2.020  0.00  0.00    -0.057 SA
ENDBRANCH   8  11
ENDBRANCH   2   5
BRANCH   1  21
ATOM     21  C   UNL d   1      29.956 -17.081  -2.374  0.00  0.00     0.127 C 
BRANCH  21  22
ATOM     22  C   UNL d   1      30.986 -16.299  -3.174  0.00  0.00     0.056 C 
BRANCH  22  23
ATOM     23  C   UNL d   1      30.883 -16.516  -4.655  0.00  0.00    -0.048 A 
ATOM     24  C   UNL d   1      30.950 -17.703  -5.269  0.00  0.00    -0.005 A 
ATOM     25  C   UNL d   1      30.790 -17.401  -6.706  0.00  0.00     0.038 A 
ATOM     26  C   UNL d   1      31.129 -19.031  -4.798  0.00  0.00     0.020 A 
ATOM     27  C   UNL d   1      30.825 -18.550  -7.642  0.00  0.00     0.030 A 
ATOM     28  N   UNL d   1      30.644 -16.170  -6.923  0.00  0.00    -0.385 N 
ATOM     29  C   UNL d   1      31.000 -19.779  -7.120  0.00  0.00     0.009 A 
ATOM     30  C   UNL d   1      31.156 -20.042  -5.686  0.00  0.00    -0.061 A 
ATOM     31  C   UNL d   1      31.345 -21.449  -5.201  0.00  0.00     0.048 C 
ATOM     32  C   UNL d   1      30.681 -15.409  -5.655  0.00  0.00     0.155 A 
ATOM     33  H   UNL d   1      30.517 -15.758  -7.857  0.00  0.00     0.160 HD
ENDBRANCH  22  23
ENDBRANCH  21  22
ENDBRANCH   1  21
TORSDOF 5
ENDMDL
MODEL 9
REMARK VINA RESULT:   -27.052      2.307      3.460
REMARK INTER + INTRA:         -29.841
REMARK INTER:                 -28.544
REMARK INTRA:                  -1.297
REMARK CONF_INDEPENDENT:        1.492
REMARK UNBOUND:                -1.297
REMARK  5 active torsions:
REMARK  status: ('A' for Active; 'I' for Inactive)
REMARK    1  A    between atoms: C_8  and  C_9 
REMARK    2  A    between atoms: C_9  and  C_10 
REMARK    3  A    between atoms: C_10  and  N_11 
REMARK       I    between atoms: N_11  and  C_12 
REMARK    4  A    between atoms: C_12  and  C_14 
REMARK    5  A    between atoms: C_18  and  N_17 
ROOT
ATOM      1  N   UNL d   1      28.505 -16.530  -0.122  0.00  0.00    -0.360 N 
ATOM      2  C   UNL d   1      27.773 -16.682  -1.271  0.00  0.00     0.221 C 
ATOM      3  O   UNL d   1      28.356 -16.914  -2.336  0.00  0.00    -0.273 OA
ATOM      4  H   UNL d   1      28.061 -16.208   0.730  0.00  0.00     0.162 HD
ENDROOT
BRANCH   2   5
ATOM      5  C   UNL d   1      26.288 -16.394  -1.303  0.00  0.00     0.081 C 
ATOM      6  C   UNL d   1      25.307 -16.878  -2.404  0.00  0.00     0.044 C 
ATOM      7  C   UNL d   1      23.959 -16.208  -2.095  0.00  0.00     0.276 C 
ATOM      8  N   UNL d   1      23.510 -16.642  -0.756  0.00  0.00     0.117 N 
ATOM      9  C   UNL d   1      24.353 -15.924   0.223  0.00  0.00     0.276 C 
ATOM     10  C   UNL d   1      25.756 -16.468   0.138  0.00  0.00     0.044 C 
BRANCH   8  11
ATOM     11  C   UNL d   1      23.431 -18.168  -0.619  0.00  0.00     0.370 C 
ATOM     12  N   UNL d   1      22.955 -18.951   0.625  0.00  0.00    -0.252 NA
ATOM     13  C   UNL d   1      21.634 -19.458   0.390  0.00  0.00     0.046 C 
ATOM     14  H   UNL d   1      23.597 -19.654   0.985  0.00  0.00     0.130 HD
ATOM     15  C   UNL d   1      20.674 -19.677   1.390  0.00  0.00     0.028 C 
ATOM     16  C   UNL d   1      21.185 -19.303  -0.919  0.00  0.00     0.117 C 
ATOM     17  C   UNL d   1      19.355 -19.317   1.080  0.00  0.00     0.021 C 
ATOM     18  C   UNL d   1      19.028 -19.062  -0.249  0.00  0.00     0.118 C 
ATOM     19  N   UNL d   1      19.904 -19.133  -1.270  0.00  0.00    -0.252 NA
ATOM     20  S   UNL d   1      22.498 -18.878  -2.020  0.00  0.00    -0.057 SA
ENDBRANCH   8  11
ENDBRANCH   2   5
BRANCH   1  21
ATOM     21  C   UNL d   1      29.945 -16.618  -0.257  0.00  0.00     0.127 C 
BRANCH  21  22
ATOM     22  C   UNL d   1      30.668 -15.281  -0.246  0.00  0.00     0.056 C 
BRANCH  22  23
ATOM     23  C   UNL d   1      30.788 -14.677   1.122  0.00  0.00    -0.048 A 
ATOM     24  C   UNL d   1      29.816 -14.017   1.764  0.00  0.00    -0.005 A 
ATOM     25  C   UNL d   1      30.407 -13.631   3.061  0.00  0.00     0.038 A 
ATOM     26  C   UNL d   1      28.479 -13.683   1.420  0.00  0.00     0.020 A 
ATOM     27  C   UNL d   1      29.540 -12.873   3.995  0.00  0.00     0.030 A 
ATOM     28  N   UNL d   1      31.598 -14.018   3.179  0.00  0.00    -0.385 N 
ATOM     29  C   UNL d   1      28.285 -12.592   3.597  0.00  0.00     0.009 A 
ATOM     30  C   UNL d   1      27.731 -12.992   2.300  0.00  0.00    -0.061 A 
ATOM     31  C   UNL d   1      26.317 -12.632   1.948  0.00  0.00     0.048 C 
ATOM     32  C   UNL d   1      32.033 -14.743   1.965  0.00  0.00     0.155 A 
ATOM     33  H   UNL d   1      32.183 -13.848   4.008  0.00  0.00     0.160 HD
ENDBRANCH  22  23
ENDBRANCH  21  22
ENDBRANCH   1  21
TORSDOF 5
ENDMDL
