MODEL 1
REMARK VINA RESULT:    -7.459      0.000      0.000
REMARK INTER + INTRA:         -13.923
REMARK INTER:                 -11.038
REMARK INTRA:                  -2.885
REMARK CONF_INDEPENDENT:        3.580
REMARK UNBOUND:                -2.885
REMARK  12 active torsions:
REMARK  status: ('A' for Active; 'I' for Inactive)
REMARK    1  A    between atoms: C_2  and  C_3 
REMARK    2  A    between atoms: C_3  and  C_4 
REMARK    3  A    between atoms: C_4  and  C_5 
REMARK    4  A    between atoms: C_11  and  C_12 
REMARK    5  A    between atoms: C_15  and  O_16 
REMARK    6  A    between atoms: O_16  and  C_17 
REMARK    7  A    between atoms: C_17  and  C_18 
REMARK    8  A    between atoms: C_18  and  O_19 
REMARK    9  A    between atoms: O_19  and  C_20 
REMARK   10  A    between atoms: C_25  and  O_26 
REMARK   11  A    between atoms: C_28  and  O_29 
REMARK   12  A    between atoms: O_29  and  C_30 
ROOT
ATOM      1  C   UNL d   1      26.409 -15.209  -2.533  0.00  0.00    -0.032 C 
ATOM      2  C   UNL d   1      25.799 -13.999  -2.208  0.00  0.00     0.014 C 
ATOM      3  C   UNL d   1      25.401 -13.140  -3.242  0.00  0.00     0.040 C 
ATOM      4  C   UNL d   1      25.757 -13.421  -4.577  0.00  0.00     0.102 C 
ATOM      5  C   UNL d   1      26.464 -14.588  -4.873  0.00  0.00     0.102 C 
ATOM      6  C   UNL d   1      26.674 -15.510  -3.872  0.00  0.00     0.051 C 
ENDROOT
BRANCH   1   7
ATOM      7  C   UNL d   1      26.960 -16.122  -1.525  0.00  0.00     0.032 C 
ATOM      8  C   UNL d   1      26.178 -16.705  -0.596  0.00  0.00     0.076 C 
ATOM      9  C   UNL d   1      24.686 -16.514  -0.537  0.00  0.00     0.140 C 
ATOM     10  C   UNL d   1      26.694 -17.840   0.247  0.00  0.00     0.282 C 
ATOM     11  N   UNL d   1      24.002 -17.319   0.363  0.00  0.00    -0.094 NA
ATOM     12  N   UNL d   1      23.993 -15.886  -1.444  0.00  0.00    -0.286 NA
ATOM     13  N   UNL d   1      22.619 -17.236   0.200  0.00  0.00    -0.183 NA
ATOM     14  C   UNL d   1      24.545 -18.579   0.213  0.00  0.00     0.179 C 
ATOM     15  C   UNL d   1      22.258 -18.126  -0.678  0.00  0.00     0.093 C 
ATOM     16  S   UNL d   1      23.437 -19.420  -0.959  0.00  0.00    -0.039 SA
ATOM     17  N   UNL d   1      25.803 -18.910   0.322  0.00  0.00    -0.188 NA
ATOM     18  H   UNL d   1      22.995 -15.984  -1.251  0.00  0.00     0.188 HD
ATOM     19  O   UNL d   1      27.885 -17.872   0.607  0.00  0.00    -0.265 OA
BRANCH  15  20
ATOM     20  C   UNL d   1      20.860 -17.998  -1.269  0.00  0.00     0.068 C 
BRANCH  20  21
ATOM     21  C   UNL d   1      19.682 -18.902  -0.881  0.00  0.00     0.006 C 
BRANCH  21  22
ATOM     22  C   UNL d   1      19.995 -19.675   0.426  0.00  0.00    -0.004 C 
ATOM     23  C   UNL d   1      18.752 -20.339   1.005  0.00  0.00     0.005 C 
ENDBRANCH  21  22
ENDBRANCH  20  21
ENDBRANCH  15  20
ENDBRANCH   1   7
BRANCH   5  24
ATOM     24  O   UNL d   1      26.956 -14.767  -6.128  0.00  0.00    -0.349 OA
BRANCH  24  25
ATOM     25  C   UNL d   1      28.342 -14.865  -6.369  0.00  0.00     0.171 C 
ATOM     26  C   UNL d   1      29.041 -14.053  -5.297  0.00  0.00     0.034 C 
ENDBRANCH  24  25
ENDBRANCH   5  24
BRANCH   4  27
ATOM     27  O   UNL d   1      25.346 -12.517  -5.524  0.00  0.00    -0.346 OA
BRANCH  27  28
ATOM     28  C   UNL d   1      25.892 -11.177  -5.383  0.00  0.00     0.202 C 
BRANCH  28  29
ATOM     29  C   UNL d   1      27.376 -11.303  -5.244  0.00  0.00     0.202 C 
BRANCH  29  30
ATOM     30  O   UNL d   1      28.003 -10.384  -4.366  0.00  0.00    -0.346 OA
BRANCH  30  31
ATOM     31  C   UNL d   1      28.051 -10.694  -3.018  0.00  0.00     0.102 A 
ATOM     32  C   UNL d   1      28.903 -11.797  -2.775  0.00  0.00     0.039 A 
ATOM     33  C   UNL d   1      28.958 -12.431  -1.526  0.00  0.00     0.003 A 
ATOM     34  C   UNL d   1      28.220 -11.930  -0.466  0.00  0.00     0.003 A 
ATOM     35  C   UNL d   1      27.390 -10.838  -0.677  0.00  0.00     0.039 A 
ATOM     36  C   UNL d   1      27.265 -10.222  -1.937  0.00  0.00     0.101 A 
BRANCH  36  37
ATOM     37  O   UNL d   1      26.275  -9.272  -1.821  0.00  0.00    -0.353 OA
ATOM     38  C   UNL d   1      25.438  -9.126  -2.921  0.00  0.00     0.210 C 
ENDBRANCH  36  37
ENDBRANCH  30  31
ENDBRANCH  29  30
ENDBRANCH  28  29
ENDBRANCH  27  28
ENDBRANCH   4  27
TORSDOF 12
ENDMDL
MODEL 2
REMARK VINA RESULT:    -7.163      3.219      6.430
REMARK INTER + INTRA:         -14.337
REMARK INTER:                 -10.742
REMARK INTRA:                  -3.595
REMARK CONF_INDEPENDENT:        3.580
REMARK UNBOUND:                -3.595
REMARK  12 active torsions:
REMARK  status: ('A' for Active; 'I' for Inactive)
REMARK    1  A    between atoms: C_2  and  C_3 
REMARK    2  A    between atoms: C_3  and  C_4 
REMARK    3  A    between atoms: C_4  and  C_5 
REMARK    4  A    between atoms: C_11  and  C_12 
REMARK    5  A    between atoms: C_15  and  O_16 
REMARK    6  A    between atoms: O_16  and  C_17 
REMARK    7  A    between atoms: C_17  and  C_18 
REMARK    8  A    between atoms: C_18  and  O_19 
REMARK    9  A    between atoms: O_19  and  C_20 
REMARK   10  A    between atoms: C_25  and  O_26 
REMARK   11  A    between atoms: C_28  and  O_29 
REMARK   12  A    between atoms: O_29  and  C_30 
ROOT
ATOM      1  C   UNL d   1      30.023 -14.747  -5.484  0.00  0.00    -0.032 C 
ATOM      2  C   UNL d   1      30.757 -14.583  -4.310  0.00  0.00     0.014 C 
ATOM      3  C   UNL d   1      31.410 -15.693  -3.757  0.00  0.00     0.040 C 
ATOM      4  C   UNL d   1      31.197 -16.981  -4.288  0.00  0.00     0.102 C 
ATOM      5  C   UNL d   1      30.371 -17.142  -5.403  0.00  0.00     0.102 C 
ATOM      6  C   UNL d   1      29.897 -16.020  -6.046  0.00  0.00     0.051 C 
ENDROOT
BRANCH   1   7
ATOM      7  C   UNL d   1      29.216 -13.675  -6.078  0.00  0.00     0.032 C 
ATOM      8  C   UNL d   1      27.876 -13.642  -5.942  0.00  0.00     0.076 C 
ATOM      9  C   UNL d   1      27.103 -14.655  -5.141  0.00  0.00     0.140 C 
ATOM     10  C   UNL d   1      27.093 -12.410  -6.309  0.00  0.00     0.282 C 
ATOM     11  N   UNL d   1      25.756 -14.383  -4.949  0.00  0.00    -0.094 NA
ATOM     12  N   UNL d   1      27.653 -15.574  -4.400  0.00  0.00    -0.286 NA
ATOM     13  N   UNL d   1      25.170 -15.248  -4.024  0.00  0.00    -0.183 NA
ATOM     14  C   UNL d   1      25.695 -13.041  -4.632  0.00  0.00     0.179 C 
ATOM     15  C   UNL d   1      25.315 -14.733  -2.837  0.00  0.00     0.093 C 
ATOM     16  S   UNL d   1      25.681 -12.999  -2.813  0.00  0.00    -0.039 SA
ATOM     17  N   UNL d   1      26.163 -12.046  -5.335  0.00  0.00    -0.188 NA
ATOM     18  H   UNL d   1      26.936 -16.066  -3.864  0.00  0.00     0.188 HD
ATOM     19  O   UNL d   1      27.445 -11.696  -7.265  0.00  0.00    -0.265 OA
BRANCH  15  20
ATOM     20  C   UNL d   1      25.062 -15.647  -1.644  0.00  0.00     0.068 C 
BRANCH  20  21
ATOM     21  C   UNL d   1      24.615 -17.110  -1.767  0.00  0.00     0.006 C 
BRANCH  21  22
ATOM     22  C   UNL d   1      23.467 -17.415  -0.771  0.00  0.00    -0.004 C 
ATOM     23  C   UNL d   1      23.055 -18.881  -0.811  0.00  0.00     0.005 C 
ENDBRANCH  21  22
ENDBRANCH  20  21
ENDBRANCH  15  20
ENDBRANCH   1   7
BRANCH   5  24
ATOM     24  O   UNL d   1      30.029 -18.396  -5.801  0.00  0.00    -0.349 OA
BRANCH  24  25
ATOM     25  C   UNL d   1      30.995 -19.308  -6.275  0.00  0.00     0.171 C 
ATOM     26  C   UNL d   1      31.317 -18.916  -7.704  0.00  0.00     0.034 C 
ENDBRANCH  24  25
ENDBRANCH   5  24
BRANCH   4  27
ATOM     27  O   UNL d   1      31.858 -18.015  -3.674  0.00  0.00    -0.346 OA
BRANCH  27  28
ATOM     28  C   UNL d   1      31.088 -18.741  -2.678  0.00  0.00     0.202 C 
BRANCH  28  29
ATOM     29  C   UNL d   1      30.614 -17.753  -1.661  0.00  0.00     0.202 C 
BRANCH  29  30
ATOM     30  O   UNL d   1      29.240 -17.818  -1.316  0.00  0.00    -0.346 OA
BRANCH  30  31
ATOM     31  C   UNL d   1      28.613 -16.657  -0.902  0.00  0.00     0.102 A 
ATOM     32  C   UNL d   1      29.199 -15.516  -1.500  0.00  0.00     0.039 A 
ATOM     33  C   UNL d   1      28.880 -14.215  -1.086  0.00  0.00     0.003 A 
ATOM     34  C   UNL d   1      27.911 -14.019  -0.116  0.00  0.00     0.003 A 
ATOM     35  C   UNL d   1      27.311 -15.123   0.473  0.00  0.00     0.039 A 
ATOM     36  C   UNL d   1      27.658 -16.442   0.123  0.00  0.00     0.101 A 
BRANCH  36  37
ATOM     37  O   UNL d   1      26.977 -17.275   0.982  0.00  0.00    -0.353 OA
ATOM     38  C   UNL d   1      26.777 -18.577   0.538  0.00  0.00     0.210 C 
ENDBRANCH  36  37
ENDBRANCH  30  31
ENDBRANCH  29  30
ENDBRANCH  28  29
ENDBRANCH  27  28
ENDBRANCH   4  27
TORSDOF 12
ENDMDL
MODEL 3
REMARK VINA RESULT:    -7.079      3.333      6.238
REMARK INTER + INTRA:         -14.763
REMARK INTER:                 -10.659
REMARK INTRA:                  -4.104
REMARK CONF_INDEPENDENT:        3.580
REMARK UNBOUND:                -4.104
REMARK  12 active torsions:
REMARK  status: ('A' for Active; 'I' for Inactive)
REMARK    1  A    between atoms: C_2  and  C_3 
REMARK    2  A    between atoms: C_3  and  C_4 
REMARK    3  A    between atoms: C_4  and  C_5 
REMARK    4  A    between atoms: C_11  and  C_12 
REMARK    5  A    between atoms: C_15  and  O_16 
REMARK    6  A    between atoms: O_16  and  C_17 
REMARK    7  A    between atoms: C_17  and  C_18 
REMARK    8  A    between atoms: C_18  and  O_19 
REMARK    9  A    between atoms: O_19  and  C_20 
REMARK   10  A    between atoms: C_25  and  O_26 
REMARK   11  A    between atoms: C_28  and  O_29 
REMARK   12  A    between atoms: O_29  and  C_30 
ROOT
ATOM      1  C   UNL d   1      30.008 -14.653  -5.636  0.00  0.00    -0.032 C 
ATOM      2  C   UNL d   1      30.759 -14.545  -4.466  0.00  0.00     0.014 C 
ATOM      3  C   UNL d   1      31.437 -15.675  -3.987  0.00  0.00     0.040 C 
ATOM      4  C   UNL d   1      31.232 -16.934  -4.587  0.00  0.00     0.102 C 
ATOM      5  C   UNL d   1      30.389 -17.044  -5.695  0.00  0.00     0.102 C 
ATOM      6  C   UNL d   1      29.890 -15.895  -6.266  0.00  0.00     0.051 C 
ENDROOT
BRANCH   1   7
ATOM      7  C   UNL d   1      29.176 -13.562  -6.155  0.00  0.00     0.032 C 
ATOM      8  C   UNL d   1      27.838 -13.557  -5.997  0.00  0.00     0.076 C 
ATOM      9  C   UNL d   1      27.093 -14.625  -5.244  0.00  0.00     0.140 C 
ATOM     10  C   UNL d   1      27.033 -12.318  -6.282  0.00  0.00     0.282 C 
ATOM     11  N   UNL d   1      25.745 -14.385  -5.017  0.00  0.00    -0.094 NA
ATOM     12  N   UNL d   1      27.667 -15.577  -4.565  0.00  0.00    -0.286 NA
ATOM     13  N   UNL d   1      25.186 -15.310  -4.134  0.00  0.00    -0.183 NA
ATOM     14  C   UNL d   1      25.670 -13.064  -4.623  0.00  0.00     0.179 C 
ATOM     15  C   UNL d   1      25.342 -14.862  -2.922  0.00  0.00     0.093 C 
ATOM     16  S   UNL d   1      25.684 -13.126  -2.805  0.00  0.00    -0.039 SA
ATOM     17  N   UNL d   1      26.113 -12.024  -5.275  0.00  0.00    -0.188 NA
ATOM     18  H   UNL d   1      26.966 -16.109  -4.048  0.00  0.00     0.188 HD
ATOM     19  O   UNL d   1      27.359 -11.545  -7.201  0.00  0.00    -0.265 OA
BRANCH  15  20
ATOM     20  C   UNL d   1      25.121 -15.845  -1.780  0.00  0.00     0.068 C 
BRANCH  20  21
ATOM     21  C   UNL d   1      24.392 -17.186  -1.936  0.00  0.00     0.006 C 
BRANCH  21  22
ATOM     22  C   UNL d   1      24.024 -17.772  -0.548  0.00  0.00    -0.004 C 
ATOM     23  C   UNL d   1      22.651 -18.432  -0.555  0.00  0.00     0.005 C 
ENDBRANCH  21  22
ENDBRANCH  20  21
ENDBRANCH  15  20
ENDBRANCH   1   7
BRANCH   5  24
ATOM     24  O   UNL d   1      30.058 -18.278  -6.158  0.00  0.00    -0.349 OA
BRANCH  24  25
ATOM     25  C   UNL d   1      30.787 -18.897  -7.194  0.00  0.00     0.171 C 
ATOM     26  C   UNL d   1      30.777 -20.388  -6.919  0.00  0.00     0.034 C 
ENDBRANCH  24  25
ENDBRANCH   5  24
BRANCH   4  27
ATOM     27  O   UNL d   1      31.917 -17.991  -4.042  0.00  0.00    -0.346 OA
BRANCH  27  28
ATOM     28  C   UNL d   1      31.130 -18.876  -3.201  0.00  0.00     0.202 C 
BRANCH  28  29
ATOM     29  C   UNL d   1      30.544 -18.053  -2.098  0.00  0.00     0.202 C 
BRANCH  29  30
ATOM     30  O   UNL d   1      29.303 -17.426  -2.375  0.00  0.00    -0.346 OA
BRANCH  30  31
ATOM     31  C   UNL d   1      28.770 -16.580  -1.419  0.00  0.00     0.102 A 
ATOM     32  C   UNL d   1      28.163 -17.309  -0.368  0.00  0.00     0.039 A 
ATOM     33  C   UNL d   1      27.376 -16.686   0.610  0.00  0.00     0.003 A 
ATOM     34  C   UNL d   1      27.237 -15.308   0.606  0.00  0.00     0.003 A 
ATOM     35  C   UNL d   1      27.836 -14.570  -0.404  0.00  0.00     0.039 A 
ATOM     36  C   UNL d   1      28.578 -15.175  -1.437  0.00  0.00     0.101 A 
BRANCH  36  37
ATOM     37  O   UNL d   1      28.911 -14.179  -2.327  0.00  0.00    -0.353 OA
ATOM     38  C   UNL d   1      28.882 -12.881  -1.829  0.00  0.00     0.210 C 
ENDBRANCH  36  37
ENDBRANCH  30  31
ENDBRANCH  29  30
ENDBRANCH  28  29
ENDBRANCH  27  28
ENDBRANCH   4  27
TORSDOF 12
ENDMDL
MODEL 4
REMARK VINA RESULT:    -6.336      3.526      6.570
REMARK INTER + INTRA:         -14.035
REMARK INTER:                  -9.915
REMARK INTRA:                  -4.119
REMARK CONF_INDEPENDENT:        3.580
REMARK UNBOUND:                -4.119
REMARK  12 active torsions:
REMARK  status: ('A' for Active; 'I' for Inactive)
REMARK    1  A    between atoms: C_2  and  C_3 
REMARK    2  A    between atoms: C_3  and  C_4 
REMARK    3  A    between atoms: C_4  and  C_5 
REMARK    4  A    between atoms: C_11  and  C_12 
REMARK    5  A    between atoms: C_15  and  O_16 
REMARK    6  A    between atoms: O_16  and  C_17 
REMARK    7  A    between atoms: C_17  and  C_18 
REMARK    8  A    between atoms: C_18  and  O_19 
REMARK    9  A    between atoms: O_19  and  C_20 
REMARK   10  A    between atoms: C_25  and  O_26 
REMARK   11  A    between atoms: C_28  and  O_29 
REMARK   12  A    between atoms: O_29  and  C_30 
ROOT
ATOM      1  C   UNL d   1      29.068 -14.046  -6.028  0.00  0.00    -0.032 C 
ATOM      2  C   UNL d   1      29.316 -14.733  -7.216  0.00  0.00     0.014 C 
ATOM      3  C   UNL d   1      30.394 -15.628  -7.269  0.00  0.00     0.040 C 
ATOM      4  C   UNL d   1      31.304 -15.711  -6.196  0.00  0.00     0.102 C 
ATOM      5  C   UNL d   1      31.099 -14.933  -5.054  0.00  0.00     0.102 C 
ATOM      6  C   UNL d   1      29.933 -14.209  -4.943  0.00  0.00     0.051 C 
ENDROOT
BRANCH   1   7
ATOM      7  C   UNL d   1      28.037 -13.008  -5.906  0.00  0.00     0.032 C 
ATOM      8  C   UNL d   1      26.847 -13.259  -5.328  0.00  0.00     0.076 C 
ATOM      9  C   UNL d   1      26.489 -14.589  -4.720  0.00  0.00     0.140 C 
ATOM     10  C   UNL d   1      25.915 -12.136  -4.960  0.00  0.00     0.282 C 
ATOM     11  N   UNL d   1      25.299 -14.634  -4.008  0.00  0.00    -0.094 NA
ATOM     12  N   UNL d   1      27.328 -15.574  -4.574  0.00  0.00    -0.286 NA
ATOM     13  N   UNL d   1      25.153 -15.829  -3.302  0.00  0.00    -0.183 NA
ATOM     14  C   UNL d   1      25.286 -13.485  -3.243  0.00  0.00     0.179 C 
ATOM     15  C   UNL d   1      25.703 -15.681  -2.131  0.00  0.00     0.093 C 
ATOM     16  S   UNL d   1      25.953 -13.999  -1.630  0.00  0.00    -0.039 SA
ATOM     17  N   UNL d   1      25.400 -12.257  -3.669  0.00  0.00    -0.188 NA
ATOM     18  H   UNL d   1      26.893 -16.326  -4.037  0.00  0.00     0.188 HD
ATOM     19  O   UNL d   1      25.841 -11.115  -5.667  0.00  0.00    -0.265 OA
BRANCH  15  20
ATOM     20  C   UNL d   1      25.968 -16.943  -1.320  0.00  0.00     0.068 C 
BRANCH  20  21
ATOM     21  C   UNL d   1      24.957 -17.559  -0.343  0.00  0.00     0.006 C 
BRANCH  21  22
ATOM     22  C   UNL d   1      23.558 -17.668  -1.003  0.00  0.00    -0.004 C 
ATOM     23  C   UNL d   1      22.617 -16.571  -0.524  0.00  0.00     0.005 C 
ENDBRANCH  21  22
ENDBRANCH  20  21
ENDBRANCH  15  20
ENDBRANCH   1   7
BRANCH   5  24
ATOM     24  O   UNL d   1      32.067 -14.884  -4.101  0.00  0.00    -0.349 OA
BRANCH  24  25
ATOM     25  C   UNL d   1      31.999 -13.973  -3.027  0.00  0.00     0.171 C 
ATOM     26  C   UNL d   1      32.462 -14.710  -1.786  0.00  0.00     0.034 C 
ENDBRANCH  24  25
ENDBRANCH   5  24
BRANCH   4  27
ATOM     27  O   UNL d   1      32.342 -16.597  -6.339  0.00  0.00    -0.346 OA
BRANCH  27  28
ATOM     28  C   UNL d   1      32.052 -17.768  -7.148  0.00  0.00     0.202 C 
BRANCH  28  29
ATOM     29  C   UNL d   1      31.333 -18.752  -6.283  0.00  0.00     0.202 C 
BRANCH  29  30
ATOM     30  O   UNL d   1      30.363 -18.218  -5.397  0.00  0.00    -0.346 OA
BRANCH  30  31
ATOM     31  C   UNL d   1      30.675 -18.144  -4.052  0.00  0.00     0.102 A 
ATOM     32  C   UNL d   1      31.688 -19.071  -3.708  0.00  0.00     0.039 A 
ATOM     33  C   UNL d   1      32.031 -19.334  -2.375  0.00  0.00     0.003 A 
ATOM     34  C   UNL d   1      31.424 -18.622  -1.354  0.00  0.00     0.003 A 
ATOM     35  C   UNL d   1      30.440 -17.696  -1.668  0.00  0.00     0.039 A 
ATOM     36  C   UNL d   1      30.029 -17.458  -2.993  0.00  0.00     0.101 A 
BRANCH  36  37
ATOM     37  O   UNL d   1      28.960 -16.591  -2.930  0.00  0.00    -0.353 OA
ATOM     38  C   UNL d   1      28.971 -15.686  -1.875  0.00  0.00     0.210 C 
ENDBRANCH  36  37
ENDBRANCH  30  31
ENDBRANCH  29  30
ENDBRANCH  28  29
ENDBRANCH  27  28
ENDBRANCH   4  27
TORSDOF 12
ENDMDL
MODEL 5
REMARK VINA RESULT:    -6.068      3.731      7.762
REMARK INTER + INTRA:         -13.677
REMARK INTER:                  -9.648
REMARK INTRA:                  -4.029
REMARK CONF_INDEPENDENT:        3.580
REMARK UNBOUND:                -4.029
REMARK  12 active torsions:
REMARK  status: ('A' for Active; 'I' for Inactive)
REMARK    1  A    between atoms: C_2  and  C_3 
REMARK    2  A    between atoms: C_3  and  C_4 
REMARK    3  A    between atoms: C_4  and  C_5 
REMARK    4  A    between atoms: C_11  and  C_12 
REMARK    5  A    between atoms: C_15  and  O_16 
REMARK    6  A    between atoms: O_16  and  C_17 
REMARK    7  A    between atoms: C_17  and  C_18 
REMARK    8  A    between atoms: C_18  and  O_19 
REMARK    9  A    between atoms: O_19  and  C_20 
REMARK   10  A    between atoms: C_25  and  O_26 
REMARK   11  A    between atoms: C_28  and  O_29 
REMARK   12  A    between atoms: O_29  and  C_30 
ROOT
ATOM      1  C   UNL d   1      25.710 -14.458  -2.336  0.00  0.00    -0.032 C 
ATOM      2  C   UNL d   1      26.192 -14.241  -1.045  0.00  0.00     0.014 C 
ATOM      3  C   UNL d   1      26.173 -15.300  -0.127  0.00  0.00     0.040 C 
ATOM      4  C   UNL d   1      25.530 -16.512  -0.451  0.00  0.00     0.102 C 
ATOM      5  C   UNL d   1      24.957 -16.673  -1.714  0.00  0.00     0.102 C 
ATOM      6  C   UNL d   1      25.157 -15.698  -2.665  0.00  0.00     0.051 C 
ENDROOT
BRANCH   1   7
ATOM      7  C   UNL d   1      25.586 -13.388  -3.332  0.00  0.00     0.032 C 
ATOM      8  C   UNL d   1      26.635 -12.990  -4.077  0.00  0.00     0.076 C 
ATOM      9  C   UNL d   1      27.995 -13.628  -3.992  0.00  0.00     0.140 C 
ATOM     10  C   UNL d   1      26.438 -12.100  -5.274  0.00  0.00     0.282 C 
ATOM     11  N   UNL d   1      28.919 -13.226  -4.948  0.00  0.00    -0.094 NA
ATOM     12  N   UNL d   1      28.258 -14.699  -3.300  0.00  0.00    -0.286 NA
ATOM     13  N   UNL d   1      30.068 -14.016  -4.934  0.00  0.00    -0.183 NA
ATOM     14  C   UNL d   1      28.225 -13.205  -6.141  0.00  0.00     0.179 C 
ATOM     15  C   UNL d   1      29.876 -15.031  -5.727  0.00  0.00     0.093 C 
ATOM     16  S   UNL d   1      28.559 -14.826  -6.896  0.00  0.00    -0.039 SA
ATOM     17  N   UNL d   1      27.131 -12.542  -6.401  0.00  0.00    -0.188 NA
ATOM     18  H   UNL d   1      29.213 -15.009  -3.486  0.00  0.00     0.188 HD
ATOM     19  O   UNL d   1      25.554 -11.224  -5.276  0.00  0.00    -0.265 OA
BRANCH  15  20
ATOM     20  C   UNL d   1      30.847 -16.199  -5.615  0.00  0.00     0.068 C 
BRANCH  20  21
ATOM     21  C   UNL d   1      30.479 -17.563  -5.018  0.00  0.00     0.006 C 
BRANCH  21  22
ATOM     22  C   UNL d   1      30.780 -18.700  -6.028  0.00  0.00    -0.004 C 
ATOM     23  C   UNL d   1      30.442 -20.071  -5.458  0.00  0.00     0.005 C 
ENDBRANCH  21  22
ENDBRANCH  20  21
ENDBRANCH  15  20
ENDBRANCH   1   7
BRANCH   5  24
ATOM     24  O   UNL d   1      24.190 -17.769  -1.960  0.00  0.00    -0.349 OA
BRANCH  24  25
ATOM     25  C   UNL d   1      23.216 -18.209  -1.040  0.00  0.00     0.171 C 
ATOM     26  C   UNL d   1      22.503 -16.977  -0.520  0.00  0.00     0.034 C 
ENDBRANCH  24  25
ENDBRANCH   5  24
BRANCH   4  27
ATOM     27  O   UNL d   1      25.538 -17.488   0.513  0.00  0.00    -0.346 OA
BRANCH  27  28
ATOM     28  C   UNL d   1      26.607 -18.466   0.399  0.00  0.00     0.202 C 
BRANCH  28  29
ATOM     29  C   UNL d   1      27.891 -17.719   0.229  0.00  0.00     0.202 C 
BRANCH  29  30
ATOM     30  O   UNL d   1      28.295 -17.462  -1.105  0.00  0.00    -0.346 OA
BRANCH  30  31
ATOM     31  C   UNL d   1      29.634 -17.209  -1.346  0.00  0.00     0.102 A 
ATOM     32  C   UNL d   1      30.403 -18.395  -1.271  0.00  0.00     0.039 A 
ATOM     33  C   UNL d   1      31.804 -18.372  -1.272  0.00  0.00     0.003 A 
ATOM     34  C   UNL d   1      32.473 -17.168  -1.427  0.00  0.00     0.003 A 
ATOM     35  C   UNL d   1      31.740 -15.994  -1.520  0.00  0.00     0.039 A 
ATOM     36  C   UNL d   1      30.333 -15.981  -1.455  0.00  0.00     0.101 A 
BRANCH  36  37
ATOM     37  O   UNL d   1      29.946 -14.659  -1.446  0.00  0.00    -0.353 OA
ATOM     38  C   UNL d   1      29.611 -14.130  -0.205  0.00  0.00     0.210 C 
ENDBRANCH  36  37
ENDBRANCH  30  31
ENDBRANCH  29  30
ENDBRANCH  28  29
ENDBRANCH  27  28
ENDBRANCH   4  27
TORSDOF 12
ENDMDL
MODEL 6
REMARK VINA RESULT:    -5.936      3.581      6.579
REMARK INTER + INTRA:         -13.764
REMARK INTER:                  -9.516
REMARK INTRA:                  -4.248
REMARK CONF_INDEPENDENT:        3.580
REMARK UNBOUND:                -4.248
REMARK  12 active torsions:
REMARK  status: ('A' for Active; 'I' for Inactive)
REMARK    1  A    between atoms: C_2  and  C_3 
REMARK    2  A    between atoms: C_3  and  C_4 
REMARK    3  A    between atoms: C_4  and  C_5 
REMARK    4  A    between atoms: C_11  and  C_12 
REMARK    5  A    between atoms: C_15  and  O_16 
REMARK    6  A    between atoms: O_16  and  C_17 
REMARK    7  A    between atoms: C_17  and  C_18 
REMARK    8  A    between atoms: C_18  and  O_19 
REMARK    9  A    between atoms: O_19  and  C_20 
REMARK   10  A    between atoms: C_25  and  O_26 
REMARK   11  A    between atoms: C_28  and  O_29 
REMARK   12  A    between atoms: O_29  and  C_30 
ROOT
ATOM      1  C   UNL d   1      30.079 -15.126  -5.584  0.00  0.00    -0.032 C 
ATOM      2  C   UNL d   1      30.029 -16.387  -6.178  0.00  0.00     0.014 C 
ATOM      3  C   UNL d   1      30.715 -17.450  -5.575  0.00  0.00     0.040 C 
ATOM      4  C   UNL d   1      31.571 -17.214  -4.480  0.00  0.00     0.102 C 
ATOM      5  C   UNL d   1      31.693 -15.922  -3.964  0.00  0.00     0.102 C 
ATOM      6  C   UNL d   1      30.864 -14.933  -4.445  0.00  0.00     0.051 C 
ENDROOT
BRANCH   1   7
ATOM      7  C   UNL d   1      29.489 -13.931  -6.196  0.00  0.00     0.032 C 
ATOM      8  C   UNL d   1      28.166 -13.683  -6.131  0.00  0.00     0.076 C 
ATOM      9  C   UNL d   1      27.197 -14.568  -5.397  0.00  0.00     0.140 C 
ATOM     10  C   UNL d   1      27.614 -12.336  -6.512  0.00  0.00     0.282 C 
ATOM     11  N   UNL d   1      25.902 -14.085  -5.272  0.00  0.00    -0.094 NA
ATOM     12  N   UNL d   1      27.549 -15.575  -4.648  0.00  0.00    -0.286 NA
ATOM     13  N   UNL d   1      25.133 -14.856  -4.399  0.00  0.00    -0.183 NA
ATOM     14  C   UNL d   1      26.039 -12.755  -4.927  0.00  0.00     0.179 C 
ATOM     15  C   UNL d   1      25.291 -14.389  -3.194  0.00  0.00     0.093 C 
ATOM     16  S   UNL d   1      25.929 -12.736  -3.112  0.00  0.00    -0.039 SA
ATOM     17  N   UNL d   1      26.701 -11.839  -5.581  0.00  0.00    -0.188 NA
ATOM     18  H   UNL d   1      26.733 -15.952  -4.163  0.00  0.00     0.188 HD
ATOM     19  O   UNL d   1      28.129 -11.675  -7.432  0.00  0.00    -0.265 OA
BRANCH  15  20
ATOM     20  C   UNL d   1      24.827 -15.265  -2.038  0.00  0.00     0.068 C 
BRANCH  20  21
ATOM     21  C   UNL d   1      24.959 -16.794  -2.019  0.00  0.00     0.006 C 
BRANCH  21  22
ATOM     22  C   UNL d   1      23.765 -17.434  -1.263  0.00  0.00    -0.004 C 
ATOM     23  C   UNL d   1      24.217 -18.176  -0.012  0.00  0.00     0.005 C 
ENDBRANCH  21  22
ENDBRANCH  20  21
ENDBRANCH  15  20
ENDBRANCH   1   7
BRANCH   5  24
ATOM     24  O   UNL d   1      32.646 -15.668  -3.028  0.00  0.00    -0.349 OA
BRANCH  24  25
ATOM     25  C   UNL d   1      33.270 -14.406  -2.936  0.00  0.00     0.171 C 
ATOM     26  C   UNL d   1      34.742 -14.614  -3.234  0.00  0.00     0.034 C 
ENDBRANCH  24  25
ENDBRANCH   5  24
BRANCH   4  27
ATOM     27  O   UNL d   1      32.221 -18.306  -3.963  0.00  0.00    -0.346 OA
BRANCH  27  28
ATOM     28  C   UNL d   1      31.466 -19.077  -2.990  0.00  0.00     0.202 C 
BRANCH  28  29
ATOM     29  C   UNL d   1      30.848 -18.113  -2.028  0.00  0.00     0.202 C 
BRANCH  29  30
ATOM     30  O   UNL d   1      29.648 -17.487  -2.451  0.00  0.00    -0.346 OA
BRANCH  30  31
ATOM     31  C   UNL d   1      28.964 -16.701  -1.541  0.00  0.00     0.102 A 
ATOM     32  C   UNL d   1      28.379 -17.488  -0.520  0.00  0.00     0.039 A 
ATOM     33  C   UNL d   1      27.467 -16.953   0.399  0.00  0.00     0.003 A 
ATOM     34  C   UNL d   1      27.174 -15.599   0.369  0.00  0.00     0.003 A 
ATOM     35  C   UNL d   1      27.748 -14.804  -0.613  0.00  0.00     0.039 A 
ATOM     36  C   UNL d   1      28.616 -15.328  -1.589  0.00  0.00     0.101 A 
BRANCH  36  37
ATOM     37  O   UNL d   1      28.890 -14.305  -2.470  0.00  0.00    -0.353 OA
ATOM     38  C   UNL d   1      29.199 -13.076  -1.900  0.00  0.00     0.210 C 
ENDBRANCH  36  37
ENDBRANCH  30  31
ENDBRANCH  29  30
ENDBRANCH  28  29
ENDBRANCH  27  28
ENDBRANCH   4  27
TORSDOF 12
ENDMDL
MODEL 7
REMARK VINA RESULT:    -5.591      2.655      4.991
REMARK INTER + INTRA:         -14.181
REMARK INTER:                  -9.170
REMARK INTRA:                  -5.010
REMARK CONF_INDEPENDENT:        3.580
REMARK UNBOUND:                -5.010
REMARK  12 active torsions:
REMARK  status: ('A' for Active; 'I' for Inactive)
REMARK    1  A    between atoms: C_2  and  C_3 
REMARK    2  A    between atoms: C_3  and  C_4 
REMARK    3  A    between atoms: C_4  and  C_5 
REMARK    4  A    between atoms: C_11  and  C_12 
REMARK    5  A    between atoms: C_15  and  O_16 
REMARK    6  A    between atoms: O_16  and  C_17 
REMARK    7  A    between atoms: C_17  and  C_18 
REMARK    8  A    between atoms: C_18  and  O_19 
REMARK    9  A    between atoms: O_19  and  C_20 
REMARK   10  A    between atoms: C_25  and  O_26 
REMARK   11  A    between atoms: C_28  and  O_29 
REMARK   12  A    between atoms: O_29  and  C_30 
ROOT
ATOM      1  C   UNL d   1      25.210 -15.126  -3.324  0.00  0.00    -0.032 C 
ATOM      2  C   UNL d   1      25.165 -13.762  -3.043  0.00  0.00     0.014 C 
ATOM      3  C   UNL d   1      25.758 -12.863  -3.941  0.00  0.00     0.040 C 
ATOM      4  C   UNL d   1      26.524 -13.341  -5.024  0.00  0.00     0.102 C 
ATOM      5  C   UNL d   1      26.648 -14.717  -5.229  0.00  0.00     0.102 C 
ATOM      6  C   UNL d   1      25.900 -15.575  -4.453  0.00  0.00     0.051 C 
ENDROOT
BRANCH   1   7
ATOM      7  C   UNL d   1      24.719 -16.150  -2.395  0.00  0.00     0.032 C 
ATOM      8  C   UNL d   1      25.560 -16.873  -1.631  0.00  0.00     0.076 C 
ATOM      9  C   UNL d   1      27.051 -16.667  -1.624  0.00  0.00     0.140 C 
ATOM     10  C   UNL d   1      25.042 -17.713  -0.494  0.00  0.00     0.282 C 
ATOM     11  N   UNL d   1      27.759 -17.365  -0.655  0.00  0.00    -0.094 NA
ATOM     12  N   UNL d   1      27.657 -15.696  -2.244  0.00  0.00    -0.286 NA
ATOM     13  N   UNL d   1      29.090 -16.954  -0.578  0.00  0.00    -0.183 NA
ATOM     14  C   UNL d   1      27.025 -17.227   0.506  0.00  0.00     0.179 C 
ATOM     15  C   UNL d   1      29.163 -15.962   0.262  0.00  0.00     0.093 C 
ATOM     16  S   UNL d   1      27.781 -15.812   1.363  0.00  0.00    -0.039 SA
ATOM     17  N   UNL d   1      25.771 -17.544   0.683  0.00  0.00    -0.188 NA
ATOM     18  H   UNL d   1      28.649 -15.692  -2.001  0.00  0.00     0.188 HD
ATOM     19  O   UNL d   1      23.940 -18.285  -0.578  0.00  0.00    -0.265 OA
BRANCH  15  20
ATOM     20  C   UNL d   1      30.440 -15.133   0.256  0.00  0.00     0.068 C 
BRANCH  20  21
ATOM     21  C   UNL d   1      31.482 -15.158   1.383  0.00  0.00     0.006 C 
BRANCH  21  22
ATOM     22  C   UNL d   1      30.934 -14.449   2.648  0.00  0.00    -0.004 C 
ATOM     23  C   UNL d   1      30.022 -13.281   2.295  0.00  0.00     0.005 C 
ENDBRANCH  21  22
ENDBRANCH  20  21
ENDBRANCH  15  20
ENDBRANCH   1   7
BRANCH   5  24
ATOM     24  O   UNL d   1      27.525 -15.173  -6.162  0.00  0.00    -0.349 OA
BRANCH  24  25
ATOM     25  C   UNL d   1      28.916 -14.992  -6.018  0.00  0.00     0.171 C 
ATOM     26  C   UNL d   1      29.380 -15.943  -4.933  0.00  0.00     0.034 C 
ENDBRANCH  24  25
ENDBRANCH   5  24
BRANCH   4  27
ATOM     27  O   UNL d   1      27.087 -12.395  -5.842  0.00  0.00    -0.346 OA
BRANCH  27  28
ATOM     28  C   UNL d   1      26.719 -11.020  -5.548  0.00  0.00     0.202 C 
BRANCH  28  29
ATOM     29  C   UNL d   1      27.923 -10.338  -4.981  0.00  0.00     0.202 C 
BRANCH  29  30
ATOM     30  O   UNL d   1      28.821 -11.157  -4.251  0.00  0.00    -0.346 OA
BRANCH  30  31
ATOM     31  C   UNL d   1      28.442 -11.583  -2.991  0.00  0.00     0.102 A 
ATOM     32  C   UNL d   1      27.719 -10.578  -2.305  0.00  0.00     0.039 A 
ATOM     33  C   UNL d   1      27.405 -10.688  -0.943  0.00  0.00     0.003 A 
ATOM     34  C   UNL d   1      27.739 -11.840  -0.251  0.00  0.00     0.003 A 
ATOM     35  C   UNL d   1      28.434 -12.846  -0.907  0.00  0.00     0.039 A 
ATOM     36  C   UNL d   1      28.820 -12.735  -2.257  0.00  0.00     0.101 A 
BRANCH  36  37
ATOM     37  O   UNL d   1      29.594 -13.837  -2.543  0.00  0.00    -0.353 OA
ATOM     38  C   UNL d   1      30.927 -13.584  -2.846  0.00  0.00     0.210 C 
ENDBRANCH  36  37
ENDBRANCH  30  31
ENDBRANCH  29  30
ENDBRANCH  28  29
ENDBRANCH  27  28
ENDBRANCH   4  27
TORSDOF 12
ENDMDL
MODEL 8
REMARK VINA RESULT:    -5.359      2.732      5.139
REMARK INTER + INTRA:         -13.893
REMARK INTER:                  -8.938
REMARK INTRA:                  -4.954
REMARK CONF_INDEPENDENT:        3.580
REMARK UNBOUND:                -4.954
REMARK  12 active torsions:
REMARK  status: ('A' for Active; 'I' for Inactive)
REMARK    1  A    between atoms: C_2  and  C_3 
REMARK    2  A    between atoms: C_3  and  C_4 
REMARK    3  A    between atoms: C_4  and  C_5 
REMARK    4  A    between atoms: C_11  and  C_12 
REMARK    5  A    between atoms: C_15  and  O_16 
REMARK    6  A    between atoms: O_16  and  C_17 
REMARK    7  A    between atoms: C_17  and  C_18 
REMARK    8  A    between atoms: C_18  and  O_19 
REMARK    9  A    between atoms: O_19  and  C_20 
REMARK   10  A    between atoms: C_25  and  O_26 
REMARK   11  A    between atoms: C_28  and  O_29 
REMARK   12  A    between atoms: O_29  and  C_30 
ROOT
ATOM      1  C   UNL d   1      25.219 -15.223  -3.261  0.00  0.00    -0.032 C 
ATOM      2  C   UNL d   1      25.058 -13.876  -2.938  0.00  0.00     0.014 C 
ATOM      3  C   UNL d   1      25.530 -12.903  -3.830  0.00  0.00     0.040 C 
ATOM      4  C   UNL d   1      26.296 -13.278  -4.953  0.00  0.00     0.102 C 
ATOM      5  C   UNL d   1      26.539 -14.631  -5.203  0.00  0.00     0.102 C 
ATOM      6  C   UNL d   1      25.904 -15.575  -4.427  0.00  0.00     0.051 C 
ENDROOT
BRANCH   1   7
ATOM      7  C   UNL d   1      24.861 -16.312  -2.346  0.00  0.00     0.032 C 
ATOM      8  C   UNL d   1      25.782 -16.916  -1.570  0.00  0.00     0.076 C 
ATOM      9  C   UNL d   1      27.229 -16.502  -1.535  0.00  0.00     0.140 C 
ATOM     10  C   UNL d   1      25.368 -17.828  -0.447  0.00  0.00     0.282 C 
ATOM     11  N   UNL d   1      28.012 -17.100  -0.557  0.00  0.00    -0.094 NA
ATOM     12  N   UNL d   1      27.703 -15.450  -2.140  0.00  0.00    -0.286 NA
ATOM     13  N   UNL d   1      29.270 -16.507  -0.454  0.00  0.00    -0.183 NA
ATOM     14  C   UNL d   1      27.245 -17.076   0.591  0.00  0.00     0.179 C 
ATOM     15  C   UNL d   1      29.188 -15.521   0.392  0.00  0.00     0.093 C 
ATOM     16  S   UNL d   1      27.780 -15.575   1.468  0.00  0.00    -0.039 SA
ATOM     17  N   UNL d   1      26.046 -17.567   0.744  0.00  0.00    -0.188 NA
ATOM     18  H   UNL d   1      28.681 -15.309  -1.879  0.00  0.00     0.188 HD
ATOM     19  O   UNL d   1      24.359 -18.548  -0.553  0.00  0.00    -0.265 OA
BRANCH  15  20
ATOM     20  C   UNL d   1      30.336 -14.520   0.412  0.00  0.00     0.068 C 
BRANCH  20  21
ATOM     21  C   UNL d   1      31.813 -14.910   0.260  0.00  0.00     0.006 C 
BRANCH  21  22
ATOM     22  C   UNL d   1      32.461 -15.145   1.649  0.00  0.00    -0.004 C 
ATOM     23  C   UNL d   1      31.500 -14.825   2.786  0.00  0.00     0.005 C 
ENDBRANCH  21  22
ENDBRANCH  20  21
ENDBRANCH  15  20
ENDBRANCH   1   7
BRANCH   5  24
ATOM     24  O   UNL d   1      27.418 -14.978  -6.180  0.00  0.00    -0.349 OA
BRANCH  24  25
ATOM     25  C   UNL d   1      28.812 -14.888  -5.983  0.00  0.00     0.171 C 
ATOM     26  C   UNL d   1      29.186 -15.937  -4.955  0.00  0.00     0.034 C 
ENDBRANCH  24  25
ENDBRANCH   5  24
BRANCH   4  27
ATOM     27  O   UNL d   1      26.736 -12.262  -5.762  0.00  0.00    -0.346 OA
BRANCH  27  28
ATOM     28  C   UNL d   1      26.162 -10.955  -5.488  0.00  0.00     0.202 C 
BRANCH  28  29
ATOM     29  C   UNL d   1      27.162 -10.176  -4.695  0.00  0.00     0.202 C 
BRANCH  29  30
ATOM     30  O   UNL d   1      27.539 -10.730  -3.445  0.00  0.00    -0.346 OA
BRANCH  30  31
ATOM     31  C   UNL d   1      28.673 -11.521  -3.395  0.00  0.00     0.102 A 
ATOM     32  C   UNL d   1      29.500 -11.305  -4.523  0.00  0.00     0.039 A 
ATOM     33  C   UNL d   1      30.597 -12.129  -4.808  0.00  0.00     0.003 A 
ATOM     34  C   UNL d   1      30.941 -13.144  -3.931  0.00  0.00     0.003 A 
ATOM     35  C   UNL d   1      30.155 -13.365  -2.809  0.00  0.00     0.039 A 
ATOM     36  C   UNL d   1      29.009 -12.594  -2.532  0.00  0.00     0.101 A 
BRANCH  36  37
ATOM     37  O   UNL d   1      28.403 -13.160  -1.433  0.00  0.00    -0.353 OA
ATOM     38  C   UNL d   1      27.527 -12.341  -0.731  0.00  0.00     0.210 C 
ENDBRANCH  36  37
ENDBRANCH  30  31
ENDBRANCH  29  30
ENDBRANCH  28  29
ENDBRANCH  27  28
ENDBRANCH   4  27
TORSDOF 12
ENDMDL
MODEL 9
REMARK VINA RESULT:    -5.103      2.913      5.423
REMARK INTER + INTRA:         -14.064
REMARK INTER:                  -8.682
REMARK INTRA:                  -5.382
REMARK CONF_INDEPENDENT:        3.580
REMARK UNBOUND:                -5.382
REMARK  12 active torsions:
REMARK  status: ('A' for Active; 'I' for Inactive)
REMARK    1  A    between atoms: C_2  and  C_3 
REMARK    2  A    between atoms: C_3  and  C_4 
REMARK    3  A    between atoms: C_4  and  C_5 
REMARK    4  A    between atoms: C_11  and  C_12 
REMARK    5  A    between atoms: C_15  and  O_16 
REMARK    6  A    between atoms: O_16  and  C_17 
REMARK    7  A    between atoms: C_17  and  C_18 
REMARK    8  A    between atoms: C_18  and  O_19 
REMARK    9  A    between atoms: O_19  and  C_20 
REMARK   10  A    between atoms: C_25  and  O_26 
REMARK   11  A    between atoms: C_28  and  O_29 
REMARK   12  A    between atoms: O_29  and  C_30 
ROOT
ATOM      1  C   UNL d   1      25.288 -15.097  -3.369  0.00  0.00    -0.032 C 
ATOM      2  C   UNL d   1      25.325 -13.739  -3.056  0.00  0.00     0.014 C 
ATOM      3  C   UNL d   1      25.928 -12.851  -3.957  0.00  0.00     0.040 C 
ATOM      4  C   UNL d   1      26.626 -13.341  -5.080  0.00  0.00     0.102 C 
ATOM      5  C   UNL d   1      26.670 -14.716  -5.320  0.00  0.00     0.102 C 
ATOM      6  C   UNL d   1      25.910 -15.553  -4.534  0.00  0.00     0.051 C 
ENDROOT
BRANCH   1   7
ATOM      7  C   UNL d   1      24.781 -16.117  -2.444  0.00  0.00     0.032 C 
ATOM      8  C   UNL d   1      25.608 -16.838  -1.663  0.00  0.00     0.076 C 
ATOM      9  C   UNL d   1      27.099 -16.633  -1.632  0.00  0.00     0.140 C 
ATOM     10  C   UNL d   1      25.071 -17.672  -0.532  0.00  0.00     0.282 C 
ATOM     11  N   UNL d   1      27.791 -17.328  -0.649  0.00  0.00    -0.094 NA
ATOM     12  N   UNL d   1      27.716 -15.665  -2.246  0.00  0.00    -0.286 NA
ATOM     13  N   UNL d   1      29.120 -16.917  -0.552  0.00  0.00    -0.183 NA
ATOM     14  C   UNL d   1      27.037 -17.185   0.499  0.00  0.00     0.179 C 
ATOM     15  C   UNL d   1      29.180 -15.922   0.285  0.00  0.00     0.093 C 
ATOM     16  S   UNL d   1      27.780 -15.767   1.363  0.00  0.00    -0.039 SA
ATOM     17  N   UNL d   1      25.780 -17.499   0.657  0.00  0.00    -0.188 NA
ATOM     18  H   UNL d   1      28.704 -15.661  -1.987  0.00  0.00     0.188 HD
ATOM     19  O   UNL d   1      23.970 -18.243  -0.631  0.00  0.00    -0.265 OA
BRANCH  15  20
ATOM     20  C   UNL d   1      30.459 -15.094   0.297  0.00  0.00     0.068 C 
BRANCH  20  21
ATOM     21  C   UNL d   1      30.499 -13.580   0.052  0.00  0.00     0.006 C 
BRANCH  21  22
ATOM     22  C   UNL d   1      29.131 -12.935   0.393  0.00  0.00    -0.004 C 
ATOM     23  C   UNL d   1      28.219 -12.860  -0.824  0.00  0.00     0.005 C 
ENDBRANCH  21  22
ENDBRANCH  20  21
ENDBRANCH  15  20
ENDBRANCH   1   7
BRANCH   5  24
ATOM     24  O   UNL d   1      27.486 -15.194  -6.297  0.00  0.00    -0.349 OA
BRANCH  24  25
ATOM     25  C   UNL d   1      28.799 -14.707  -6.465  0.00  0.00     0.171 C 
ATOM     26  C   UNL d   1      29.707 -15.913  -6.608  0.00  0.00     0.034 C 
ENDBRANCH  24  25
ENDBRANCH   5  24
BRANCH   4  27
ATOM     27  O   UNL d   1      27.205 -12.405  -5.899  0.00  0.00    -0.346 OA
BRANCH  27  28
ATOM     28  C   UNL d   1      27.994 -11.389  -5.222  0.00  0.00     0.202 C 
BRANCH  28  29
ATOM     29  C   UNL d   1      29.255 -12.036  -4.745  0.00  0.00     0.202 C 
BRANCH  29  30
ATOM     30  O   UNL d   1      29.106 -13.078  -3.796  0.00  0.00    -0.346 OA
BRANCH  30  31
ATOM     31  C   UNL d   1      30.236 -13.770  -3.399  0.00  0.00     0.102 A 
ATOM     32  C   UNL d   1      31.315 -12.889  -3.147  0.00  0.00     0.039 A 
ATOM     33  C   UNL d   1      32.619 -13.356  -2.934  0.00  0.00     0.003 A 
ATOM     34  C   UNL d   1      32.865 -14.718  -2.891  0.00  0.00     0.003 A 
ATOM     35  C   UNL d   1      31.820 -15.601  -3.119  0.00  0.00     0.039 A 
ATOM     36  C   UNL d   1      30.512 -15.160  -3.400  0.00  0.00     0.101 A 
BRANCH  36  37
ATOM     37  O   UNL d   1      29.769 -16.280  -3.700  0.00  0.00    -0.353 OA
ATOM     38  C   UNL d   1      30.411 -17.501  -3.532  0.00  0.00     0.210 C 
ENDBRANCH  36  37
ENDBRANCH  30  31
ENDBRANCH  29  30
ENDBRANCH  28  29
ENDBRANCH  27  28
ENDBRANCH   4  27
TORSDOF 12
ENDMDL
