MODEL 1
REMARK VINA RESULT:   -10.824      0.000      0.000
REMARK INTER + INTRA:         -13.225
REMARK INTER:                 -12.614
REMARK INTRA:                  -0.611
REMARK CONF_INDEPENDENT:        1.790
REMARK UNBOUND:                -0.611
REMARK  6 active torsions:
REMARK  status: ('A' for Active; 'I' for Inactive)
REMARK       I    between atoms: N_13  and  C_14 
REMARK    1  A    between atoms: C_14  and  C_16 
REMARK    2  A    between atoms: C_16  and  S_17 
REMARK    3  A    between atoms: S_17  and  C_18 
REMARK    4  A    between atoms: C_21  and  N_22 
REMARK    5  A    between atoms: N_22  and  C_23 
REMARK    6  A    between atoms: C_23  and  C_24 
ROOT
ATOM      1  C   UNL d   1      28.989 -11.471  -3.812  0.00  0.00     0.033 C 
ATOM      2  C   UNL d   1      27.838 -12.455  -3.476  0.00  0.00     0.097 C 
ATOM      3  C   UNL d   1      26.602 -11.687  -2.985  0.00  0.00     0.122 C 
ATOM      4  C   UNL d   1      26.109 -10.685  -3.997  0.00  0.00     0.203 C 
ATOM      5  O   UNL d   1      26.217  -9.462  -3.803  0.00  0.00    -0.279 OA
ATOM      6  N   UNL d   1      25.569 -11.169  -5.160  0.00  0.00    -0.227 NA
ATOM      7  C   UNL d   1      26.487 -11.648  -6.123  0.00  0.00     0.042 A 
ATOM      8  C   UNL d   1      26.486 -10.893  -7.306  0.00  0.00     0.026 A 
ATOM      9  C   UNL d   1      27.450 -11.104  -8.278  0.00  0.00     0.002 A 
ATOM     10  C   UNL d   1      28.398 -12.104  -8.081  0.00  0.00     0.002 A 
ATOM     11  C   UNL d   1      28.372 -12.912  -6.920  0.00  0.00     0.031 A 
ATOM     12  C   UNL d   1      27.412 -12.701  -5.909  0.00  0.00     0.059 A 
ATOM     13  N   UNL d   1      27.533 -13.379  -4.613  0.00  0.00    -0.311 N 
ATOM     14  C   UNL d   1      27.288 -14.782  -4.527  0.00  0.00     0.234 C 
ATOM     15  O   UNL d   1      27.025 -15.421  -5.553  0.00  0.00    -0.272 OA
ATOM     16  H   UNL d   1      24.782 -11.797  -5.043  0.00  0.00     0.136 HD
ENDROOT
BRANCH  14  17
ATOM     17  C   UNL d   1      27.308 -15.525  -3.121  0.00  0.00     0.184 C 
BRANCH  17  18
ATOM     18  S   UNL d   1      25.936 -14.922  -2.014  0.00  0.00    -0.092 SA
BRANCH  18  19
ATOM     19  C   UNL d   1      25.064 -16.345  -1.425  0.00  0.00     0.160 A 
ATOM     20  N   UNL d   1      25.648 -17.454  -1.030  0.00  0.00    -0.133 NA
ATOM     21  N   UNL d   1      24.733 -18.373  -0.514  0.00  0.00    -0.123 NA
ATOM     22  C   UNL d   1      23.484 -17.942  -0.515  0.00  0.00     0.190 A 
ATOM     23  S   UNL d   1      23.358 -16.334  -1.138  0.00  0.00    -0.022 SA
BRANCH  22  24
ATOM     24  N   UNL d   1      22.450 -18.708  -0.074  0.00  0.00    -0.363 N 
ATOM     25  H   UNL d   1      22.692 -19.409   0.612  0.00  0.00     0.162 HD
BRANCH  24  26
ATOM     26  C   UNL d   1      21.106 -18.730  -0.626  0.00  0.00     0.160 C 
BRANCH  26  27
ATOM     27  C   UNL d   1      20.111 -19.590   0.155  0.00  0.00    -0.041 C 
ATOM     28  C   UNL d   1      19.014 -20.240  -0.429  0.00  0.00     0.009 C 
ATOM     29  C   UNL d   1      18.031 -20.851   0.351  0.00  0.00     0.001 C 
ATOM     30  C   UNL d   1      18.194 -20.951   1.727  0.00  0.00     0.000 C 
ATOM     31  C   UNL d   1      19.348 -20.446   2.319  0.00  0.00     0.001 C 
ATOM     32  C   UNL d   1      20.273 -19.727   1.550  0.00  0.00     0.009 C 
ENDBRANCH  26  27
ENDBRANCH  24  26
ENDBRANCH  22  24
ENDBRANCH  18  19
ENDBRANCH  17  18
ENDBRANCH  14  17
TORSDOF 6
ENDMDL
MODEL 2
REMARK VINA RESULT:    -9.834      5.364      7.014
REMARK INTER + INTRA:         -12.194
REMARK INTER:                 -11.624
REMARK INTRA:                  -0.570
REMARK CONF_INDEPENDENT:        1.790
REMARK UNBOUND:                -0.570
REMARK  6 active torsions:
REMARK  status: ('A' for Active; 'I' for Inactive)
REMARK       I    between atoms: N_13  and  C_14 
REMARK    1  A    between atoms: C_14  and  C_16 
REMARK    2  A    between atoms: C_16  and  S_17 
REMARK    3  A    between atoms: S_17  and  C_18 
REMARK    4  A    between atoms: C_21  and  N_22 
REMARK    5  A    between atoms: N_22  and  C_23 
REMARK    6  A    between atoms: C_23  and  C_24 
ROOT
ATOM      1  C   UNL d   1      30.810 -13.517   3.678  0.00  0.00     0.033 C 
ATOM      2  C   UNL d   1      29.599 -14.442   3.385  0.00  0.00     0.097 C 
ATOM      3  C   UNL d   1      29.068 -15.059   4.687  0.00  0.00     0.122 C 
ATOM      4  C   UNL d   1      28.653 -14.014   5.691  0.00  0.00     0.203 C 
ATOM      5  O   UNL d   1      29.301 -13.827   6.735  0.00  0.00    -0.279 OA
ATOM      6  N   UNL d   1      27.556 -13.248   5.395  0.00  0.00    -0.227 NA
ATOM      7  C   UNL d   1      27.751 -12.219   4.446  0.00  0.00     0.042 A 
ATOM      8  C   UNL d   1      27.580 -10.935   4.985  0.00  0.00     0.026 A 
ATOM      9  C   UNL d   1      27.914  -9.810   4.249  0.00  0.00     0.002 A 
ATOM     10  C   UNL d   1      28.387  -9.972   2.949  0.00  0.00     0.002 A 
ATOM     11  C   UNL d   1      28.505 -11.258   2.374  0.00  0.00     0.031 A 
ATOM     12  C   UNL d   1      28.189 -12.417   3.112  0.00  0.00     0.059 A 
ATOM     13  N   UNL d   1      28.534 -13.747   2.596  0.00  0.00    -0.311 N 
ATOM     14  C   UNL d   1      27.813 -14.281   1.486  0.00  0.00     0.234 C 
ATOM     15  O   UNL d   1      26.939 -13.596   0.939  0.00  0.00    -0.272 OA
ATOM     16  H   UNL d   1      26.702 -13.765   5.222  0.00  0.00     0.136 HD
ENDROOT
BRANCH  14  17
ATOM     17  C   UNL d   1      28.091 -15.760   0.972  0.00  0.00     0.184 C 
BRANCH  17  18
ATOM     18  S   UNL d   1      27.240 -16.088  -0.651  0.00  0.00    -0.092 SA
BRANCH  18  19
ATOM     19  C   UNL d   1      25.750 -16.975  -0.300  0.00  0.00     0.160 A 
ATOM     20  N   UNL d   1      25.709 -18.112   0.360  0.00  0.00    -0.133 NA
ATOM     21  N   UNL d   1      24.400 -18.537   0.589  0.00  0.00    -0.123 NA
ATOM     22  C   UNL d   1      23.479 -17.716   0.113  0.00  0.00     0.190 A 
ATOM     23  S   UNL d   1      24.182 -16.326  -0.636  0.00  0.00    -0.022 SA
BRANCH  22  24
ATOM     24  N   UNL d   1      22.148 -17.978   0.218  0.00  0.00    -0.363 N 
ATOM     25  H   UNL d   1      21.675 -17.512   0.980  0.00  0.00     0.162 HD
BRANCH  24  26
ATOM     26  C   UNL d   1      21.413 -18.981  -0.531  0.00  0.00     0.160 C 
BRANCH  26  27
ATOM     27  C   UNL d   1      20.236 -19.603   0.223  0.00  0.00    -0.041 C 
ATOM     28  C   UNL d   1      20.171 -19.705   1.620  0.00  0.00     0.009 C 
ATOM     29  C   UNL d   1      19.171 -20.449   2.249  0.00  0.00     0.001 C 
ATOM     30  C   UNL d   1      18.131 -20.991   1.504  0.00  0.00     0.000 C 
ATOM     31  C   UNL d   1      18.090 -20.777   0.129  0.00  0.00     0.001 C 
ATOM     32  C   UNL d   1      19.157 -20.135  -0.513  0.00  0.00     0.009 C 
ENDBRANCH  26  27
ENDBRANCH  24  26
ENDBRANCH  22  24
ENDBRANCH  18  19
ENDBRANCH  17  18
ENDBRANCH  14  17
TORSDOF 6
ENDMDL
MODEL 3
REMARK VINA RESULT:    -9.370      4.683      7.405
REMARK INTER + INTRA:         -12.076
REMARK INTER:                 -11.160
REMARK INTRA:                  -0.916
REMARK CONF_INDEPENDENT:        1.790
REMARK UNBOUND:                -0.916
REMARK  6 active torsions:
REMARK  status: ('A' for Active; 'I' for Inactive)
REMARK       I    between atoms: N_13  and  C_14 
REMARK    1  A    between atoms: C_14  and  C_16 
REMARK    2  A    between atoms: C_16  and  S_17 
REMARK    3  A    between atoms: S_17  and  C_18 
REMARK    4  A    between atoms: C_21  and  N_22 
REMARK    5  A    between atoms: N_22  and  C_23 
REMARK    6  A    between atoms: C_23  and  C_24 
ROOT
ATOM      1  C   UNL d   1      33.382 -18.179  -6.421  0.00  0.00     0.033 C 
ATOM      2  C   UNL d   1      32.014 -17.511  -6.723  0.00  0.00     0.097 C 
ATOM      3  C   UNL d   1      31.367 -18.153  -7.960  0.00  0.00     0.122 C 
ATOM      4  C   UNL d   1      31.161 -19.637  -7.796  0.00  0.00     0.203 C 
ATOM      5  O   UNL d   1      31.828 -20.458  -8.448  0.00  0.00    -0.279 OA
ATOM      6  N   UNL d   1      30.237 -20.052  -6.873  0.00  0.00    -0.227 NA
ATOM      7  C   UNL d   1      30.634 -19.986  -5.518  0.00  0.00     0.042 A 
ATOM      8  C   UNL d   1      30.717 -21.247  -4.907  0.00  0.00     0.026 A 
ATOM      9  C   UNL d   1      31.269 -21.384  -3.644  0.00  0.00     0.002 A 
ATOM     10  C   UNL d   1      31.706 -20.246  -2.973  0.00  0.00     0.002 A 
ATOM     11  C   UNL d   1      31.572 -18.963  -3.553  0.00  0.00     0.031 A 
ATOM     12  C   UNL d   1      31.031 -18.802  -4.846  0.00  0.00     0.059 A 
ATOM     13  N   UNL d   1      31.111 -17.507  -5.531  0.00  0.00    -0.311 N 
ATOM     14  C   UNL d   1      30.304 -16.421  -5.079  0.00  0.00     0.234 C 
ATOM     15  O   UNL d   1      29.583 -16.567  -4.084  0.00  0.00    -0.272 OA
ATOM     16  H   UNL d   1      29.299 -19.695  -7.010  0.00  0.00     0.136 HD
ENDROOT
BRANCH  14  17
ATOM     17  C   UNL d   1      30.288 -15.039  -5.866  0.00  0.00     0.184 C 
BRANCH  17  18
ATOM     18  S   UNL d   1      28.645 -14.743  -6.691  0.00  0.00    -0.092 SA
BRANCH  18  19
ATOM     19  C   UNL d   1      27.394 -14.871  -5.446  0.00  0.00     0.160 A 
ATOM     20  N   UNL d   1      26.289 -15.570  -5.583  0.00  0.00    -0.133 NA
ATOM     21  N   UNL d   1      25.532 -15.587  -4.412  0.00  0.00    -0.123 NA
ATOM     22  C   UNL d   1      26.078 -14.916  -3.412  0.00  0.00     0.190 A 
ATOM     23  S   UNL d   1      27.604 -14.234  -3.852  0.00  0.00    -0.022 SA
BRANCH  22  24
ATOM     24  N   UNL d   1      25.473 -14.799  -2.199  0.00  0.00    -0.363 N 
ATOM     25  H   UNL d   1      24.957 -13.943  -2.053  0.00  0.00     0.162 HD
BRANCH  24  26
ATOM     26  C   UNL d   1      25.655 -15.688  -1.064  0.00  0.00     0.160 C 
BRANCH  26  27
ATOM     27  C   UNL d   1      24.514 -16.682  -0.844  0.00  0.00    -0.041 C 
ATOM     28  C   UNL d   1      23.155 -16.340  -0.918  0.00  0.00     0.009 C 
ATOM     29  C   UNL d   1      22.158 -17.234  -0.522  0.00  0.00     0.001 C 
ATOM     30  C   UNL d   1      22.487 -18.539  -0.178  0.00  0.00     0.000 C 
ATOM     31  C   UNL d   1      23.815 -18.950  -0.241  0.00  0.00     0.001 C 
ATOM     32  C   UNL d   1      24.825 -18.019  -0.520  0.00  0.00     0.009 C 
ENDBRANCH  26  27
ENDBRANCH  24  26
ENDBRANCH  22  24
ENDBRANCH  18  19
ENDBRANCH  17  18
ENDBRANCH  14  17
TORSDOF 6
ENDMDL
MODEL 4
REMARK VINA RESULT:    -9.331      1.276      1.727
REMARK INTER + INTRA:         -11.963
REMARK INTER:                 -11.121
REMARK INTRA:                  -0.842
REMARK CONF_INDEPENDENT:        1.790
REMARK UNBOUND:                -0.842
REMARK  6 active torsions:
REMARK  status: ('A' for Active; 'I' for Inactive)
REMARK       I    between atoms: N_13  and  C_14 
REMARK    1  A    between atoms: C_14  and  C_16 
REMARK    2  A    between atoms: C_16  and  S_17 
REMARK    3  A    between atoms: S_17  and  C_18 
REMARK    4  A    between atoms: C_21  and  N_22 
REMARK    5  A    between atoms: N_22  and  C_23 
REMARK    6  A    between atoms: C_23  and  C_24 
ROOT
ATOM      1  C   UNL d   1      29.154 -11.466  -3.581  0.00  0.00     0.033 C 
ATOM      2  C   UNL d   1      28.292 -12.696  -3.194  0.00  0.00     0.097 C 
ATOM      3  C   UNL d   1      27.182 -12.286  -2.214  0.00  0.00     0.122 C 
ATOM      4  C   UNL d   1      26.283 -11.217  -2.780  0.00  0.00     0.203 C 
ATOM      5  O   UNL d   1      26.295 -10.058  -2.332  0.00  0.00    -0.279 OA
ATOM      6  N   UNL d   1      25.475 -11.558  -3.834  0.00  0.00    -0.227 NA
ATOM      7  C   UNL d   1      26.105 -11.657  -5.096  0.00  0.00     0.042 A 
ATOM      8  C   UNL d   1      25.647 -10.700  -6.014  0.00  0.00     0.026 A 
ATOM      9  C   UNL d   1      26.284 -10.531  -7.233  0.00  0.00     0.002 A 
ATOM     10  C   UNL d   1      27.362 -11.353  -7.550  0.00  0.00     0.002 A 
ATOM     11  C   UNL d   1      27.793 -12.361  -6.657  0.00  0.00     0.031 A 
ATOM     12  C   UNL d   1      27.172 -12.538  -5.403  0.00  0.00     0.059 A 
ATOM     13  N   UNL d   1      27.768 -13.420  -4.394  0.00  0.00    -0.311 N 
ATOM     14  C   UNL d   1      27.736 -14.834  -4.587  0.00  0.00     0.234 C 
ATOM     15  O   UNL d   1      27.251 -15.298  -5.626  0.00  0.00    -0.272 OA
ATOM     16  H   UNL d   1      24.846 -12.333  -3.663  0.00  0.00     0.136 HD
ENDROOT
BRANCH  14  17
ATOM     17  C   UNL d   1      28.277 -15.820  -3.462  0.00  0.00     0.184 C 
BRANCH  17  18
ATOM     18  S   UNL d   1      27.777 -15.251  -1.761  0.00  0.00    -0.092 SA
BRANCH  18  19
ATOM     19  C   UNL d   1      26.050 -15.587  -1.574  0.00  0.00     0.160 A 
ATOM     20  N   UNL d   1      25.109 -15.027  -2.300  0.00  0.00    -0.133 NA
ATOM     21  N   UNL d   1      23.847 -15.551  -2.018  0.00  0.00    -0.123 NA
ATOM     22  C   UNL d   1      23.856 -16.501  -1.099  0.00  0.00     0.190 A 
ATOM     23  S   UNL d   1      25.455 -16.835  -0.534  0.00  0.00    -0.022 SA
BRANCH  22  24
ATOM     24  N   UNL d   1      22.717 -17.112  -0.674  0.00  0.00    -0.363 N 
ATOM     25  H   UNL d   1      21.878 -16.555  -0.737  0.00  0.00     0.162 HD
BRANCH  24  26
ATOM     26  C   UNL d   1      22.639 -18.389   0.014  0.00  0.00     0.160 C 
BRANCH  26  27
ATOM     27  C   UNL d   1      21.223 -18.953   0.150  0.00  0.00    -0.041 C 
ATOM     28  C   UNL d   1      20.650 -19.336   1.372  0.00  0.00     0.009 C 
ATOM     29  C   UNL d   1      19.434 -20.020   1.421  0.00  0.00     0.001 C 
ATOM     30  C   UNL d   1      18.693 -20.212   0.261  0.00  0.00     0.000 C 
ATOM     31  C   UNL d   1      19.168 -19.708  -0.946  0.00  0.00     0.001 C 
ATOM     32  C   UNL d   1      20.443 -19.131  -1.011  0.00  0.00     0.009 C 
ENDBRANCH  26  27
ENDBRANCH  24  26
ENDBRANCH  22  24
ENDBRANCH  18  19
ENDBRANCH  17  18
ENDBRANCH  14  17
TORSDOF 6
ENDMDL
MODEL 5
REMARK VINA RESULT:    -9.153      3.199      5.498
REMARK INTER + INTRA:         -12.245
REMARK INTER:                 -10.943
REMARK INTRA:                  -1.303
REMARK CONF_INDEPENDENT:        1.790
REMARK UNBOUND:                -1.303
REMARK  6 active torsions:
REMARK  status: ('A' for Active; 'I' for Inactive)
REMARK       I    between atoms: N_13  and  C_14 
REMARK    1  A    between atoms: C_14  and  C_16 
REMARK    2  A    between atoms: C_16  and  S_17 
REMARK    3  A    between atoms: S_17  and  C_18 
REMARK    4  A    between atoms: C_21  and  N_22 
REMARK    5  A    between atoms: N_22  and  C_23 
REMARK    6  A    between atoms: C_23  and  C_24 
ROOT
ATOM      1  C   UNL d   1      31.677 -13.786  -4.670  0.00  0.00     0.033 C 
ATOM      2  C   UNL d   1      30.701 -13.357  -5.796  0.00  0.00     0.097 C 
ATOM      3  C   UNL d   1      31.472 -13.076  -7.095  0.00  0.00     0.122 C 
ATOM      4  C   UNL d   1      32.263 -14.270  -7.563  0.00  0.00     0.203 C 
ATOM      5  O   UNL d   1      33.505 -14.279  -7.521  0.00  0.00    -0.279 OA
ATOM      6  N   UNL d   1      31.563 -15.364  -8.002  0.00  0.00    -0.227 NA
ATOM      7  C   UNL d   1      30.982 -16.176  -7.001  0.00  0.00     0.042 A 
ATOM      8  C   UNL d   1      31.529 -17.468  -6.957  0.00  0.00     0.026 A 
ATOM      9  C   UNL d   1      31.212 -18.333  -5.922  0.00  0.00     0.002 A 
ATOM     10  C   UNL d   1      30.312 -17.913  -4.946  0.00  0.00     0.002 A 
ATOM     11  C   UNL d   1      29.709 -16.636  -5.013  0.00  0.00     0.031 A 
ATOM     12  C   UNL d   1      30.031 -15.733  -6.047  0.00  0.00     0.059 A 
ATOM     13  N   UNL d   1      29.586 -14.336  -5.984  0.00  0.00    -0.311 N 
ATOM     14  C   UNL d   1      28.205 -14.028  -6.172  0.00  0.00     0.234 C 
ATOM     15  O   UNL d   1      27.391 -14.945  -6.337  0.00  0.00    -0.272 OA
ATOM     16  H   UNL d   1      30.922 -15.188  -8.766  0.00  0.00     0.136 HD
ENDROOT
BRANCH  14  17
ATOM     17  C   UNL d   1      27.709 -12.518  -6.214  0.00  0.00     0.184 C 
BRANCH  17  18
ATOM     18  S   UNL d   1      26.295 -12.233  -5.036  0.00  0.00    -0.092 SA
BRANCH  18  19
ATOM     19  C   UNL d   1      26.089 -13.711  -4.085  0.00  0.00     0.160 A 
ATOM     20  N   UNL d   1      25.161 -14.613  -4.319  0.00  0.00    -0.133 NA
ATOM     21  N   UNL d   1      25.293 -15.727  -3.490  0.00  0.00    -0.123 NA
ATOM     22  C   UNL d   1      26.317 -15.656  -2.657  0.00  0.00     0.190 A 
ATOM     23  S   UNL d   1      27.218 -14.196  -2.868  0.00  0.00    -0.022 SA
BRANCH  22  24
ATOM     24  N   UNL d   1      26.590 -16.637  -1.754  0.00  0.00    -0.363 N 
ATOM     25  H   UNL d   1      27.183 -17.382  -2.090  0.00  0.00     0.162 HD
BRANCH  24  26
ATOM     26  C   UNL d   1      25.968 -16.795  -0.451  0.00  0.00     0.160 C 
BRANCH  26  27
ATOM     27  C   UNL d   1      24.531 -17.316  -0.489  0.00  0.00    -0.041 C 
ATOM     28  C   UNL d   1      24.183 -18.660  -0.286  0.00  0.00     0.009 C 
ATOM     29  C   UNL d   1      22.885 -19.117  -0.520  0.00  0.00     0.001 C 
ATOM     30  C   UNL d   1      21.871 -18.217  -0.826  0.00  0.00     0.000 C 
ATOM     31  C   UNL d   1      22.159 -16.857  -0.887  0.00  0.00     0.001 C 
ATOM     32  C   UNL d   1      23.484 -16.415  -0.771  0.00  0.00     0.009 C 
ENDBRANCH  26  27
ENDBRANCH  24  26
ENDBRANCH  22  24
ENDBRANCH  18  19
ENDBRANCH  17  18
ENDBRANCH  14  17
TORSDOF 6
ENDMDL
