MODEL 1
REMARK VINA RESULT:    -9.409      0.000      0.000
REMARK INTER + INTRA:         -13.737
REMARK INTER:                 -11.796
REMARK INTRA:                  -1.942
REMARK CONF_INDEPENDENT:        2.386
REMARK UNBOUND:                -1.942
REMARK  8 active torsions:
REMARK  status: ('A' for Active; 'I' for Inactive)
REMARK    1  A    between atoms: C_2  and  C_3 
REMARK    2  A    between atoms: C_3  and  O_4 
REMARK    3  A    between atoms: O_4  and  C_5 
REMARK    4  A    between atoms: C_8  and  C_9 
REMARK    5  A    between atoms: C_14  and  C_15 
REMARK    6  A    between atoms: C_18  and  O_19 
REMARK    7  A    between atoms: C_22  and  O_23 
REMARK    8  A    between atoms: C_28  and  N_29 
ROOT
ATOM      1  C   UNL d   1      26.986 -15.391  -0.102  0.00  0.00     0.072 C 
ATOM      2  N   UNL d   1      27.891 -15.469   0.930  0.00  0.00    -0.274 N 
ATOM      3  N   UNL d   1      28.486 -14.292   1.237  0.00  0.00    -0.148 NA
ATOM      4  C   UNL d   1      27.934 -13.459   0.340  0.00  0.00     0.199 A 
ATOM      5  C   UNL d   1      27.155 -14.121  -0.620  0.00  0.00     0.040 A 
ATOM      6  C   UNL d   1      26.618 -13.403  -1.811  0.00  0.00     0.108 A 
ATOM      7  C   UNL d   1      27.052 -11.982  -1.798  0.00  0.00     0.067 A 
ATOM      8  C   UNL d   1      26.280 -10.993  -2.655  0.00  0.00     0.020 C 
ATOM      9  N   UNL d   1      25.639 -10.172  -3.366  0.00  0.00    -0.096 N 
ATOM     10  C   UNL d   1      27.789 -11.399  -0.802  0.00  0.00     0.139 A 
ATOM     11  O   UNL d   1      28.291 -12.154   0.289  0.00  0.00    -0.277 OA
ATOM     12  H   UNL d   1      28.140 -16.291   1.480  0.00  0.00     0.189 HD
ENDROOT
BRANCH   6  13
ATOM     13  C   UNL d   1      27.083 -14.089  -3.097  0.00  0.00    -0.011 A 
ATOM     14  C   UNL d   1      28.496 -14.235  -3.217  0.00  0.00     0.014 A 
ATOM     15  C   UNL d   1      29.090 -14.724  -4.390  0.00  0.00     0.037 A 
ATOM     16  C   UNL d   1      28.298 -15.200  -5.422  0.00  0.00     0.070 A 
ATOM     17  C   UNL d   1      26.926 -15.124  -5.289  0.00  0.00     0.074 A 
ATOM     18  C   UNL d   1      26.303 -14.588  -4.168  0.00  0.00     0.078 A 
BRANCH  16  19
ATOM     19  O   UNL d   1      28.907 -15.729  -6.524  0.00  0.00    -0.356 OA
ATOM     20  C   UNL d   1      30.338 -15.702  -6.475  0.00  0.00     0.210 C 
ENDBRANCH  16  19
BRANCH  18  21
ATOM     21  O   UNL d   1      24.961 -14.685  -4.435  0.00  0.00    -0.355 OA
ATOM     22  C   UNL d   1      24.154 -13.700  -3.895  0.00  0.00     0.210 C 
ENDBRANCH  18  21
ENDBRANCH   6  13
BRANCH  10  23
ATOM     23  N   UNL d   1      28.190 -10.069  -0.821  0.00  0.00    -0.282 NA
ATOM     24  H   UNL d   1      27.508  -9.396  -0.467  0.00  0.00     0.126 HD
ATOM     25  H   UNL d   1      28.538  -9.777  -1.733  0.00  0.00     0.126 HD
ENDBRANCH  10  23
BRANCH   1  26
ATOM     26  C   UNL d   1      26.040 -16.411  -0.508  0.00  0.00    -0.007 C 
ATOM     27  C   UNL d   1      24.920 -16.053  -1.255  0.00  0.00     0.016 C 
ATOM     28  C   UNL d   1      23.810 -16.888  -1.330  0.00  0.00     0.037 C 
ATOM     29  C   UNL d   1      23.862 -18.166  -0.789  0.00  0.00     0.068 C 
ATOM     30  C   UNL d   1      25.015 -18.575  -0.119  0.00  0.00     0.037 C 
ATOM     31  C   UNL d   1      26.094 -17.694   0.040  0.00  0.00     0.016 C 
BRANCH  29  32
ATOM     32  O   UNL d   1      22.776 -18.939  -1.077  0.00  0.00    -0.351 OA
BRANCH  32  33
ATOM     33  C   UNL d   1      21.714 -18.935  -0.131  0.00  0.00     0.175 C 
BRANCH  33  34
ATOM     34  C   UNL d   1      20.415 -19.184  -0.894  0.00  0.00     0.022 C 
ATOM     35  C   UNL d   1      19.377 -19.834  -0.000  0.00  0.00     0.007 C 
ENDBRANCH  33  34
ENDBRANCH  32  33
ENDBRANCH  29  32
ENDBRANCH   1  26
TORSDOF 8
ENDMDL
MODEL 2
REMARK VINA RESULT:    -8.275      2.632      5.092
REMARK INTER + INTRA:         -12.686
REMARK INTER:                 -10.662
REMARK INTRA:                  -2.024
REMARK CONF_INDEPENDENT:        2.386
REMARK UNBOUND:                -2.024
REMARK  8 active torsions:
REMARK  status: ('A' for Active; 'I' for Inactive)
REMARK    1  A    between atoms: C_2  and  C_3 
REMARK    2  A    between atoms: C_3  and  O_4 
REMARK    3  A    between atoms: O_4  and  C_5 
REMARK    4  A    between atoms: C_8  and  C_9 
REMARK    5  A    between atoms: C_14  and  C_15 
REMARK    6  A    between atoms: C_18  and  O_19 
REMARK    7  A    between atoms: C_22  and  O_23 
REMARK    8  A    between atoms: C_28  and  N_29 
ROOT
ATOM      1  C   UNL d   1      24.772 -15.440  -2.574  0.00  0.00     0.072 C 
ATOM      2  N   UNL d   1      24.158 -14.449  -3.303  0.00  0.00    -0.274 N 
ATOM      3  N   UNL d   1      24.939 -13.906  -4.268  0.00  0.00    -0.148 NA
ATOM      4  C   UNL d   1      26.088 -14.582  -4.109  0.00  0.00     0.199 A 
ATOM      5  C   UNL d   1      26.095 -15.395  -2.967  0.00  0.00     0.040 A 
ATOM      6  C   UNL d   1      27.341 -16.075  -2.508  0.00  0.00     0.108 A 
ATOM      7  C   UNL d   1      28.477 -15.731  -3.403  0.00  0.00     0.067 A 
ATOM      8  C   UNL d   1      29.699 -16.634  -3.380  0.00  0.00     0.020 C 
ATOM      9  N   UNL d   1      30.714 -17.383  -3.360  0.00  0.00    -0.096 N 
ATOM     10  C   UNL d   1      28.381 -14.953  -4.524  0.00  0.00     0.139 A 
ATOM     11  O   UNL d   1      27.166 -14.314  -4.883  0.00  0.00    -0.277 OA
ATOM     12  H   UNL d   1      23.204 -14.103  -3.206  0.00  0.00     0.189 HD
ENDROOT
BRANCH   6  13
ATOM     13  C   UNL d   1      27.660 -15.677  -1.066  0.00  0.00    -0.011 A 
ATOM     14  C   UNL d   1      28.505 -14.536  -0.936  0.00  0.00     0.014 A 
ATOM     15  C   UNL d   1      28.997 -14.120   0.310  0.00  0.00     0.037 A 
ATOM     16  C   UNL d   1      28.563 -14.742   1.469  0.00  0.00     0.070 A 
ATOM     17  C   UNL d   1      27.693 -15.808   1.359  0.00  0.00     0.074 A 
ATOM     18  C   UNL d   1      27.234 -16.287   0.138  0.00  0.00     0.078 A 
BRANCH  16  19
ATOM     19  O   UNL d   1      29.011 -14.272   2.671  0.00  0.00    -0.356 OA
ATOM     20  C   UNL d   1      30.426 -14.388   2.857  0.00  0.00     0.210 C 
ENDBRANCH  16  19
BRANCH  18  21
ATOM     21  O   UNL d   1      26.416 -17.340   0.462  0.00  0.00    -0.355 OA
ATOM     22  C   UNL d   1      27.028 -18.574   0.598  0.00  0.00     0.210 C 
ENDBRANCH  18  21
ENDBRANCH   6  13
BRANCH  10  23
ATOM     23  N   UNL d   1      29.464 -14.639  -5.337  0.00  0.00    -0.282 NA
ATOM     24  H   UNL d   1      29.334 -13.837  -5.955  0.00  0.00     0.126 HD
ATOM     25  H   UNL d   1      29.805 -15.442  -5.863  0.00  0.00     0.126 HD
ENDBRANCH  10  23
BRANCH   1  26
ATOM     26  C   UNL d   1      24.139 -16.351  -1.640  0.00  0.00    -0.007 C 
ATOM     27  C   UNL d   1      24.477 -17.701  -1.660  0.00  0.00     0.016 C 
ATOM     28  C   UNL d   1      23.647 -18.658  -1.085  0.00  0.00     0.037 C 
ATOM     29  C   UNL d   1      22.541 -18.265  -0.343  0.00  0.00     0.068 C 
ATOM     30  C   UNL d   1      22.242 -16.907  -0.234  0.00  0.00     0.037 C 
ATOM     31  C   UNL d   1      23.026 -15.952  -0.897  0.00  0.00     0.016 C 
BRANCH  29  32
ATOM     32  O   UNL d   1      21.911 -19.286   0.304  0.00  0.00    -0.351 OA
BRANCH  32  33
ATOM     33  C   UNL d   1      20.645 -19.689  -0.206  0.00  0.00     0.175 C 
BRANCH  33  34
ATOM     34  C   UNL d   1      19.692 -19.827   0.978  0.00  0.00     0.022 C 
ATOM     35  C   UNL d   1      18.637 -20.882   0.705  0.00  0.00     0.007 C 
ENDBRANCH  33  34
ENDBRANCH  32  33
ENDBRANCH  29  32
ENDBRANCH   1  26
TORSDOF 8
ENDMDL
MODEL 3
REMARK VINA RESULT:    -8.077      0.995      1.753
REMARK INTER + INTRA:         -12.538
REMARK INTER:                 -10.464
REMARK INTRA:                  -2.074
REMARK CONF_INDEPENDENT:        2.386
REMARK UNBOUND:                -2.074
REMARK  8 active torsions:
REMARK  status: ('A' for Active; 'I' for Inactive)
REMARK    1  A    between atoms: C_2  and  C_3 
REMARK    2  A    between atoms: C_3  and  O_4 
REMARK    3  A    between atoms: O_4  and  C_5 
REMARK    4  A    between atoms: C_8  and  C_9 
REMARK    5  A    between atoms: C_14  and  C_15 
REMARK    6  A    between atoms: C_18  and  O_19 
REMARK    7  A    between atoms: C_22  and  O_23 
REMARK    8  A    between atoms: C_28  and  N_29 
ROOT
ATOM      1  C   UNL d   1      27.095 -15.255   0.157  0.00  0.00     0.072 C 
ATOM      2  N   UNL d   1      27.920 -15.388   1.248  0.00  0.00    -0.274 N 
ATOM      3  N   UNL d   1      28.507 -14.234   1.645  0.00  0.00    -0.148 NA
ATOM      4  C   UNL d   1      28.035 -13.358   0.744  0.00  0.00     0.199 A 
ATOM      5  C   UNL d   1      27.320 -13.969  -0.296  0.00  0.00     0.040 A 
ATOM      6  C   UNL d   1      26.882 -13.196  -1.494  0.00  0.00     0.108 A 
ATOM      7  C   UNL d   1      27.334 -11.784  -1.392  0.00  0.00     0.067 A 
ATOM      8  C   UNL d   1      26.641 -10.750  -2.263  0.00  0.00     0.020 C 
ATOM      9  N   UNL d   1      26.066  -9.891  -2.986  0.00  0.00    -0.096 N 
ATOM     10  C   UNL d   1      28.003 -11.253  -0.323  0.00  0.00     0.139 A 
ATOM     11  O   UNL d   1      28.413 -12.058   0.772  0.00  0.00    -0.277 OA
ATOM     12  H   UNL d   1      28.117 -16.236   1.782  0.00  0.00     0.189 HD
ENDROOT
BRANCH   6  13
ATOM     13  C   UNL d   1      27.431 -13.840  -2.769  0.00  0.00    -0.011 A 
ATOM     14  C   UNL d   1      26.610 -13.671  -3.922  0.00  0.00     0.014 A 
ATOM     15  C   UNL d   1      26.904 -14.308  -5.137  0.00  0.00     0.037 A 
ATOM     16  C   UNL d   1      28.084 -15.020  -5.278  0.00  0.00     0.070 A 
ATOM     17  C   UNL d   1      28.920 -15.135  -4.185  0.00  0.00     0.074 A 
ATOM     18  C   UNL d   1      28.629 -14.570  -2.949  0.00  0.00     0.078 A 
BRANCH  16  19
ATOM     19  O   UNL d   1      28.373 -15.574  -6.492  0.00  0.00    -0.356 OA
ATOM     20  C   UNL d   1      29.769 -15.599  -6.810  0.00  0.00     0.210 C 
ENDBRANCH  16  19
BRANCH  18  21
ATOM     21  O   UNL d   1      29.687 -14.921  -2.148  0.00  0.00    -0.355 OA
ATOM     22  C   UNL d   1      29.770 -16.254  -1.789  0.00  0.00     0.210 C 
ENDBRANCH  18  21
ENDBRANCH   6  13
BRANCH  10  23
ATOM     23  N   UNL d   1      28.423  -9.930  -0.259  0.00  0.00    -0.282 NA
ATOM     24  H   UNL d   1      27.695  -9.228  -0.396  0.00  0.00     0.126 HD
ATOM     25  H   UNL d   1      29.219  -9.742  -0.867  0.00  0.00     0.126 HD
ENDBRANCH  10  23
BRANCH   1  26
ATOM     26  C   UNL d   1      26.167 -16.243  -0.358  0.00  0.00    -0.007 C 
ATOM     27  C   UNL d   1      25.173 -15.852  -1.252  0.00  0.00     0.016 C 
ATOM     28  C   UNL d   1      24.047 -16.642  -1.463  0.00  0.00     0.037 C 
ATOM     29  C   UNL d   1      23.971 -17.910  -0.903  0.00  0.00     0.068 C 
ATOM     30  C   UNL d   1      25.006 -18.354  -0.080  0.00  0.00     0.037 C 
ATOM     31  C   UNL d   1      26.093 -17.516   0.209  0.00  0.00     0.016 C 
BRANCH  29  32
ATOM     32  O   UNL d   1      22.901 -18.643  -1.322  0.00  0.00    -0.351 OA
BRANCH  32  33
ATOM     33  C   UNL d   1      21.615 -18.209  -0.895  0.00  0.00     0.175 C 
BRANCH  33  34
ATOM     34  C   UNL d   1      20.622 -19.323  -1.211  0.00  0.00     0.022 C 
ATOM     35  C   UNL d   1      19.532 -19.393  -0.159  0.00  0.00     0.007 C 
ENDBRANCH  33  34
ENDBRANCH  32  33
ENDBRANCH  29  32
ENDBRANCH   1  26
TORSDOF 8
ENDMDL
MODEL 4
REMARK VINA RESULT:    -8.049      2.883      6.541
REMARK INTER + INTRA:         -12.346
REMARK INTER:                 -10.435
REMARK INTRA:                  -1.911
REMARK CONF_INDEPENDENT:        2.386
REMARK UNBOUND:                -1.911
REMARK  8 active torsions:
REMARK  status: ('A' for Active; 'I' for Inactive)
REMARK    1  A    between atoms: C_2  and  C_3 
REMARK    2  A    between atoms: C_3  and  O_4 
REMARK    3  A    between atoms: O_4  and  C_5 
REMARK    4  A    between atoms: C_8  and  C_9 
REMARK    5  A    between atoms: C_14  and  C_15 
REMARK    6  A    between atoms: C_18  and  O_19 
REMARK    7  A    between atoms: C_22  and  O_23 
REMARK    8  A    between atoms: C_28  and  N_29 
ROOT
ATOM      1  C   UNL d   1      28.869 -15.410  -0.592  0.00  0.00     0.072 C 
ATOM      2  N   UNL d   1      30.071 -15.980  -0.941  0.00  0.00    -0.274 N 
ATOM      3  N   UNL d   1      30.257 -16.109  -2.276  0.00  0.00    -0.148 NA
ATOM      4  C   UNL d   1      29.111 -15.612  -2.767  0.00  0.00     0.199 A 
ATOM      5  C   UNL d   1      28.156 -15.347  -1.774  0.00  0.00     0.040 A 
ATOM      6  C   UNL d   1      26.756 -14.976  -2.126  0.00  0.00     0.108 A 
ATOM      7  C   UNL d   1      26.578 -14.968  -3.602  0.00  0.00     0.067 A 
ATOM      8  C   UNL d   1      25.389 -14.213  -4.172  0.00  0.00     0.020 C 
ATOM      9  N   UNL d   1      24.402 -13.586  -4.645  0.00  0.00    -0.096 N 
ATOM     10  C   UNL d   1      27.573 -15.207  -4.510  0.00  0.00     0.139 A 
ATOM     11  O   UNL d   1      28.879 -15.584  -4.100  0.00  0.00    -0.277 OA
ATOM     12  H   UNL d   1      30.817 -16.293  -0.319  0.00  0.00     0.189 HD
ENDROOT
BRANCH   6  13
ATOM     13  C   UNL d   1      25.771 -15.950  -1.477  0.00  0.00    -0.011 A 
ATOM     14  C   UNL d   1      24.397 -15.610  -1.647  0.00  0.00     0.014 A 
ATOM     15  C   UNL d   1      23.375 -16.326  -1.007  0.00  0.00     0.037 A 
ATOM     16  C   UNL d   1      23.676 -17.471  -0.287  0.00  0.00     0.070 A 
ATOM     17  C   UNL d   1      24.999 -17.846  -0.170  0.00  0.00     0.074 A 
ATOM     18  C   UNL d   1      26.043 -17.127  -0.739  0.00  0.00     0.078 A 
BRANCH  16  19
ATOM     19  O   UNL d   1      22.652 -18.181   0.272  0.00  0.00    -0.356 OA
ATOM     20  C   UNL d   1      21.889 -18.948  -0.666  0.00  0.00     0.210 C 
ENDBRANCH  16  19
BRANCH  18  21
ATOM     21  O   UNL d   1      27.176 -17.815  -0.384  0.00  0.00    -0.355 OA
ATOM     22  C   UNL d   1      27.031 -18.765   0.611  0.00  0.00     0.210 C 
ENDBRANCH  18  21
ENDBRANCH   6  13
BRANCH  10  23
ATOM     23  N   UNL d   1      27.376 -15.204  -5.886  0.00  0.00    -0.282 NA
ATOM     24  H   UNL d   1      28.154 -14.846  -6.443  0.00  0.00     0.126 HD
ATOM     25  H   UNL d   1      26.506 -14.747  -6.156  0.00  0.00     0.126 HD
ENDBRANCH  10  23
BRANCH   1  26
ATOM     26  C   UNL d   1      28.478 -14.941   0.723  0.00  0.00    -0.007 C 
ATOM     27  C   UNL d   1      27.205 -14.411   0.912  0.00  0.00     0.016 C 
ATOM     28  C   UNL d   1      26.919 -13.606   2.011  0.00  0.00     0.037 C 
ATOM     29  C   UNL d   1      27.858 -13.447   3.021  0.00  0.00     0.068 C 
ATOM     30  C   UNL d   1      29.108 -14.053   2.889  0.00  0.00     0.037 C 
ATOM     31  C   UNL d   1      29.426 -14.781   1.735  0.00  0.00     0.016 C 
BRANCH  29  32
ATOM     32  O   UNL d   1      27.395 -12.777   4.115  0.00  0.00    -0.351 OA
BRANCH  32  33
ATOM     33  C   UNL d   1      28.324 -12.538   5.165  0.00  0.00     0.175 C 
BRANCH  33  34
ATOM     34  C   UNL d   1      28.243 -13.715   6.132  0.00  0.00     0.022 C 
ATOM     35  C   UNL d   1      29.573 -14.438   6.220  0.00  0.00     0.007 C 
ENDBRANCH  33  34
ENDBRANCH  32  33
ENDBRANCH  29  32
ENDBRANCH   1  26
TORSDOF 8
ENDMDL
MODEL 5
REMARK VINA RESULT:    -7.906      1.430      1.637
REMARK INTER + INTRA:         -12.235
REMARK INTER:                 -10.292
REMARK INTRA:                  -1.942
REMARK CONF_INDEPENDENT:        2.386
REMARK UNBOUND:                -1.942
REMARK  8 active torsions:
REMARK  status: ('A' for Active; 'I' for Inactive)
REMARK    1  A    between atoms: C_2  and  C_3 
REMARK    2  A    between atoms: C_3  and  O_4 
REMARK    3  A    between atoms: O_4  and  C_5 
REMARK    4  A    between atoms: C_8  and  C_9 
REMARK    5  A    between atoms: C_14  and  C_15 
REMARK    6  A    between atoms: C_18  and  O_19 
REMARK    7  A    between atoms: C_22  and  O_23 
REMARK    8  A    between atoms: C_28  and  N_29 
ROOT
ATOM      1  C   UNL d   1      26.664 -15.105  -0.132  0.00  0.00     0.072 C 
ATOM      2  N   UNL d   1      27.063 -14.732   1.129  0.00  0.00    -0.274 N 
ATOM      3  N   UNL d   1      27.544 -13.468   1.208  0.00  0.00    -0.148 NA
ATOM      4  C   UNL d   1      27.453 -13.056  -0.067  0.00  0.00     0.199 A 
ATOM      5  C   UNL d   1      27.099 -14.083  -0.954  0.00  0.00     0.040 A 
ATOM      6  C   UNL d   1      27.134 -13.877  -2.430  0.00  0.00     0.108 A 
ATOM      7  C   UNL d   1      27.601 -12.503  -2.750  0.00  0.00     0.067 A 
ATOM      8  C   UNL d   1      27.301 -11.953  -4.134  0.00  0.00     0.020 C 
ATOM      9  N   UNL d   1      27.052 -11.497  -5.283  0.00  0.00    -0.096 N 
ATOM     10  C   UNL d   1      27.898 -11.543  -1.822  0.00  0.00     0.139 A 
ATOM     11  O   UNL d   1      27.869 -11.820  -0.430  0.00  0.00    -0.277 OA
ATOM     12  H   UNL d   1      27.022 -15.284   1.986  0.00  0.00     0.189 HD
ENDROOT
BRANCH   6  13
ATOM     13  C   UNL d   1      28.045 -14.916  -3.087  0.00  0.00    -0.011 A 
ATOM     14  C   UNL d   1      29.053 -15.450  -2.233  0.00  0.00     0.014 A 
ATOM     15  C   UNL d   1      30.049 -16.313  -2.715  0.00  0.00     0.037 A 
ATOM     16  C   UNL d   1      29.996 -16.769  -4.022  0.00  0.00     0.070 A 
ATOM     17  C   UNL d   1      28.985 -16.309  -4.841  0.00  0.00     0.074 A 
ATOM     18  C   UNL d   1      28.019 -15.406  -4.415  0.00  0.00     0.078 A 
BRANCH  16  19
ATOM     19  O   UNL d   1      30.943 -17.659  -4.443  0.00  0.00    -0.356 OA
ATOM     20  C   UNL d   1      30.791 -18.079  -5.803  0.00  0.00     0.210 C 
ENDBRANCH  16  19
BRANCH  18  21
ATOM     21  O   UNL d   1      27.224 -15.200  -5.515  0.00  0.00    -0.355 OA
ATOM     22  C   UNL d   1      25.898 -15.575  -5.394  0.00  0.00     0.210 C 
ENDBRANCH  18  21
ENDBRANCH   6  13
BRANCH  10  23
ATOM     23  N   UNL d   1      28.343 -10.268  -2.150  0.00  0.00    -0.282 NA
ATOM     24  H   UNL d   1      28.443 -10.078  -3.148  0.00  0.00     0.126 HD
ATOM     25  H   UNL d   1      29.194 -10.010  -1.651  0.00  0.00     0.126 HD
ENDBRANCH  10  23
BRANCH   1  26
ATOM     26  C   UNL d   1      25.913 -16.292  -0.491  0.00  0.00    -0.007 C 
ATOM     27  C   UNL d   1      24.856 -16.190  -1.393  0.00  0.00     0.016 C 
ATOM     28  C   UNL d   1      23.879 -17.178  -1.468  0.00  0.00     0.037 C 
ATOM     29  C   UNL d   1      24.027 -18.359  -0.754  0.00  0.00     0.068 C 
ATOM     30  C   UNL d   1      25.132 -18.515   0.083  0.00  0.00     0.037 C 
ATOM     31  C   UNL d   1      26.063 -17.477   0.231  0.00  0.00     0.016 C 
BRANCH  29  32
ATOM     32  O   UNL d   1      23.092 -19.309  -1.044  0.00  0.00    -0.351 OA
BRANCH  32  33
ATOM     33  C   UNL d   1      21.751 -18.863  -1.209  0.00  0.00     0.175 C 
BRANCH  33  34
ATOM     34  C   UNL d   1      20.955 -19.331   0.006  0.00  0.00     0.022 C 
ATOM     35  C   UNL d   1      19.533 -19.686  -0.381  0.00  0.00     0.007 C 
ENDBRANCH  33  34
ENDBRANCH  32  33
ENDBRANCH  29  32
ENDBRANCH   1  26
TORSDOF 8
ENDMDL
MODEL 6
REMARK VINA RESULT:    -7.778      2.419      5.141
REMARK INTER + INTRA:         -12.208
REMARK INTER:                 -10.165
REMARK INTRA:                  -2.043
REMARK CONF_INDEPENDENT:        2.386
REMARK UNBOUND:                -2.043
REMARK  8 active torsions:
REMARK  status: ('A' for Active; 'I' for Inactive)
REMARK    1  A    between atoms: C_2  and  C_3 
REMARK    2  A    between atoms: C_3  and  O_4 
REMARK    3  A    between atoms: O_4  and  C_5 
REMARK    4  A    between atoms: C_8  and  C_9 
REMARK    5  A    between atoms: C_14  and  C_15 
REMARK    6  A    between atoms: C_18  and  O_19 
REMARK    7  A    between atoms: C_22  and  O_23 
REMARK    8  A    between atoms: C_28  and  N_29 
ROOT
ATOM      1  C   UNL d   1      24.867 -15.364  -2.689  0.00  0.00     0.072 C 
ATOM      2  N   UNL d   1      24.288 -14.450  -3.537  0.00  0.00    -0.274 N 
ATOM      3  N   UNL d   1      25.093 -14.043  -4.548  0.00  0.00    -0.148 NA
ATOM      4  C   UNL d   1      26.222 -14.725  -4.296  0.00  0.00     0.199 A 
ATOM      5  C   UNL d   1      26.196 -15.399  -3.066  0.00  0.00     0.040 A 
ATOM      6  C   UNL d   1      27.418 -16.051  -2.515  0.00  0.00     0.108 A 
ATOM      7  C   UNL d   1      28.572 -15.843  -3.428  0.00  0.00     0.067 A 
ATOM      8  C   UNL d   1      29.770 -16.767  -3.283  0.00  0.00     0.020 C 
ATOM      9  N   UNL d   1      30.764 -17.534  -3.162  0.00  0.00    -0.096 N 
ATOM     10  C   UNL d   1      28.509 -15.199  -4.633  0.00  0.00     0.139 A 
ATOM     11  O   UNL d   1      27.315 -14.576  -5.082  0.00  0.00    -0.277 OA
ATOM     12  H   UNL d   1      23.342 -14.071  -3.494  0.00  0.00     0.189 HD
ENDROOT
BRANCH   6  13
ATOM     13  C   UNL d   1      27.733 -15.495  -1.125  0.00  0.00    -0.011 A 
ATOM     14  C   UNL d   1      27.600 -16.436  -0.062  0.00  0.00     0.014 A 
ATOM     15  C   UNL d   1      27.727 -16.055   1.282  0.00  0.00     0.037 A 
ATOM     16  C   UNL d   1      28.113 -14.764   1.602  0.00  0.00     0.070 A 
ATOM     17  C   UNL d   1      28.308 -13.860   0.577  0.00  0.00     0.074 A 
ATOM     18  C   UNL d   1      28.131 -14.186  -0.762  0.00  0.00     0.078 A 
BRANCH  16  19
ATOM     19  O   UNL d   1      28.289 -14.441   2.918  0.00  0.00    -0.356 OA
ATOM     20  C   UNL d   1      27.392 -13.436   3.402  0.00  0.00     0.210 C 
ENDBRANCH  16  19
BRANCH  18  21
ATOM     21  O   UNL d   1      28.407 -13.027  -1.443  0.00  0.00    -0.355 OA
ATOM     22  C   UNL d   1      27.327 -12.212  -1.731  0.00  0.00     0.210 C 
ENDBRANCH  18  21
ENDBRANCH   6  13
BRANCH  10  23
ATOM     23  N   UNL d   1      29.608 -15.010  -5.463  0.00  0.00    -0.282 NA
ATOM     24  H   UNL d   1      30.056 -15.862  -5.803  0.00  0.00     0.126 HD
ATOM     25  H   UNL d   1      30.300 -14.380  -5.059  0.00  0.00     0.126 HD
ENDBRANCH  10  23
BRANCH   1  26
ATOM     26  C   UNL d   1      24.201 -16.142  -1.664  0.00  0.00    -0.007 C 
ATOM     27  C   UNL d   1      24.759 -17.348  -1.244  0.00  0.00     0.016 C 
ATOM     28  C   UNL d   1      23.992 -18.300  -0.580  0.00  0.00     0.037 C 
ATOM     29  C   UNL d   1      22.696 -17.999  -0.185  0.00  0.00     0.068 C 
ATOM     30  C   UNL d   1      22.155 -16.756  -0.515  0.00  0.00     0.037 C 
ATOM     31  C   UNL d   1      22.897 -15.837  -1.270  0.00  0.00     0.016 C 
BRANCH  29  32
ATOM     32  O   UNL d   1      22.116 -18.950   0.602  0.00  0.00    -0.351 OA
BRANCH  32  33
ATOM     33  C   UNL d   1      20.901 -19.522   0.131  0.00  0.00     0.175 C 
BRANCH  33  34
ATOM     34  C   UNL d   1      20.089 -19.950   1.351  0.00  0.00     0.022 C 
ATOM     35  C   UNL d   1      18.810 -20.648   0.933  0.00  0.00     0.007 C 
ENDBRANCH  33  34
ENDBRANCH  32  33
ENDBRANCH  29  32
ENDBRANCH   1  26
TORSDOF 8
ENDMDL
MODEL 7
REMARK VINA RESULT:    -7.723      2.997      4.867
REMARK INTER + INTRA:         -12.230
REMARK INTER:                 -10.109
REMARK INTRA:                  -2.120
REMARK CONF_INDEPENDENT:        2.386
REMARK UNBOUND:                -2.120
REMARK  8 active torsions:
REMARK  status: ('A' for Active; 'I' for Inactive)
REMARK    1  A    between atoms: C_2  and  C_3 
REMARK    2  A    between atoms: C_3  and  O_4 
REMARK    3  A    between atoms: O_4  and  C_5 
REMARK    4  A    between atoms: C_8  and  C_9 
REMARK    5  A    between atoms: C_14  and  C_15 
REMARK    6  A    between atoms: C_18  and  O_19 
REMARK    7  A    between atoms: C_22  and  O_23 
REMARK    8  A    between atoms: C_28  and  N_29 
ROOT
ATOM      1  C   UNL d   1      26.093 -14.456  -3.434  0.00  0.00     0.072 C 
ATOM      2  N   UNL d   1      25.424 -13.277  -3.662  0.00  0.00    -0.274 N 
ATOM      3  N   UNL d   1      25.797 -12.638  -4.796  0.00  0.00    -0.148 NA
ATOM      4  C   UNL d   1      26.750 -13.453  -5.275  0.00  0.00     0.199 A 
ATOM      5  C   UNL d   1      27.097 -14.477  -4.382  0.00  0.00     0.040 A 
ATOM      6  C   UNL d   1      28.265 -15.368  -4.641  0.00  0.00     0.108 A 
ATOM      7  C   UNL d   1      28.944 -14.976  -5.904  0.00  0.00     0.067 A 
ATOM      8  C   UNL d   1      29.860 -15.992  -6.565  0.00  0.00     0.020 C 
ATOM      9  N   UNL d   1      30.621 -16.835  -7.113  0.00  0.00    -0.096 N 
ATOM     10  C   UNL d   1      28.521 -13.980  -6.742  0.00  0.00     0.139 A 
ATOM     11  O   UNL d   1      27.415 -13.153  -6.415  0.00  0.00    -0.277 OA
ATOM     12  H   UNL d   1      24.690 -12.856  -3.091  0.00  0.00     0.189 HD
ENDROOT
BRANCH   6  13
ATOM     13  C   UNL d   1      29.247 -15.308  -3.470  0.00  0.00    -0.011 A 
ATOM     14  C   UNL d   1      30.275 -14.330  -3.603  0.00  0.00     0.014 A 
ATOM     15  C   UNL d   1      31.328 -14.234  -2.681  0.00  0.00     0.037 A 
ATOM     16  C   UNL d   1      31.320 -15.017  -1.537  0.00  0.00     0.070 A 
ATOM     17  C   UNL d   1      30.293 -15.922  -1.365  0.00  0.00     0.074 A 
ATOM     18  C   UNL d   1      29.267 -16.088  -2.289  0.00  0.00     0.078 A 
BRANCH  16  19
ATOM     19  O   UNL d   1      32.326 -14.855  -0.627  0.00  0.00    -0.356 OA
ATOM     20  C   UNL d   1      32.265 -15.759   0.481  0.00  0.00     0.210 C 
ENDBRANCH  16  19
BRANCH  18  21
ATOM     21  O   UNL d   1      28.476 -17.075  -1.757  0.00  0.00    -0.355 OA
ATOM     22  C   UNL d   1      28.444 -17.161  -0.378  0.00  0.00     0.210 C 
ENDBRANCH  18  21
ENDBRANCH   6  13
BRANCH  10  23
ATOM     23  N   UNL d   1      29.182 -13.628  -7.913  0.00  0.00    -0.282 NA
ATOM     24  H   UNL d   1      28.631 -13.700  -8.770  0.00  0.00     0.126 HD
ATOM     25  H   UNL d   1      30.073 -14.110  -8.021  0.00  0.00     0.126 HD
ENDBRANCH  10  23
BRANCH   1  26
ATOM     26  C   UNL d   1      25.768 -15.463  -2.442  0.00  0.00    -0.007 C 
ATOM     27  C   UNL d   1      25.155 -16.648  -2.841  0.00  0.00     0.016 C 
ATOM     28  C   UNL d   1      24.479 -17.450  -1.927  0.00  0.00     0.037 C 
ATOM     29  C   UNL d   1      24.539 -17.161  -0.570  0.00  0.00     0.068 C 
ATOM     30  C   UNL d   1      25.232 -16.027  -0.145  0.00  0.00     0.037 C 
ATOM     31  C   UNL d   1      25.828 -15.168  -1.079  0.00  0.00     0.016 C 
BRANCH  29  32
ATOM     32  O   UNL d   1      23.980 -18.114   0.230  0.00  0.00    -0.351 OA
BRANCH  32  33
ATOM     33  C   UNL d   1      23.137 -19.070  -0.401  0.00  0.00     0.175 C 
BRANCH  33  34
ATOM     34  C   UNL d   1      21.768 -18.425  -0.594  0.00  0.00     0.022 C 
ATOM     35  C   UNL d   1      20.657 -19.380  -0.202  0.00  0.00     0.007 C 
ENDBRANCH  33  34
ENDBRANCH  32  33
ENDBRANCH  29  32
ENDBRANCH   1  26
TORSDOF 8
ENDMDL
MODEL 8
REMARK VINA RESULT:    -7.454      1.934      3.178
REMARK INTER + INTRA:         -11.832
REMARK INTER:                  -9.840
REMARK INTRA:                  -1.991
REMARK CONF_INDEPENDENT:        2.386
REMARK UNBOUND:                -1.991
REMARK  8 active torsions:
REMARK  status: ('A' for Active; 'I' for Inactive)
REMARK    1  A    between atoms: C_2  and  C_3 
REMARK    2  A    between atoms: C_3  and  O_4 
REMARK    3  A    between atoms: O_4  and  C_5 
REMARK    4  A    between atoms: C_8  and  C_9 
REMARK    5  A    between atoms: C_14  and  C_15 
REMARK    6  A    between atoms: C_18  and  O_19 
REMARK    7  A    between atoms: C_22  and  O_23 
REMARK    8  A    between atoms: C_28  and  N_29 
ROOT
ATOM      1  C   UNL d   1      27.230 -16.899  -0.344  0.00  0.00     0.072 C 
ATOM      2  N   UNL d   1      28.109 -17.956  -0.366  0.00  0.00    -0.274 N 
ATOM      3  N   UNL d   1      29.399 -17.609  -0.145  0.00  0.00    -0.148 NA
ATOM      4  C   UNL d   1      29.309 -16.278   0.001  0.00  0.00     0.199 A 
ATOM      5  C   UNL d   1      28.034 -15.777  -0.299  0.00  0.00     0.040 A 
ATOM      6  C   UNL d   1      27.780 -14.310  -0.387  0.00  0.00     0.108 A 
ATOM      7  C   UNL d   1      29.035 -13.552  -0.143  0.00  0.00     0.067 A 
ATOM      8  C   UNL d   1      28.918 -12.086   0.239  0.00  0.00     0.020 C 
ATOM      9  N   UNL d   1      28.821 -10.869   0.556  0.00  0.00    -0.096 N 
ATOM     10  C   UNL d   1      30.239 -14.116   0.179  0.00  0.00     0.139 A 
ATOM     11  O   UNL d   1      30.413 -15.525   0.216  0.00  0.00    -0.277 OA
ATOM     12  H   UNL d   1      27.894 -18.943  -0.512  0.00  0.00     0.189 HD
ENDROOT
BRANCH   6  13
ATOM     13  C   UNL d   1      27.202 -13.954  -1.759  0.00  0.00    -0.011 A 
ATOM     14  C   UNL d   1      26.589 -12.669  -1.832  0.00  0.00     0.014 A 
ATOM     15  C   UNL d   1      25.900 -12.245  -2.977  0.00  0.00     0.037 A 
ATOM     16  C   UNL d   1      25.909 -13.026  -4.121  0.00  0.00     0.070 A 
ATOM     17  C   UNL d   1      26.557 -14.244  -4.082  0.00  0.00     0.074 A 
ATOM     18  C   UNL d   1      27.197 -14.724  -2.946  0.00  0.00     0.078 A 
BRANCH  16  19
ATOM     19  O   UNL d   1      25.283 -12.555  -5.240  0.00  0.00    -0.356 OA
ATOM     20  C   UNL d   1      25.859 -11.360  -5.778  0.00  0.00     0.210 C 
ENDBRANCH  16  19
BRANCH  18  21
ATOM     21  O   UNL d   1      27.691 -15.950  -3.316  0.00  0.00    -0.355 OA
ATOM     22  C   UNL d   1      29.044 -16.008  -3.597  0.00  0.00     0.210 C 
ENDBRANCH  18  21
ENDBRANCH   6  13
BRANCH  10  23
ATOM     23  N   UNL d   1      31.400 -13.383   0.392  0.00  0.00    -0.282 NA
ATOM     24  H   UNL d   1      31.900 -13.589   1.258  0.00  0.00     0.126 HD
ATOM     25  H   UNL d   1      31.253 -12.379   0.296  0.00  0.00     0.126 HD
ENDBRANCH  10  23
BRANCH   1  26
ATOM     26  C   UNL d   1      25.782 -16.972  -0.323  0.00  0.00    -0.007 C 
ATOM     27  C   UNL d   1      25.158 -18.097   0.209  0.00  0.00     0.016 C 
ATOM     28  C   UNL d   1      23.833 -18.395  -0.096  0.00  0.00     0.037 C 
ATOM     29  C   UNL d   1      23.063 -17.487  -0.811  0.00  0.00     0.068 C 
ATOM     30  C   UNL d   1      23.650 -16.308  -1.270  0.00  0.00     0.037 C 
ATOM     31  C   UNL d   1      25.011 -16.059  -1.045  0.00  0.00     0.016 C 
BRANCH  29  32
ATOM     32  O   UNL d   1      21.743 -17.819  -0.895  0.00  0.00    -0.351 OA
BRANCH  32  33
ATOM     33  C   UNL d   1      21.357 -19.072  -0.343  0.00  0.00     0.175 C 
BRANCH  33  34
ATOM     34  C   UNL d   1      19.973 -19.412  -0.888  0.00  0.00     0.022 C 
ATOM     35  C   UNL d   1      19.125 -20.094   0.169  0.00  0.00     0.007 C 
ENDBRANCH  33  34
ENDBRANCH  32  33
ENDBRANCH  29  32
ENDBRANCH   1  26
TORSDOF 8
ENDMDL
MODEL 9
REMARK VINA RESULT:    -7.361      2.720      6.399
REMARK INTER + INTRA:         -11.597
REMARK INTER:                  -9.747
REMARK INTRA:                  -1.850
REMARK CONF_INDEPENDENT:        2.386
REMARK UNBOUND:                -1.850
REMARK  8 active torsions:
REMARK  status: ('A' for Active; 'I' for Inactive)
REMARK    1  A    between atoms: C_2  and  C_3 
REMARK    2  A    between atoms: C_3  and  O_4 
REMARK    3  A    between atoms: O_4  and  C_5 
REMARK    4  A    between atoms: C_8  and  C_9 
REMARK    5  A    between atoms: C_14  and  C_15 
REMARK    6  A    between atoms: C_18  and  O_19 
REMARK    7  A    between atoms: C_22  and  O_23 
REMARK    8  A    between atoms: C_28  and  N_29 
ROOT
ATOM      1  C   UNL d   1      29.007 -15.214   0.339  0.00  0.00     0.072 C 
ATOM      2  N   UNL d   1      30.115 -15.903   0.774  0.00  0.00    -0.274 N 
ATOM      3  N   UNL d   1      30.801 -16.530  -0.212  0.00  0.00    -0.148 NA
ATOM      4  C   UNL d   1      30.069 -16.227  -1.296  0.00  0.00     0.199 A 
ATOM      5  C   UNL d   1      28.862 -15.585  -0.984  0.00  0.00     0.040 A 
ATOM      6  C   UNL d   1      27.823 -15.341  -2.025  0.00  0.00     0.108 A 
ATOM      7  C   UNL d   1      28.265 -15.886  -3.335  0.00  0.00     0.067 A 
ATOM      8  C   UNL d   1      27.576 -15.373  -4.588  0.00  0.00     0.020 C 
ATOM      9  N   UNL d   1      27.004 -14.948  -5.629  0.00  0.00    -0.096 N 
ATOM     10  C   UNL d   1      29.479 -16.473  -3.568  0.00  0.00     0.139 A 
ATOM     11  O   UNL d   1      30.408 -16.698  -2.519  0.00  0.00    -0.277 OA
ATOM     12  H   UNL d   1      30.471 -15.975   1.727  0.00  0.00     0.189 HD
ENDROOT
BRANCH   6  13
ATOM     13  C   UNL d   1      26.495 -15.975  -1.606  0.00  0.00    -0.011 A 
ATOM     14  C   UNL d   1      26.597 -16.932  -0.555  0.00  0.00     0.014 A 
ATOM     15  C   UNL d   1      25.495 -17.696  -0.143  0.00  0.00     0.037 A 
ATOM     16  C   UNL d   1      24.239 -17.443  -0.672  0.00  0.00     0.070 A 
ATOM     17  C   UNL d   1      24.118 -16.472  -1.645  0.00  0.00     0.074 A 
ATOM     18  C   UNL d   1      25.198 -15.739  -2.121  0.00  0.00     0.078 A 
BRANCH  16  19
ATOM     19  O   UNL d   1      23.175 -18.161  -0.204  0.00  0.00    -0.356 OA
ATOM     20  C   UNL d   1      22.513 -18.947  -1.201  0.00  0.00     0.210 C 
ENDBRANCH  16  19
BRANCH  18  21
ATOM     21  O   UNL d   1      24.662 -14.905  -3.071  0.00  0.00    -0.355 OA
ATOM     22  C   UNL d   1      25.156 -13.614  -3.106  0.00  0.00     0.210 C 
ENDBRANCH  18  21
ENDBRANCH   6  13
BRANCH  10  23
ATOM     23  N   UNL d   1      29.862 -16.984  -4.802  0.00  0.00    -0.282 NA
ATOM     24  H   UNL d   1      29.142 -16.978  -5.525  0.00  0.00     0.126 HD
ATOM     25  H   UNL d   1      30.286 -17.908  -4.729  0.00  0.00     0.126 HD
ENDBRANCH  10  23
BRANCH   1  26
ATOM     26  C   UNL d   1      28.211 -14.275   1.105  0.00  0.00    -0.007 C 
ATOM     27  C   UNL d   1      27.728 -13.123   0.491  0.00  0.00     0.016 C 
ATOM     28  C   UNL d   1      27.315 -12.028   1.243  0.00  0.00     0.037 C 
ATOM     29  C   UNL d   1      27.230 -12.125   2.626  0.00  0.00     0.068 C 
ATOM     30  C   UNL d   1      27.621 -13.310   3.250  0.00  0.00     0.037 C 
ATOM     31  C   UNL d   1      28.130 -14.376   2.495  0.00  0.00     0.016 C 
BRANCH  29  32
ATOM     32  O   UNL d   1      26.653 -11.046   3.228  0.00  0.00    -0.351 OA
BRANCH  32  33
ATOM     33  C   UNL d   1      26.925  -9.770   2.661  0.00  0.00     0.175 C 
BRANCH  33  34
ATOM     34  C   UNL d   1      25.614  -9.221   2.106  0.00  0.00     0.022 C 
ATOM     35  C   UNL d   1      25.860  -8.000   1.241  0.00  0.00     0.007 C 
ENDBRANCH  33  34
ENDBRANCH  32  33
ENDBRANCH  29  32
ENDBRANCH   1  26
TORSDOF 8
ENDMDL
