MODEL 1
REMARK VINA RESULT:    -9.738      0.000      0.000
REMARK INTER + INTRA:         -14.979
REMARK INTER:                 -13.020
REMARK INTRA:                  -1.960
REMARK CONF_INDEPENDENT:        3.281
REMARK UNBOUND:                -1.960
REMARK  11 active torsions:
REMARK  status: ('A' for Active; 'I' for Inactive)
REMARK    1  A    between atoms: C_2  and  C_3 
REMARK    2  A    between atoms: C_3  and  C_4 
REMARK    3  A    between atoms: C_4  and  O_5 
REMARK    4  A    between atoms: O_5  and  C_6 
REMARK    5  A    between atoms: C_11  and  C_12 
REMARK       I    between atoms: C_12  and  N_14 
REMARK    6  A    between atoms: N_14  and  C_15 
REMARK    7  A    between atoms: C_15  and  N_17 
REMARK    8  A    between atoms: N_17  and  N_18 
REMARK       I    between atoms: N_18  and  C_19 
REMARK    9  A    between atoms: C_19  and  C_21 
REMARK   10  A    between atoms: C_24  and  N_25 
REMARK       I    between atoms: N_25  and  C_26 
REMARK   11  A    between atoms: C_26  and  C_28 
ROOT
ATOM      1  N   UNL d   1      27.637 -14.569  -0.841  0.00  0.00    -0.273 N 
ATOM      2  H   UNL d   1      27.550 -13.773  -1.472  0.00  0.00     0.189 HD
ENDROOT
BRANCH   1   3
ATOM      3  C   UNL d   1      28.784 -14.907  -0.089  0.00  0.00     0.193 C 
ATOM      4  S   UNL d   1      30.224 -15.246  -0.900  0.00  0.00    -0.039 SA
BRANCH   3   5
ATOM      5  N   UNL d   1      28.626 -14.941   1.323  0.00  0.00    -0.298 N 
ATOM      6  C   UNL d   1      27.735 -14.133   2.089  0.00  0.00     0.260 C 
ATOM      7  O   UNL d   1      26.720 -13.628   1.612  0.00  0.00    -0.267 OA
ATOM      8  H   UNL d   1      29.318 -15.442   1.865  0.00  0.00     0.171 HD
BRANCH   6   9
ATOM      9  C   UNL d   1      27.944 -13.853   3.564  0.00  0.00     0.065 A 
ATOM     10  C   UNL d   1      28.426 -14.941   4.346  0.00  0.00     0.020 A 
ATOM     11  C   UNL d   1      28.727 -14.826   5.710  0.00  0.00     0.001 A 
ATOM     12  C   UNL d   1      28.555 -13.605   6.339  0.00  0.00     0.003 A 
ATOM     13  C   UNL d   1      27.998 -12.543   5.619  0.00  0.00     0.038 A 
ATOM     14  C   UNL d   1      27.677 -12.662   4.244  0.00  0.00     0.084 A 
BRANCH  14  15
ATOM     15  O   UNL d   1      27.245 -11.513   3.654  0.00  0.00    -0.350 OA
BRANCH  15  16
ATOM     16  C   UNL d   1      27.495 -10.294   4.360  0.00  0.00     0.175 C 
BRANCH  16  17
ATOM     17  C   UNL d   1      26.904  -9.208   3.469  0.00  0.00     0.026 C 
BRANCH  17  18
ATOM     18  C   UNL d   1      26.659  -9.716   2.059  0.00  0.00    -0.002 C 
ATOM     19  C   UNL d   1      26.060  -8.614   1.210  0.00  0.00     0.005 C 
ENDBRANCH  17  18
ENDBRANCH  16  17
ENDBRANCH  15  16
ENDBRANCH  14  15
ENDBRANCH   6   9
ENDBRANCH   3   5
ENDBRANCH   1   3
BRANCH   1  20
ATOM     20  N   UNL d   1      26.351 -15.179  -0.490  0.00  0.00    -0.264 N 
ATOM     21  C   UNL d   1      25.563 -15.846  -1.416  0.00  0.00     0.270 C 
ATOM     22  O   UNL d   1      25.719 -15.781  -2.641  0.00  0.00    -0.266 OA
ATOM     23  H   UNL d   1      26.228 -15.329   0.510  0.00  0.00     0.190 HD
BRANCH  21  24
ATOM     24  C   UNL d   1      24.478 -16.738  -0.922  0.00  0.00     0.033 A 
ATOM     25  C   UNL d   1      24.778 -18.051  -0.506  0.00  0.00     0.019 A 
ATOM     26  C   UNL d   1      23.763 -18.948  -0.100  0.00  0.00     0.030 A 
ATOM     27  C   UNL d   1      22.431 -18.521  -0.050  0.00  0.00     0.034 A 
ATOM     28  C   UNL d   1      22.159 -17.228  -0.519  0.00  0.00     0.030 A 
ATOM     29  C   UNL d   1      23.152 -16.340  -0.945  0.00  0.00     0.019 A 
BRANCH  27  30
ATOM     30  N   UNL d   1      21.410 -19.366   0.492  0.00  0.00    -0.327 N 
ATOM     31  C   UNL d   1      20.341 -19.863  -0.250  0.00  0.00     0.225 C 
ATOM     32  O   UNL d   1      20.197 -19.690  -1.460  0.00  0.00    -0.273 OA
ATOM     33  H   UNL d   1      21.430 -19.536   1.492  0.00  0.00     0.169 HD
BRANCH  31  34
ATOM     34  C   UNL d   1      19.283 -20.687   0.486  0.00  0.00     0.070 C 
ATOM     35  C   UNL d   1      18.873 -20.053   1.808  0.00  0.00     0.019 C 
ATOM     36  C   UNL d   1      18.039 -20.778  -0.422  0.00  0.00     0.019 C 
ENDBRANCH  31  34
ENDBRANCH  27  30
ENDBRANCH  21  24
ENDBRANCH   1  20
TORSDOF 11
ENDMDL
MODEL 2
REMARK VINA RESULT:    -9.543      5.084      8.281
REMARK INTER + INTRA:         -14.449
REMARK INTER:                 -12.824
REMARK INTRA:                  -1.625
REMARK CONF_INDEPENDENT:        3.281
REMARK UNBOUND:                -1.625
REMARK  11 active torsions:
REMARK  status: ('A' for Active; 'I' for Inactive)
REMARK    1  A    between atoms: C_2  and  C_3 
REMARK    2  A    between atoms: C_3  and  C_4 
REMARK    3  A    between atoms: C_4  and  O_5 
REMARK    4  A    between atoms: O_5  and  C_6 
REMARK    5  A    between atoms: C_11  and  C_12 
REMARK       I    between atoms: C_12  and  N_14 
REMARK    6  A    between atoms: N_14  and  C_15 
REMARK    7  A    between atoms: C_15  and  N_17 
REMARK    8  A    between atoms: N_17  and  N_18 
REMARK       I    between atoms: N_18  and  C_19 
REMARK    9  A    between atoms: C_19  and  C_21 
REMARK   10  A    between atoms: C_24  and  N_25 
REMARK       I    between atoms: N_25  and  C_26 
REMARK   11  A    between atoms: C_26  and  C_28 
ROOT
ATOM      1  N   UNL d   1      26.627 -14.952  -3.524  0.00  0.00    -0.273 N 
ATOM      2  H   UNL d   1      27.631 -15.035  -3.375  0.00  0.00     0.189 HD
ENDROOT
BRANCH   1   3
ATOM      3  C   UNL d   1      25.999 -14.166  -4.516  0.00  0.00     0.193 C 
ATOM      4  S   UNL d   1      24.412 -13.650  -4.269  0.00  0.00    -0.039 SA
BRANCH   3   5
ATOM      5  N   UNL d   1      26.772 -13.872  -5.672  0.00  0.00    -0.298 N 
ATOM      6  C   UNL d   1      27.989 -14.510  -6.054  0.00  0.00     0.260 C 
ATOM      7  O   UNL d   1      28.290 -15.643  -5.683  0.00  0.00    -0.267 OA
ATOM      8  H   UNL d   1      26.557 -13.026  -6.182  0.00  0.00     0.171 HD
BRANCH   6   9
ATOM      9  C   UNL d   1      29.001 -13.860  -6.978  0.00  0.00     0.065 A 
ATOM     10  C   UNL d   1      28.502 -12.836  -7.832  0.00  0.00     0.020 A 
ATOM     11  C   UNL d   1      29.321 -12.099  -8.698  0.00  0.00     0.001 A 
ATOM     12  C   UNL d   1      30.679 -12.366  -8.735  0.00  0.00     0.003 A 
ATOM     13  C   UNL d   1      31.183 -13.427  -7.975  0.00  0.00     0.038 A 
ATOM     14  C   UNL d   1      30.353 -14.185  -7.111  0.00  0.00     0.084 A 
BRANCH  14  15
ATOM     15  O   UNL d   1      31.006 -15.112  -6.356  0.00  0.00    -0.350 OA
BRANCH  15  16
ATOM     16  C   UNL d   1      31.678 -16.158  -7.063  0.00  0.00     0.175 C 
BRANCH  16  17
ATOM     17  C   UNL d   1      30.657 -17.288  -7.134  0.00  0.00     0.026 C 
BRANCH  17  18
ATOM     18  C   UNL d   1      30.963 -18.381  -6.126  0.00  0.00    -0.002 C 
ATOM     19  C   UNL d   1      30.795 -19.740  -6.770  0.00  0.00     0.005 C 
ENDBRANCH  17  18
ENDBRANCH  16  17
ENDBRANCH  15  16
ENDBRANCH  14  15
ENDBRANCH   6   9
ENDBRANCH   3   5
ENDBRANCH   1   3
BRANCH   1  20
ATOM     20  N   UNL d   1      25.847 -15.989  -2.839  0.00  0.00    -0.264 N 
ATOM     21  C   UNL d   1      25.549 -15.927  -1.487  0.00  0.00     0.270 C 
ATOM     22  O   UNL d   1      26.099 -15.163  -0.684  0.00  0.00    -0.266 OA
ATOM     23  H   UNL d   1      25.310 -16.581  -3.470  0.00  0.00     0.190 HD
BRANCH  21  24
ATOM     24  C   UNL d   1      24.468 -16.800  -0.952  0.00  0.00     0.033 A 
ATOM     25  C   UNL d   1      24.752 -18.128  -0.576  0.00  0.00     0.019 A 
ATOM     26  C   UNL d   1      23.735 -19.006  -0.134  0.00  0.00     0.030 A 
ATOM     27  C   UNL d   1      22.420 -18.544  -0.006  0.00  0.00     0.034 A 
ATOM     28  C   UNL d   1      22.160 -17.235  -0.437  0.00  0.00     0.030 A 
ATOM     29  C   UNL d   1      23.154 -16.366  -0.898  0.00  0.00     0.019 A 
BRANCH  27  30
ATOM     30  N   UNL d   1      21.406 -19.372   0.574  0.00  0.00    -0.327 N 
ATOM     31  C   UNL d   1      20.313 -19.869  -0.133  0.00  0.00     0.225 C 
ATOM     32  O   UNL d   1      20.139 -19.710  -1.341  0.00  0.00    -0.273 OA
ATOM     33  H   UNL d   1      21.451 -19.529   1.575  0.00  0.00     0.169 HD
BRANCH  31  34
ATOM     34  C   UNL d   1      19.267 -20.673   0.641  0.00  0.00     0.070 C 
ATOM     35  C   UNL d   1      18.847 -19.982   1.931  0.00  0.00     0.019 C 
ATOM     36  C   UNL d   1      18.025 -20.826  -0.262  0.00  0.00     0.019 C 
ENDBRANCH  31  34
ENDBRANCH  27  30
ENDBRANCH  21  24
ENDBRANCH   1  20
TORSDOF 11
ENDMDL
MODEL 3
REMARK VINA RESULT:    -9.027      5.122      8.266
REMARK INTER + INTRA:         -14.731
REMARK INTER:                 -12.309
REMARK INTRA:                  -2.422
REMARK CONF_INDEPENDENT:        3.281
REMARK UNBOUND:                -2.422
REMARK  11 active torsions:
REMARK  status: ('A' for Active; 'I' for Inactive)
REMARK    1  A    between atoms: C_2  and  C_3 
REMARK    2  A    between atoms: C_3  and  C_4 
REMARK    3  A    between atoms: C_4  and  O_5 
REMARK    4  A    between atoms: O_5  and  C_6 
REMARK    5  A    between atoms: C_11  and  C_12 
REMARK       I    between atoms: C_12  and  N_14 
REMARK    6  A    between atoms: N_14  and  C_15 
REMARK    7  A    between atoms: C_15  and  N_17 
REMARK    8  A    between atoms: N_17  and  N_18 
REMARK       I    between atoms: N_18  and  C_19 
REMARK    9  A    between atoms: C_19  and  C_21 
REMARK   10  A    between atoms: C_24  and  N_25 
REMARK       I    between atoms: N_25  and  C_26 
REMARK   11  A    between atoms: C_26  and  C_28 
ROOT
ATOM      1  N   UNL d   1      27.805 -15.948  -2.946  0.00  0.00    -0.273 N 
ATOM      2  H   UNL d   1      27.471 -15.211  -3.565  0.00  0.00     0.189 HD
ENDROOT
BRANCH   1   3
ATOM      3  C   UNL d   1      29.158 -16.274  -2.701  0.00  0.00     0.193 C 
ATOM      4  S   UNL d   1      29.631 -16.680  -1.133  0.00  0.00    -0.039 SA
BRANCH   3   5
ATOM      5  N   UNL d   1      30.032 -16.226  -3.821  0.00  0.00    -0.298 N 
ATOM      6  C   UNL d   1      29.643 -16.089  -5.186  0.00  0.00     0.260 C 
ATOM      7  O   UNL d   1      28.575 -15.580  -5.524  0.00  0.00    -0.267 OA
ATOM      8  H   UNL d   1      30.998 -16.490  -3.678  0.00  0.00     0.171 HD
BRANCH   6   9
ATOM      9  C   UNL d   1      30.525 -16.527  -6.339  0.00  0.00     0.065 A 
ATOM     10  C   UNL d   1      31.276 -15.500  -6.977  0.00  0.00     0.020 A 
ATOM     11  C   UNL d   1      32.181 -15.752  -8.017  0.00  0.00     0.001 A 
ATOM     12  C   UNL d   1      32.366 -17.053  -8.452  0.00  0.00     0.003 A 
ATOM     13  C   UNL d   1      31.575 -18.070  -7.906  0.00  0.00     0.038 A 
ATOM     14  C   UNL d   1      30.647 -17.815  -6.866  0.00  0.00     0.084 A 
BRANCH  14  15
ATOM     15  O   UNL d   1      30.030 -18.920  -6.362  0.00  0.00    -0.350 OA
BRANCH  15  16
ATOM     16  C   UNL d   1      30.846 -20.079  -6.170  0.00  0.00     0.175 C 
BRANCH  16  17
ATOM     17  C   UNL d   1      30.743 -20.375  -4.678  0.00  0.00     0.026 C 
BRANCH  17  18
ATOM     18  C   UNL d   1      31.168 -19.180  -3.842  0.00  0.00    -0.002 C 
ATOM     19  C   UNL d   1      32.643 -19.277  -3.515  0.00  0.00     0.005 C 
ENDBRANCH  17  18
ENDBRANCH  16  17
ENDBRANCH  15  16
ENDBRANCH  14  15
ENDBRANCH   6   9
ENDBRANCH   3   5
ENDBRANCH   1   3
BRANCH   1  20
ATOM     20  N   UNL d   1      26.774 -16.458  -2.035  0.00  0.00    -0.264 N 
ATOM     21  C   UNL d   1      25.433 -16.135  -2.170  0.00  0.00     0.270 C 
ATOM     22  O   UNL d   1      25.003 -15.216  -2.879  0.00  0.00    -0.266 OA
ATOM     23  H   UNL d   1      27.068 -17.274  -1.500  0.00  0.00     0.190 HD
BRANCH  21  24
ATOM     24  C   UNL d   1      24.422 -16.963  -1.456  0.00  0.00     0.033 A 
ATOM     25  C   UNL d   1      23.117 -16.470  -1.257  0.00  0.00     0.019 A 
ATOM     26  C   UNL d   1      22.155 -17.199  -0.521  0.00  0.00     0.030 A 
ATOM     27  C   UNL d   1      22.472 -18.467  -0.018  0.00  0.00     0.034 A 
ATOM     28  C   UNL d   1      23.793 -18.906  -0.187  0.00  0.00     0.030 A 
ATOM     29  C   UNL d   1      24.759 -18.183  -0.894  0.00  0.00     0.019 A 
BRANCH  27  30
ATOM     30  N   UNL d   1      21.471 -19.280   0.604  0.00  0.00    -0.327 N 
ATOM     31  C   UNL d   1      20.415 -19.871  -0.084  0.00  0.00     0.225 C 
ATOM     32  O   UNL d   1      20.267 -19.818  -1.305  0.00  0.00    -0.273 OA
ATOM     33  H   UNL d   1      21.495 -19.352   1.616  0.00  0.00     0.169 HD
BRANCH  31  34
ATOM     34  C   UNL d   1      19.376 -20.645   0.729  0.00  0.00     0.070 C 
ATOM     35  C   UNL d   1      18.990 -19.921   2.011  0.00  0.00     0.019 C 
ATOM     36  C   UNL d   1      18.115 -20.805  -0.145  0.00  0.00     0.019 C 
ENDBRANCH  31  34
ENDBRANCH  27  30
ENDBRANCH  21  24
ENDBRANCH   1  20
TORSDOF 11
ENDMDL
MODEL 4
REMARK VINA RESULT:    -8.794      5.120      7.610
REMARK INTER + INTRA:         -14.969
REMARK INTER:                 -12.075
REMARK INTRA:                  -2.894
REMARK CONF_INDEPENDENT:        3.281
REMARK UNBOUND:                -2.894
REMARK  11 active torsions:
REMARK  status: ('A' for Active; 'I' for Inactive)
REMARK    1  A    between atoms: C_2  and  C_3 
REMARK    2  A    between atoms: C_3  and  C_4 
REMARK    3  A    between atoms: C_4  and  O_5 
REMARK    4  A    between atoms: O_5  and  C_6 
REMARK    5  A    between atoms: C_11  and  C_12 
REMARK       I    between atoms: C_12  and  N_14 
REMARK    6  A    between atoms: N_14  and  C_15 
REMARK    7  A    between atoms: C_15  and  N_17 
REMARK    8  A    between atoms: N_17  and  N_18 
REMARK       I    between atoms: N_18  and  C_19 
REMARK    9  A    between atoms: C_19  and  C_21 
REMARK   10  A    between atoms: C_24  and  N_25 
REMARK       I    between atoms: N_25  and  C_26 
REMARK   11  A    between atoms: C_26  and  C_28 
ROOT
ATOM      1  N   UNL d   1      26.662 -15.263  -3.631  0.00  0.00    -0.273 N 
ATOM      2  H   UNL d   1      27.617 -15.596  -3.509  0.00  0.00     0.189 HD
ENDROOT
BRANCH   1   3
ATOM      3  C   UNL d   1      26.245 -14.250  -4.524  0.00  0.00     0.193 C 
ATOM      4  S   UNL d   1      24.832 -13.393  -4.188  0.00  0.00    -0.039 SA
BRANCH   3   5
ATOM      5  N   UNL d   1      27.068 -14.035  -5.663  0.00  0.00    -0.298 N 
ATOM      6  C   UNL d   1      28.321 -14.664  -5.926  0.00  0.00     0.260 C 
ATOM      7  O   UNL d   1      28.634 -15.749  -5.439  0.00  0.00    -0.267 OA
ATOM      8  H   UNL d   1      26.855 -13.246  -6.258  0.00  0.00     0.171 HD
BRANCH   6   9
ATOM      9  C   UNL d   1      29.360 -14.067  -6.855  0.00  0.00     0.065 A 
ATOM     10  C   UNL d   1      30.644 -14.682  -6.837  0.00  0.00     0.020 A 
ATOM     11  C   UNL d   1      31.691 -14.286  -7.679  0.00  0.00     0.001 A 
ATOM     12  C   UNL d   1      31.483 -13.252  -8.576  0.00  0.00     0.003 A 
ATOM     13  C   UNL d   1      30.263 -12.569  -8.553  0.00  0.00     0.038 A 
ATOM     14  C   UNL d   1      29.207 -12.957  -7.691  0.00  0.00     0.084 A 
BRANCH  14  15
ATOM     15  O   UNL d   1      28.044 -12.268  -7.859  0.00  0.00    -0.350 OA
BRANCH  15  16
ATOM     16  C   UNL d   1      28.132 -11.021  -8.554  0.00  0.00     0.175 C 
BRANCH  16  17
ATOM     17  C   UNL d   1      27.199 -10.091  -7.788  0.00  0.00     0.026 C 
BRANCH  17  18
ATOM     18  C   UNL d   1      26.226 -10.869  -6.920  0.00  0.00    -0.002 C 
ATOM     19  C   UNL d   1      26.474 -10.556  -5.459  0.00  0.00     0.005 C 
ENDBRANCH  17  18
ENDBRANCH  16  17
ENDBRANCH  15  16
ENDBRANCH  14  15
ENDBRANCH   6   9
ENDBRANCH   3   5
ENDBRANCH   1   3
BRANCH   1  20
ATOM     20  N   UNL d   1      25.654 -16.154  -3.046  0.00  0.00    -0.264 N 
ATOM     21  C   UNL d   1      25.728 -16.609  -1.738  0.00  0.00     0.270 C 
ATOM     22  O   UNL d   1      26.739 -16.532  -1.029  0.00  0.00    -0.266 OA
ATOM     23  H   UNL d   1      24.774 -16.170  -3.559  0.00  0.00     0.190 HD
BRANCH  21  24
ATOM     24  C   UNL d   1      24.509 -17.192  -1.113  0.00  0.00     0.033 A 
ATOM     25  C   UNL d   1      24.510 -18.532  -0.678  0.00  0.00     0.019 A 
ATOM     26  C   UNL d   1      23.348 -19.138  -0.147  0.00  0.00     0.030 A 
ATOM     27  C   UNL d   1      22.177 -18.387   0.010  0.00  0.00     0.034 A 
ATOM     28  C   UNL d   1      22.193 -17.073  -0.479  0.00  0.00     0.030 A 
ATOM     29  C   UNL d   1      23.330 -16.471  -1.028  0.00  0.00     0.019 A 
BRANCH  27  30
ATOM     30  N   UNL d   1      21.036 -18.940   0.675  0.00  0.00    -0.327 N 
ATOM     31  C   UNL d   1      19.963 -19.530   0.012  0.00  0.00     0.225 C 
ATOM     32  O   UNL d   1      19.912 -19.705  -1.205  0.00  0.00    -0.273 OA
ATOM     33  H   UNL d   1      20.977 -18.812   1.680  0.00  0.00     0.169 HD
BRANCH  31  34
ATOM     34  C   UNL d   1      18.776 -20.003   0.853  0.00  0.00     0.070 C 
ATOM     35  C   UNL d   1      18.068 -21.198   0.231  0.00  0.00     0.019 C 
ATOM     36  C   UNL d   1      19.313 -20.416   2.239  0.00  0.00     0.019 C 
ENDBRANCH  31  34
ENDBRANCH  27  30
ENDBRANCH  21  24
ENDBRANCH   1  20
TORSDOF 11
ENDMDL
MODEL 5
REMARK VINA RESULT:    -8.762      4.773      7.292
REMARK INTER + INTRA:         -14.676
REMARK INTER:                 -12.044
REMARK INTRA:                  -2.633
REMARK CONF_INDEPENDENT:        3.281
REMARK UNBOUND:                -2.633
REMARK  11 active torsions:
REMARK  status: ('A' for Active; 'I' for Inactive)
REMARK    1  A    between atoms: C_2  and  C_3 
REMARK    2  A    between atoms: C_3  and  C_4 
REMARK    3  A    between atoms: C_4  and  O_5 
REMARK    4  A    between atoms: O_5  and  C_6 
REMARK    5  A    between atoms: C_11  and  C_12 
REMARK       I    between atoms: C_12  and  N_14 
REMARK    6  A    between atoms: N_14  and  C_15 
REMARK    7  A    between atoms: C_15  and  N_17 
REMARK    8  A    between atoms: N_17  and  N_18 
REMARK       I    between atoms: N_18  and  C_19 
REMARK    9  A    between atoms: C_19  and  C_21 
REMARK   10  A    between atoms: C_24  and  N_25 
REMARK       I    between atoms: N_25  and  C_26 
REMARK   11  A    between atoms: C_26  and  C_28 
ROOT
ATOM      1  N   UNL d   1      25.879 -13.699  -3.025  0.00  0.00    -0.273 N 
ATOM      2  H   UNL d   1      26.309 -13.226  -2.232  0.00  0.00     0.189 HD
ENDROOT
BRANCH   1   3
ATOM      3  C   UNL d   1      26.244 -13.539  -4.381  0.00  0.00     0.193 C 
ATOM      4  S   UNL d   1      26.661 -14.902  -5.283  0.00  0.00    -0.039 SA
BRANCH   3   5
ATOM      5  N   UNL d   1      26.235 -12.210  -4.885  0.00  0.00    -0.298 N 
ATOM      6  C   UNL d   1      26.019 -11.024  -4.124  0.00  0.00     0.260 C 
ATOM      7  O   UNL d   1      26.234 -10.963  -2.914  0.00  0.00    -0.267 OA
ATOM      8  H   UNL d   1      26.197 -12.085  -5.888  0.00  0.00     0.171 HD
BRANCH   6   9
ATOM      9  C   UNL d   1      25.538  -9.727  -4.745  0.00  0.00     0.065 A 
ATOM     10  C   UNL d   1      25.246  -8.669  -3.837  0.00  0.00     0.020 A 
ATOM     11  C   UNL d   1      24.849  -7.392  -4.257  0.00  0.00     0.001 A 
ATOM     12  C   UNL d   1      24.735  -7.131  -5.611  0.00  0.00     0.003 A 
ATOM     13  C   UNL d   1      24.928  -8.175  -6.522  0.00  0.00     0.038 A 
ATOM     14  C   UNL d   1      25.312  -9.472  -6.099  0.00  0.00     0.084 A 
BRANCH  14  15
ATOM     15  O   UNL d   1      25.568 -10.353  -7.107  0.00  0.00    -0.350 OA
BRANCH  15  16
ATOM     16  C   UNL d   1      26.757 -10.129  -7.869  0.00  0.00     0.175 C 
BRANCH  16  17
ATOM     17  C   UNL d   1      27.045 -11.472  -8.529  0.00  0.00     0.026 C 
BRANCH  17  18
ATOM     18  C   UNL d   1      28.484 -11.903  -8.313  0.00  0.00    -0.002 C 
ATOM     19  C   UNL d   1      28.808 -11.897  -6.833  0.00  0.00     0.005 C 
ENDBRANCH  17  18
ENDBRANCH  16  17
ENDBRANCH  15  16
ENDBRANCH  14  15
ENDBRANCH   6   9
ENDBRANCH   3   5
ENDBRANCH   1   3
BRANCH   1  20
ATOM     20  N   UNL d   1      25.050 -14.847  -2.643  0.00  0.00    -0.264 N 
ATOM     21  C   UNL d   1      25.446 -15.769  -1.686  0.00  0.00     0.270 C 
ATOM     22  O   UNL d   1      26.600 -15.874  -1.253  0.00  0.00    -0.266 OA
ATOM     23  H   UNL d   1      24.070 -14.750  -2.907  0.00  0.00     0.190 HD
BRANCH  21  24
ATOM     24  C   UNL d   1      24.421 -16.672  -1.096  0.00  0.00     0.033 A 
ATOM     25  C   UNL d   1      24.783 -17.963  -0.661  0.00  0.00     0.019 A 
ATOM     26  C   UNL d   1      23.820 -18.873  -0.163  0.00  0.00     0.030 A 
ATOM     27  C   UNL d   1      22.483 -18.478  -0.040  0.00  0.00     0.034 A 
ATOM     28  C   UNL d   1      22.146 -17.208  -0.529  0.00  0.00     0.030 A 
ATOM     29  C   UNL d   1      23.085 -16.309  -1.045  0.00  0.00     0.019 A 
BRANCH  27  30
ATOM     30  N   UNL d   1      21.523 -19.331   0.593  0.00  0.00    -0.327 N 
ATOM     31  C   UNL d   1      20.422 -19.878  -0.062  0.00  0.00     0.225 C 
ATOM     32  O   UNL d   1      20.195 -19.747  -1.265  0.00  0.00    -0.273 OA
ATOM     33  H   UNL d   1      21.612 -19.469   1.594  0.00  0.00     0.169 HD
BRANCH  31  34
ATOM     34  C   UNL d   1      19.436 -20.705   0.765  0.00  0.00     0.070 C 
ATOM     35  C   UNL d   1      19.142 -20.070   2.117  0.00  0.00     0.019 C 
ATOM     36  C   UNL d   1      18.118 -20.804  -0.029  0.00  0.00     0.019 C 
ENDBRANCH  31  34
ENDBRANCH  27  30
ENDBRANCH  21  24
ENDBRANCH   1  20
TORSDOF 11
ENDMDL
MODEL 6
REMARK VINA RESULT:    -8.480      4.574      6.822
REMARK INTER + INTRA:         -14.790
REMARK INTER:                 -11.761
REMARK INTRA:                  -3.029
REMARK CONF_INDEPENDENT:        3.281
REMARK UNBOUND:                -3.029
REMARK  11 active torsions:
REMARK  status: ('A' for Active; 'I' for Inactive)
REMARK    1  A    between atoms: C_2  and  C_3 
REMARK    2  A    between atoms: C_3  and  C_4 
REMARK    3  A    between atoms: C_4  and  O_5 
REMARK    4  A    between atoms: O_5  and  C_6 
REMARK    5  A    between atoms: C_11  and  C_12 
REMARK       I    between atoms: C_12  and  N_14 
REMARK    6  A    between atoms: N_14  and  C_15 
REMARK    7  A    between atoms: C_15  and  N_17 
REMARK    8  A    between atoms: N_17  and  N_18 
REMARK       I    between atoms: N_18  and  C_19 
REMARK    9  A    between atoms: C_19  and  C_21 
REMARK   10  A    between atoms: C_24  and  N_25 
REMARK       I    between atoms: N_25  and  C_26 
REMARK   11  A    between atoms: C_26  and  C_28 
ROOT
ATOM      1  N   UNL d   1      30.083 -17.112  -0.674  0.00  0.00    -0.273 N 
ATOM      2  H   UNL d   1      30.759 -16.883   0.053  0.00  0.00     0.189 HD
ENDROOT
BRANCH   1   3
ATOM      3  C   UNL d   1      30.384 -17.650  -1.945  0.00  0.00     0.193 C 
ATOM      4  S   UNL d   1      31.371 -19.014  -2.044  0.00  0.00    -0.039 SA
BRANCH   3   5
ATOM      5  N   UNL d   1      29.821 -16.978  -3.065  0.00  0.00    -0.298 N 
ATOM      6  C   UNL d   1      30.414 -16.855  -4.356  0.00  0.00     0.260 C 
ATOM      7  O   UNL d   1      31.253 -17.648  -4.780  0.00  0.00    -0.267 OA
ATOM      8  H   UNL d   1      29.022 -16.380  -2.905  0.00  0.00     0.171 HD
BRANCH   6   9
ATOM      9  C   UNL d   1      30.035 -15.757  -5.331  0.00  0.00     0.065 A 
ATOM     10  C   UNL d   1      31.018 -15.418  -6.304  0.00  0.00     0.020 A 
ATOM     11  C   UNL d   1      30.798 -14.467  -7.310  0.00  0.00     0.001 A 
ATOM     12  C   UNL d   1      29.575 -13.822  -7.375  0.00  0.00     0.003 A 
ATOM     13  C   UNL d   1      28.624 -14.069  -6.379  0.00  0.00     0.038 A 
ATOM     14  C   UNL d   1      28.850 -15.017  -5.351  0.00  0.00     0.084 A 
BRANCH  14  15
ATOM     15  O   UNL d   1      27.792 -15.226  -4.519  0.00  0.00    -0.350 OA
BRANCH  15  16
ATOM     16  C   UNL d   1      26.492 -15.200  -5.115  0.00  0.00     0.175 C 
BRANCH  16  17
ATOM     17  C   UNL d   1      25.530 -15.227  -3.934  0.00  0.00     0.026 C 
BRANCH  17  18
ATOM     18  C   UNL d   1      25.029 -13.835  -3.591  0.00  0.00    -0.002 C 
ATOM     19  C   UNL d   1      25.724 -12.808  -4.460  0.00  0.00     0.005 C 
ENDBRANCH  17  18
ENDBRANCH  16  17
ENDBRANCH  15  16
ENDBRANCH  14  15
ENDBRANCH   6   9
ENDBRANCH   3   5
ENDBRANCH   1   3
BRANCH   1  20
ATOM     20  N   UNL d   1      28.699 -17.162  -0.190  0.00  0.00    -0.264 N 
ATOM     21  C   UNL d   1      27.636 -16.639  -0.910  0.00  0.00     0.270 C 
ATOM     22  O   UNL d   1      27.756 -15.874  -1.875  0.00  0.00    -0.266 OA
ATOM     23  H   UNL d   1      28.548 -17.850   0.547  0.00  0.00     0.190 HD
BRANCH  21  24
ATOM     24  C   UNL d   1      26.253 -17.047  -0.541  0.00  0.00     0.033 A 
ATOM     25  C   UNL d   1      25.157 -16.241  -0.909  0.00  0.00     0.019 A 
ATOM     26  C   UNL d   1      23.837 -16.561  -0.513  0.00  0.00     0.030 A 
ATOM     27  C   UNL d   1      23.590 -17.731   0.215  0.00  0.00     0.034 A 
ATOM     28  C   UNL d   1      24.705 -18.483   0.610  0.00  0.00     0.030 A 
ATOM     29  C   UNL d   1      26.016 -18.164   0.243  0.00  0.00     0.019 A 
BRANCH  27  30
ATOM     30  N   UNL d   1      22.250 -18.146   0.502  0.00  0.00    -0.327 N 
ATOM     31  C   UNL d   1      21.530 -19.039  -0.288  0.00  0.00     0.225 C 
ATOM     32  O   UNL d   1      21.988 -19.620  -1.271  0.00  0.00    -0.273 OA
ATOM     33  H   UNL d   1      21.779 -17.692   1.278  0.00  0.00     0.169 HD
BRANCH  31  34
ATOM     34  C   UNL d   1      20.078 -19.325   0.100  0.00  0.00     0.070 C 
ATOM     35  C   UNL d   1      19.182 -19.511  -1.117  0.00  0.00     0.019 C 
ATOM     36  C   UNL d   1      20.057 -20.626   0.929  0.00  0.00     0.019 C 
ENDBRANCH  31  34
ENDBRANCH  27  30
ENDBRANCH  21  24
ENDBRANCH   1  20
TORSDOF 11
ENDMDL
MODEL 7
REMARK VINA RESULT:    -8.325      5.069      6.910
REMARK INTER + INTRA:         -14.500
REMARK INTER:                 -11.606
REMARK INTRA:                  -2.894
REMARK CONF_INDEPENDENT:        3.281
REMARK UNBOUND:                -2.894
REMARK  11 active torsions:
REMARK  status: ('A' for Active; 'I' for Inactive)
REMARK    1  A    between atoms: C_2  and  C_3 
REMARK    2  A    between atoms: C_3  and  C_4 
REMARK    3  A    between atoms: C_4  and  O_5 
REMARK    4  A    between atoms: O_5  and  C_6 
REMARK    5  A    between atoms: C_11  and  C_12 
REMARK       I    between atoms: C_12  and  N_14 
REMARK    6  A    between atoms: N_14  and  C_15 
REMARK    7  A    between atoms: C_15  and  N_17 
REMARK    8  A    between atoms: N_17  and  N_18 
REMARK       I    between atoms: N_18  and  C_19 
REMARK    9  A    between atoms: C_19  and  C_21 
REMARK   10  A    between atoms: C_24  and  N_25 
REMARK       I    between atoms: N_25  and  C_26 
REMARK   11  A    between atoms: C_26  and  C_28 
ROOT
ATOM      1  N   UNL d   1      27.501 -14.544  -2.721  0.00  0.00    -0.273 N 
ATOM      2  H   UNL d   1      28.030 -13.829  -2.223  0.00  0.00     0.189 HD
ENDROOT
BRANCH   1   3
ATOM      3  C   UNL d   1      27.866 -15.140  -3.948  0.00  0.00     0.193 C 
ATOM      4  S   UNL d   1      27.368 -14.419  -5.389  0.00  0.00    -0.039 SA
BRANCH   3   5
ATOM      5  N   UNL d   1      28.637 -16.331  -3.867  0.00  0.00    -0.298 N 
ATOM      6  C   UNL d   1      29.222 -16.875  -2.685  0.00  0.00     0.260 C 
ATOM      7  O   UNL d   1      28.792 -16.630  -1.558  0.00  0.00    -0.267 OA
ATOM      8  H   UNL d   1      28.961 -16.746  -4.730  0.00  0.00     0.171 HD
BRANCH   6   9
ATOM      9  C   UNL d   1      30.403 -17.826  -2.716  0.00  0.00     0.065 A 
ATOM     10  C   UNL d   1      31.115 -17.980  -1.493  0.00  0.00     0.020 A 
ATOM     11  C   UNL d   1      32.190 -18.867  -1.343  0.00  0.00     0.001 A 
ATOM     12  C   UNL d   1      32.588 -19.635  -2.424  0.00  0.00     0.003 A 
ATOM     13  C   UNL d   1      31.966 -19.439  -3.661  0.00  0.00     0.038 A 
ATOM     14  C   UNL d   1      30.889 -18.531  -3.820  0.00  0.00     0.084 A 
BRANCH  14  15
ATOM     15  O   UNL d   1      30.316 -18.529  -5.055  0.00  0.00    -0.350 OA
BRANCH  15  16
ATOM     16  C   UNL d   1      31.178 -18.802  -6.163  0.00  0.00     0.175 C 
BRANCH  16  17
ATOM     17  C   UNL d   1      30.838 -17.725  -7.186  0.00  0.00     0.026 C 
BRANCH  17  18
ATOM     18  C   UNL d   1      30.412 -16.432  -6.512  0.00  0.00    -0.002 C 
ATOM     19  C   UNL d   1      31.072 -15.252  -7.194  0.00  0.00     0.005 C 
ENDBRANCH  17  18
ENDBRANCH  16  17
ENDBRANCH  15  16
ENDBRANCH  14  15
ENDBRANCH   6   9
ENDBRANCH   3   5
ENDBRANCH   1   3
BRANCH   1  20
ATOM     20  N   UNL d   1      26.465 -15.181  -1.900  0.00  0.00    -0.264 N 
ATOM     21  C   UNL d   1      25.155 -15.324  -2.330  0.00  0.00     0.270 C 
ATOM     22  O   UNL d   1      24.669 -14.728  -3.299  0.00  0.00    -0.266 OA
ATOM     23  H   UNL d   1      26.837 -15.755  -1.145  0.00  0.00     0.190 HD
BRANCH  21  24
ATOM     24  C   UNL d   1      24.270 -16.287  -1.619  0.00  0.00     0.033 A 
ATOM     25  C   UNL d   1      24.712 -17.603  -1.370  0.00  0.00     0.019 A 
ATOM     26  C   UNL d   1      23.870 -18.563  -0.763  0.00  0.00     0.030 A 
ATOM     27  C   UNL d   1      22.586 -18.201  -0.341  0.00  0.00     0.034 A 
ATOM     28  C   UNL d   1      22.157 -16.902  -0.649  0.00  0.00     0.030 A 
ATOM     29  C   UNL d   1      22.973 -15.951  -1.270  0.00  0.00     0.019 A 
BRANCH  27  30
ATOM     30  N   UNL d   1      21.773 -19.116   0.403  0.00  0.00    -0.327 N 
ATOM     31  C   UNL d   1      20.657 -19.763  -0.122  0.00  0.00     0.225 C 
ATOM     32  O   UNL d   1      20.292 -19.676  -1.294  0.00  0.00    -0.273 OA
ATOM     33  H   UNL d   1      21.982 -19.226   1.389  0.00  0.00     0.169 HD
BRANCH  31  34
ATOM     34  C   UNL d   1      19.839 -20.651   0.817  0.00  0.00     0.070 C 
ATOM     35  C   UNL d   1      19.757 -20.079   2.226  0.00  0.00     0.019 C 
ATOM     36  C   UNL d   1      18.410 -20.754   0.245  0.00  0.00     0.019 C 
ENDBRANCH  31  34
ENDBRANCH  27  30
ENDBRANCH  21  24
ENDBRANCH   1  20
TORSDOF 11
ENDMDL
MODEL 8
REMARK VINA RESULT:    -8.259      2.106      3.343
REMARK INTER + INTRA:         -14.776
REMARK INTER:                 -11.540
REMARK INTRA:                  -3.235
REMARK CONF_INDEPENDENT:        3.281
REMARK UNBOUND:                -3.235
REMARK  11 active torsions:
REMARK  status: ('A' for Active; 'I' for Inactive)
REMARK    1  A    between atoms: C_2  and  C_3 
REMARK    2  A    between atoms: C_3  and  C_4 
REMARK    3  A    between atoms: C_4  and  O_5 
REMARK    4  A    between atoms: O_5  and  C_6 
REMARK    5  A    between atoms: C_11  and  C_12 
REMARK       I    between atoms: C_12  and  N_14 
REMARK    6  A    between atoms: N_14  and  C_15 
REMARK    7  A    between atoms: C_15  and  N_17 
REMARK    8  A    between atoms: N_17  and  N_18 
REMARK       I    between atoms: N_18  and  C_19 
REMARK    9  A    between atoms: C_19  and  C_21 
REMARK   10  A    between atoms: C_24  and  N_25 
REMARK       I    between atoms: N_25  and  C_26 
REMARK   11  A    between atoms: C_26  and  C_28 
ROOT
ATOM      1  N   UNL d   1      27.341 -13.960  -1.930  0.00  0.00    -0.273 N 
ATOM      2  H   UNL d   1      27.422 -14.001  -2.945  0.00  0.00     0.189 HD
ENDROOT
BRANCH   1   3
ATOM      3  C   UNL d   1      28.045 -13.080  -1.078  0.00  0.00     0.193 C 
ATOM      4  S   UNL d   1      28.298 -11.487  -1.574  0.00  0.00    -0.039 SA
BRANCH   3   5
ATOM      5  N   UNL d   1      28.500 -13.623   0.155  0.00  0.00    -0.298 N 
ATOM      6  C   UNL d   1      27.715 -13.811   1.330  0.00  0.00     0.260 C 
ATOM      7  O   UNL d   1      26.490 -13.927   1.300  0.00  0.00    -0.267 OA
ATOM      8  H   UNL d   1      29.497 -13.723   0.289  0.00  0.00     0.171 HD
BRANCH   6   9
ATOM      9  C   UNL d   1      28.324 -13.918   2.715  0.00  0.00     0.065 A 
ATOM     10  C   UNL d   1      27.406 -14.087   3.791  0.00  0.00     0.020 A 
ATOM     11  C   UNL d   1      27.814 -14.261   5.120  0.00  0.00     0.001 A 
ATOM     12  C   UNL d   1      29.166 -14.273   5.416  0.00  0.00     0.003 A 
ATOM     13  C   UNL d   1      30.087 -14.019   4.395  0.00  0.00     0.038 A 
ATOM     14  C   UNL d   1      29.676 -13.826   3.052  0.00  0.00     0.084 A 
BRANCH  14  15
ATOM     15  O   UNL d   1      30.692 -13.697   2.153  0.00  0.00    -0.350 OA
BRANCH  15  16
ATOM     16  C   UNL d   1      31.929 -14.334   2.486  0.00  0.00     0.175 C 
BRANCH  16  17
ATOM     17  C   UNL d   1      31.829 -15.716   1.852  0.00  0.00     0.026 C 
BRANCH  17  18
ATOM     18  C   UNL d   1      31.525 -15.627   0.367  0.00  0.00    -0.002 C 
ATOM     19  C   UNL d   1      30.697 -16.820  -0.062  0.00  0.00     0.005 C 
ENDBRANCH  17  18
ENDBRANCH  16  17
ENDBRANCH  15  16
ENDBRANCH  14  15
ENDBRANCH   6   9
ENDBRANCH   3   5
ENDBRANCH   1   3
BRANCH   1  20
ATOM     20  N   UNL d   1      26.165 -14.666  -1.408  0.00  0.00    -0.264 N 
ATOM     21  C   UNL d   1      25.396 -15.513  -2.190  0.00  0.00     0.270 C 
ATOM     22  O   UNL d   1      25.453 -15.569  -3.424  0.00  0.00    -0.266 OA
ATOM     23  H   UNL d   1      26.136 -14.716  -0.391  0.00  0.00     0.190 HD
BRANCH  21  24
ATOM     24  C   UNL d   1      24.465 -16.459  -1.515  0.00  0.00     0.033 A 
ATOM     25  C   UNL d   1      23.142 -16.065  -1.228  0.00  0.00     0.019 A 
ATOM     26  C   UNL d   1      22.255 -16.911  -0.523  0.00  0.00     0.030 A 
ATOM     27  C   UNL d   1      22.664 -18.196  -0.146  0.00  0.00     0.034 A 
ATOM     28  C   UNL d   1      24.000 -18.538  -0.400  0.00  0.00     0.030 A 
ATOM     29  C   UNL d   1      24.893 -17.700  -1.075  0.00  0.00     0.019 A 
BRANCH  27  30
ATOM     30  N   UNL d   1      21.738 -19.118   0.439  0.00  0.00    -0.327 N 
ATOM     31  C   UNL d   1      20.681 -19.700  -0.257  0.00  0.00     0.225 C 
ATOM     32  O   UNL d   1      20.473 -19.542  -1.460  0.00  0.00    -0.273 OA
ATOM     33  H   UNL d   1      21.814 -19.283   1.437  0.00  0.00     0.169 HD
BRANCH  31  34
ATOM     34  C   UNL d   1      19.725 -20.604   0.522  0.00  0.00     0.070 C 
ATOM     35  C   UNL d   1      19.592 -20.184   1.979  0.00  0.00     0.019 C 
ATOM     36  C   UNL d   1      18.337 -20.511  -0.145  0.00  0.00     0.019 C 
ENDBRANCH  31  34
ENDBRANCH  27  30
ENDBRANCH  21  24
ENDBRANCH   1  20
TORSDOF 11
ENDMDL
MODEL 9
REMARK VINA RESULT:    -8.132      3.127      5.425
REMARK INTER + INTRA:         -14.690
REMARK INTER:                 -11.414
REMARK INTRA:                  -3.276
REMARK CONF_INDEPENDENT:        3.281
REMARK UNBOUND:                -3.276
REMARK  11 active torsions:
REMARK  status: ('A' for Active; 'I' for Inactive)
REMARK    1  A    between atoms: C_2  and  C_3 
REMARK    2  A    between atoms: C_3  and  C_4 
REMARK    3  A    between atoms: C_4  and  O_5 
REMARK    4  A    between atoms: O_5  and  C_6 
REMARK    5  A    between atoms: C_11  and  C_12 
REMARK       I    between atoms: C_12  and  N_14 
REMARK    6  A    between atoms: N_14  and  C_15 
REMARK    7  A    between atoms: C_15  and  N_17 
REMARK    8  A    between atoms: N_17  and  N_18 
REMARK       I    between atoms: N_18  and  C_19 
REMARK    9  A    between atoms: C_19  and  C_21 
REMARK   10  A    between atoms: C_24  and  N_25 
REMARK       I    between atoms: N_25  and  C_26 
REMARK   11  A    between atoms: C_26  and  C_28 
ROOT
ATOM      1  N   UNL d   1      26.169 -14.378  -4.215  0.00  0.00    -0.273 N 
ATOM      2  H   UNL d   1      25.652 -13.501  -4.171  0.00  0.00     0.189 HD
ENDROOT
BRANCH   1   3
ATOM      3  C   UNL d   1      27.515 -14.526  -4.617  0.00  0.00     0.193 C 
ATOM      4  S   UNL d   1      27.986 -13.948  -6.130  0.00  0.00    -0.039 SA
BRANCH   3   5
ATOM      5  N   UNL d   1      28.383 -15.171  -3.694  0.00  0.00    -0.298 N 
ATOM      6  C   UNL d   1      29.445 -16.065  -4.022  0.00  0.00     0.260 C 
ATOM      7  O   UNL d   1      30.004 -16.058  -5.118  0.00  0.00    -0.267 OA
ATOM      8  H   UNL d   1      28.131 -15.150  -2.715  0.00  0.00     0.171 HD
BRANCH   6   9
ATOM      9  C   UNL d   1      29.998 -17.077  -3.038  0.00  0.00     0.065 A 
ATOM     10  C   UNL d   1      30.973 -17.980  -3.550  0.00  0.00     0.020 A 
ATOM     11  C   UNL d   1      31.623 -18.933  -2.754  0.00  0.00     0.001 A 
ATOM     12  C   UNL d   1      31.315 -19.011  -1.407  0.00  0.00     0.003 A 
ATOM     13  C   UNL d   1      30.297 -18.200  -0.895  0.00  0.00     0.038 A 
ATOM     14  C   UNL d   1      29.626 -17.246  -1.702  0.00  0.00     0.084 A 
BRANCH  14  15
ATOM     15  O   UNL d   1      28.737 -16.456  -1.039  0.00  0.00    -0.350 OA
BRANCH  15  16
ATOM     16  C   UNL d   1      27.978 -17.077   0.003  0.00  0.00     0.175 C 
BRANCH  16  17
ATOM     17  C   UNL d   1      27.685 -15.950   0.985  0.00  0.00     0.026 C 
BRANCH  17  18
ATOM     18  C   UNL d   1      28.442 -14.684   0.623  0.00  0.00    -0.002 C 
ATOM     19  C   UNL d   1      28.752 -13.892   1.876  0.00  0.00     0.005 C 
ENDBRANCH  17  18
ENDBRANCH  16  17
ENDBRANCH  15  16
ENDBRANCH  14  15
ENDBRANCH   6   9
ENDBRANCH   3   5
ENDBRANCH   1   3
BRANCH   1  20
ATOM     20  N   UNL d   1      25.516 -15.478  -3.497  0.00  0.00    -0.264 N 
ATOM     21  C   UNL d   1      25.582 -15.613  -2.119  0.00  0.00     0.270 C 
ATOM     22  O   UNL d   1      26.376 -15.001  -1.394  0.00  0.00    -0.266 OA
ATOM     23  H   UNL d   1      24.791 -15.947  -4.038  0.00  0.00     0.190 HD
BRANCH  21  24
ATOM     24  C   UNL d   1      24.612 -16.517  -1.442  0.00  0.00     0.033 A 
ATOM     25  C   UNL d   1      23.278 -16.105  -1.250  0.00  0.00     0.019 A 
ATOM     26  C   UNL d   1      22.350 -16.909  -0.546  0.00  0.00     0.030 A 
ATOM     27  C   UNL d   1      22.733 -18.169  -0.072  0.00  0.00     0.034 A 
ATOM     28  C   UNL d   1      24.080 -18.527  -0.233  0.00  0.00     0.030 A 
ATOM     29  C   UNL d   1      25.011 -17.730  -0.907  0.00  0.00     0.019 A 
BRANCH  27  30
ATOM     30  N   UNL d   1      21.774 -19.054   0.514  0.00  0.00    -0.327 N 
ATOM     31  C   UNL d   1      20.766 -19.692  -0.206  0.00  0.00     0.225 C 
ATOM     32  O   UNL d   1      20.636 -19.620  -1.428  0.00  0.00    -0.273 OA
ATOM     33  H   UNL d   1      21.785 -19.149   1.524  0.00  0.00     0.169 HD
BRANCH  31  34
ATOM     34  C   UNL d   1      19.763 -20.546   0.571  0.00  0.00     0.070 C 
ATOM     35  C   UNL d   1      19.600 -20.078   2.011  0.00  0.00     0.019 C 
ATOM     36  C   UNL d   1      18.398 -20.435  -0.139  0.00  0.00     0.019 C 
ENDBRANCH  31  34
ENDBRANCH  27  30
ENDBRANCH  21  24
ENDBRANCH   1  20
TORSDOF 11
ENDMDL
