MODEL 1
REMARK VINA RESULT:   -32.264      0.000      0.000
REMARK INTER + INTRA:         -36.646
REMARK INTER:                 -34.949
REMARK INTRA:                  -1.698
REMARK CONF_INDEPENDENT:        2.685
REMARK UNBOUND:                -1.698
REMARK  9 active torsions:
REMARK  status: ('A' for Active; 'I' for Inactive)
REMARK       I    between atoms: C_2  and  N_4 
REMARK    1  A    between atoms: N_4  and  C_5 
REMARK    2  A    between atoms: C_9  and  N_10 
REMARK    3  A    between atoms: N_10  and  C_11 
REMARK    4  A    between atoms: C_11  and  N_13 
REMARK    5  A    between atoms: N_13  and  N_14 
REMARK       I    between atoms: N_14  and  C_15 
REMARK    6  A    between atoms: C_15  and  C_17 
REMARK    7  A    between atoms: C_17  and  C_18 
REMARK    8  A    between atoms: C_18  and  C_19 
REMARK    9  A    between atoms: C_21  and  C_22 
ROOT
ATOM      1  N   UNL d   1      27.816 -18.072  -0.201  0.00  0.00    -0.274 N 
ATOM      2  H   UNL d   1      28.309 -18.947  -0.359  0.00  0.00     0.189 HD
ENDROOT
BRANCH   1   3
ATOM      3  C   UNL d   1      28.298 -16.778  -0.452  0.00  0.00     0.191 C 
ATOM      4  S   UNL d   1      29.925 -16.698  -0.945  0.00  0.00    -0.039 SA
BRANCH   3   5
ATOM      5  N   UNL d   1      27.350 -15.738  -0.242  0.00  0.00    -0.332 N 
ATOM      6  H   UNL d   1      26.530 -15.732  -0.839  0.00  0.00     0.168 HD
BRANCH   5   7
ATOM      7  C   UNL d   1      27.366 -14.693   0.763  0.00  0.00     0.036 A 
ATOM      8  C   UNL d   1      26.749 -13.446   0.605  0.00  0.00     0.029 A 
ATOM      9  C   UNL d   1      26.735 -12.512   1.681  0.00  0.00     0.004 A 
ATOM     10  C   UNL d   1      27.361 -12.793   2.911  0.00  0.00     0.029 A 
ATOM     11  C   UNL d   1      28.011 -14.002   3.059  0.00  0.00     0.036 A 
ATOM     12  C   UNL d   1      27.991 -14.886   1.986  0.00  0.00     0.059 A 
BRANCH  11  13
ATOM     13  N   UNL d   1      28.631 -14.431   4.262  0.00  0.00    -0.327 N 
ATOM     14  C   UNL d   1      28.339 -13.859   5.500  0.00  0.00     0.218 C 
ATOM     15  C   UNL d   1      29.188 -14.331   6.649  0.00  0.00     0.117 C 
ATOM     16  O   UNL d   1      27.424 -13.065   5.718  0.00  0.00    -0.274 OA
ATOM     17  H   UNL d   1      29.297 -15.189   4.204  0.00  0.00     0.169 HD
ENDBRANCH  11  13
ENDBRANCH   5   7
ENDBRANCH   3   5
ENDBRANCH   1   3
BRANCH   1  18
ATOM     18  N   UNL d   1      26.463 -18.177   0.291  0.00  0.00    -0.268 N 
ATOM     19  C   UNL d   1      25.365 -17.868  -0.464  0.00  0.00     0.236 C 
ATOM     20  O   UNL d   1      25.464 -17.468  -1.626  0.00  0.00    -0.272 OA
ATOM     21  H   UNL d   1      26.391 -18.506   1.258  0.00  0.00     0.190 HD
BRANCH  19  22
ATOM     22  C   UNL d   1      24.027 -18.064   0.252  0.00  0.00     0.112 C 
BRANCH  22  23
ATOM     23  C   UNL d   1      22.881 -17.664  -0.678  0.00  0.00     0.098 C 
BRANCH  23  24
ATOM     24  C   UNL d   1      21.671 -18.502  -0.511  0.00  0.00     0.173 A 
ATOM     25  N   UNL d   1      21.437 -19.446   0.368  0.00  0.00    -0.208 NA
ATOM     26  C   UNL d   1      20.132 -19.782   0.102  0.00  0.00     0.159 A 
ATOM     27  N   UNL d   1      19.568 -19.087  -0.895  0.00  0.00    -0.111 NA
ATOM     28  O   UNL d   1      20.597 -18.233  -1.311  0.00  0.00    -0.196 OA
BRANCH  26  29
ATOM     29  C   UNL d   1      19.406 -20.842   0.872  0.00  0.00     0.051 C 
ATOM     30  C   UNL d   1      19.319 -20.496   2.360  0.00  0.00     0.018 C 
ATOM     31  C   UNL d   1      17.993 -21.058   0.322  0.00  0.00     0.018 C 
ENDBRANCH  26  29
ENDBRANCH  23  24
ENDBRANCH  22  23
ENDBRANCH  19  22
ENDBRANCH   1  18
TORSDOF 9
ENDMDL
MODEL 2
REMARK VINA RESULT:   -32.172      3.446      5.441
REMARK INTER + INTRA:         -36.706
REMARK INTER:                 -34.856
REMARK INTRA:                  -1.849
REMARK CONF_INDEPENDENT:        2.685
REMARK UNBOUND:                -1.849
REMARK  9 active torsions:
REMARK  status: ('A' for Active; 'I' for Inactive)
REMARK       I    between atoms: C_2  and  N_4 
REMARK    1  A    between atoms: N_4  and  C_5 
REMARK    2  A    between atoms: C_9  and  N_10 
REMARK    3  A    between atoms: N_10  and  C_11 
REMARK    4  A    between atoms: C_11  and  N_13 
REMARK    5  A    between atoms: N_13  and  N_14 
REMARK       I    between atoms: N_14  and  C_15 
REMARK    6  A    between atoms: C_15  and  C_17 
REMARK    7  A    between atoms: C_17  and  C_18 
REMARK    8  A    between atoms: C_18  and  C_19 
REMARK    9  A    between atoms: C_21  and  C_22 
ROOT
ATOM      1  N   UNL d   1      27.809 -17.502  -0.153  0.00  0.00    -0.274 N 
ATOM      2  H   UNL d   1      28.458 -17.683   0.608  0.00  0.00     0.189 HD
ENDROOT
BRANCH   1   3
ATOM      3  C   UNL d   1      27.951 -16.549  -1.173  0.00  0.00     0.191 C 
ATOM      4  S   UNL d   1      29.317 -16.758  -2.168  0.00  0.00    -0.039 SA
BRANCH   3   5
ATOM      5  N   UNL d   1      26.936 -15.553  -1.205  0.00  0.00    -0.332 N 
ATOM      6  H   UNL d   1      26.592 -15.213  -0.312  0.00  0.00     0.168 HD
BRANCH   5   7
ATOM      7  C   UNL d   1      26.348 -14.901  -2.358  0.00  0.00     0.036 A 
ATOM      8  C   UNL d   1      25.007 -14.505  -2.436  0.00  0.00     0.029 A 
ATOM      9  C   UNL d   1      24.536 -13.788  -3.573  0.00  0.00     0.004 A 
ATOM     10  C   UNL d   1      25.382 -13.486  -4.658  0.00  0.00     0.029 A 
ATOM     11  C   UNL d   1      26.694 -13.913  -4.611  0.00  0.00     0.036 A 
ATOM     12  C   UNL d   1      27.111 -14.602  -3.477  0.00  0.00     0.059 A 
BRANCH  11  13
ATOM     13  N   UNL d   1      27.661 -13.627  -5.609  0.00  0.00    -0.327 N 
ATOM     14  C   UNL d   1      28.562 -14.584  -6.075  0.00  0.00     0.218 C 
ATOM     15  C   UNL d   1      29.611 -14.079  -7.028  0.00  0.00     0.117 C 
ATOM     16  O   UNL d   1      28.521 -15.786  -5.813  0.00  0.00    -0.274 OA
ATOM     17  H   UNL d   1      27.675 -12.694  -5.998  0.00  0.00     0.169 HD
ENDBRANCH  11  13
ENDBRANCH   5   7
ENDBRANCH   3   5
ENDBRANCH   1   3
BRANCH   1  18
ATOM     18  N   UNL d   1      26.638 -18.346  -0.212  0.00  0.00    -0.268 N 
ATOM     19  C   UNL d   1      25.367 -17.878  -0.023  0.00  0.00     0.236 C 
ATOM     20  O   UNL d   1      25.138 -16.690   0.222  0.00  0.00    -0.272 OA
ATOM     21  H   UNL d   1      26.839 -19.330  -0.412  0.00  0.00     0.190 HD
BRANCH  19  22
ATOM     22  C   UNL d   1      24.274 -18.942  -0.142  0.00  0.00     0.112 C 
BRANCH  22  23
ATOM     23  C   UNL d   1      23.167 -18.442  -1.070  0.00  0.00     0.098 C 
BRANCH  23  24
ATOM     24  C   UNL d   1      21.820 -18.929  -0.690  0.00  0.00     0.173 A 
ATOM     25  N   UNL d   1      21.383 -19.313   0.485  0.00  0.00    -0.208 NA
ATOM     26  C   UNL d   1      20.051 -19.547   0.244  0.00  0.00     0.159 A 
ATOM     27  N   UNL d   1      19.664 -19.325  -1.020  0.00  0.00    -0.111 NA
ATOM     28  O   UNL d   1      20.847 -18.915  -1.648  0.00  0.00    -0.196 OA
BRANCH  26  29
ATOM     29  C   UNL d   1      19.115 -20.015   1.316  0.00  0.00     0.051 C 
ATOM     30  C   UNL d   1      18.518 -21.383   0.982  0.00  0.00     0.018 C 
ATOM     31  C   UNL d   1      19.821 -20.091   2.674  0.00  0.00     0.018 C 
ENDBRANCH  26  29
ENDBRANCH  23  24
ENDBRANCH  22  23
ENDBRANCH  19  22
ENDBRANCH   1  18
TORSDOF 9
ENDMDL
MODEL 3
REMARK VINA RESULT:   -32.153      1.986      2.964
REMARK INTER + INTRA:         -36.157
REMARK INTER:                 -34.837
REMARK INTRA:                  -1.320
REMARK CONF_INDEPENDENT:        2.685
REMARK UNBOUND:                -1.320
REMARK  9 active torsions:
REMARK  status: ('A' for Active; 'I' for Inactive)
REMARK       I    between atoms: C_2  and  N_4 
REMARK    1  A    between atoms: N_4  and  C_5 
REMARK    2  A    between atoms: C_9  and  N_10 
REMARK    3  A    between atoms: N_10  and  C_11 
REMARK    4  A    between atoms: C_11  and  N_13 
REMARK    5  A    between atoms: N_13  and  N_14 
REMARK       I    between atoms: N_14  and  C_15 
REMARK    6  A    between atoms: C_15  and  C_17 
REMARK    7  A    between atoms: C_17  and  C_18 
REMARK    8  A    between atoms: C_18  and  C_19 
REMARK    9  A    between atoms: C_21  and  C_22 
ROOT
ATOM      1  N   UNL d   1      27.059 -16.267   1.118  0.00  0.00    -0.274 N 
ATOM      2  H   UNL d   1      27.375 -17.100   1.608  0.00  0.00     0.189 HD
ENDROOT
BRANCH   1   3
ATOM      3  C   UNL d   1      27.567 -14.966   1.254  0.00  0.00     0.191 C 
ATOM      4  S   UNL d   1      27.025 -13.855   0.083  0.00  0.00    -0.039 SA
BRANCH   3   5
ATOM      5  N   UNL d   1      28.463 -14.787   2.344  0.00  0.00    -0.332 N 
ATOM      6  H   UNL d   1      29.400 -15.165   2.240  0.00  0.00     0.168 HD
BRANCH   5   7
ATOM      7  C   UNL d   1      28.239 -14.078   3.588  0.00  0.00     0.036 A 
ATOM      8  C   UNL d   1      28.335 -14.669   4.855  0.00  0.00     0.029 A 
ATOM      9  C   UNL d   1      28.189 -13.875   6.028  0.00  0.00     0.004 A 
ATOM     10  C   UNL d   1      27.914 -12.495   5.957  0.00  0.00     0.029 A 
ATOM     11  C   UNL d   1      27.773 -11.913   4.714  0.00  0.00     0.036 A 
ATOM     12  C   UNL d   1      27.933 -12.725   3.596  0.00  0.00     0.059 A 
BRANCH  11  13
ATOM     13  N   UNL d   1      27.553 -10.527   4.503  0.00  0.00    -0.327 N 
ATOM     14  C   UNL d   1      27.048 -10.023   3.304  0.00  0.00     0.218 C 
ATOM     15  C   UNL d   1      27.010  -8.523   3.197  0.00  0.00     0.117 C 
ATOM     16  O   UNL d   1      26.591 -10.701   2.384  0.00  0.00    -0.274 OA
ATOM     17  H   UNL d   1      27.761  -9.896   5.264  0.00  0.00     0.169 HD
ENDBRANCH  11  13
ENDBRANCH   5   7
ENDBRANCH   3   5
ENDBRANCH   1   3
BRANCH   1  18
ATOM     18  N   UNL d   1      26.006 -16.455   0.147  0.00  0.00    -0.268 N 
ATOM     19  C   UNL d   1      25.432 -17.669  -0.110  0.00  0.00     0.236 C 
ATOM     20  O   UNL d   1      25.789 -18.697   0.473  0.00  0.00    -0.272 OA
ATOM     21  H   UNL d   1      25.719 -15.597  -0.334  0.00  0.00     0.190 HD
BRANCH  19  22
ATOM     22  C   UNL d   1      24.325 -17.638  -1.166  0.00  0.00     0.112 C 
BRANCH  22  23
ATOM     23  C   UNL d   1      23.076 -16.977  -0.585  0.00  0.00     0.098 C 
BRANCH  23  24
ATOM     24  C   UNL d   1      21.921 -17.899  -0.480  0.00  0.00     0.173 A 
ATOM     25  N   UNL d   1      21.755 -18.926   0.318  0.00  0.00    -0.208 NA
ATOM     26  C   UNL d   1      20.469 -19.317   0.035  0.00  0.00     0.159 A 
ATOM     27  N   UNL d   1      19.851 -18.575  -0.895  0.00  0.00    -0.111 NA
ATOM     28  O   UNL d   1      20.822 -17.628  -1.245  0.00  0.00    -0.196 OA
BRANCH  26  29
ATOM     29  C   UNL d   1      19.819 -20.480   0.718  0.00  0.00     0.051 C 
ATOM     30  C   UNL d   1      19.688 -20.247   2.224  0.00  0.00     0.018 C 
ATOM     31  C   UNL d   1      18.432 -20.765   0.130  0.00  0.00     0.018 C 
ENDBRANCH  26  29
ENDBRANCH  23  24
ENDBRANCH  22  23
ENDBRANCH  19  22
ENDBRANCH   1  18
TORSDOF 9
ENDMDL
MODEL 4
REMARK VINA RESULT:   -31.947      3.610      5.623
REMARK INTER + INTRA:         -36.150
REMARK INTER:                 -34.631
REMARK INTRA:                  -1.518
REMARK CONF_INDEPENDENT:        2.685
REMARK UNBOUND:                -1.518
REMARK  9 active torsions:
REMARK  status: ('A' for Active; 'I' for Inactive)
REMARK       I    between atoms: C_2  and  N_4 
REMARK    1  A    between atoms: N_4  and  C_5 
REMARK    2  A    between atoms: C_9  and  N_10 
REMARK    3  A    between atoms: N_10  and  C_11 
REMARK    4  A    between atoms: C_11  and  N_13 
REMARK    5  A    between atoms: N_13  and  N_14 
REMARK       I    between atoms: N_14  and  C_15 
REMARK    6  A    between atoms: C_15  and  C_17 
REMARK    7  A    between atoms: C_17  and  C_18 
REMARK    8  A    between atoms: C_18  and  C_19 
REMARK    9  A    between atoms: C_21  and  C_22 
ROOT
ATOM      1  N   UNL d   1      26.963 -15.995   0.354  0.00  0.00    -0.274 N 
ATOM      2  H   UNL d   1      27.487 -16.660   0.917  0.00  0.00     0.189 HD
ENDROOT
BRANCH   1   3
ATOM      3  C   UNL d   1      27.220 -14.623   0.216  0.00  0.00     0.191 C 
ATOM      4  S   UNL d   1      26.819 -13.674   1.571  0.00  0.00    -0.039 SA
BRANCH   3   5
ATOM      5  N   UNL d   1      27.766 -14.242  -1.042  0.00  0.00    -0.332 N 
ATOM      6  H   UNL d   1      28.735 -13.943  -1.054  0.00  0.00     0.168 HD
BRANCH   5   7
ATOM      7  C   UNL d   1      27.134 -14.274  -2.346  0.00  0.00     0.036 A 
ATOM      8  C   UNL d   1      26.918 -15.445  -3.084  0.00  0.00     0.029 A 
ATOM      9  C   UNL d   1      26.206 -15.394  -4.317  0.00  0.00     0.004 A 
ATOM     10  C   UNL d   1      25.731 -14.178  -4.846  0.00  0.00     0.029 A 
ATOM     11  C   UNL d   1      25.979 -13.013  -4.148  0.00  0.00     0.036 A 
ATOM     12  C   UNL d   1      26.670 -13.112  -2.945  0.00  0.00     0.059 A 
BRANCH  11  13
ATOM     13  N   UNL d   1      25.509 -11.733  -4.542  0.00  0.00    -0.327 N 
ATOM     14  C   UNL d   1      25.985 -11.077  -5.676  0.00  0.00     0.218 C 
ATOM     15  C   UNL d   1      25.486  -9.671  -5.869  0.00  0.00     0.117 C 
ATOM     16  O   UNL d   1      26.715 -11.575  -6.533  0.00  0.00    -0.274 OA
ATOM     17  H   UNL d   1      24.791 -11.301  -3.976  0.00  0.00     0.169 HD
ENDBRANCH  11  13
ENDBRANCH   5   7
ENDBRANCH   3   5
ENDBRANCH   1   3
BRANCH   1  18
ATOM     18  N   UNL d   1      25.865 -16.531  -0.416  0.00  0.00    -0.268 N 
ATOM     19  C   UNL d   1      25.435 -17.825  -0.307  0.00  0.00     0.236 C 
ATOM     20  O   UNL d   1      25.970 -18.628   0.461  0.00  0.00    -0.272 OA
ATOM     21  H   UNL d   1      25.429 -15.857  -1.052  0.00  0.00     0.190 HD
BRANCH  19  22
ATOM     22  C   UNL d   1      24.248 -18.177  -1.206  0.00  0.00     0.112 C 
BRANCH  22  23
ATOM     23  C   UNL d   1      23.029 -17.350  -0.799  0.00  0.00     0.098 C 
BRANCH  23  24
ATOM     24  C   UNL d   1      21.800 -18.161  -0.633  0.00  0.00     0.173 A 
ATOM     25  N   UNL d   1      21.599 -19.206   0.133  0.00  0.00    -0.208 NA
ATOM     26  C   UNL d   1      20.261 -19.457  -0.053  0.00  0.00     0.159 A 
ATOM     27  N   UNL d   1      19.646 -18.615  -0.895  0.00  0.00    -0.111 NA
ATOM     28  O   UNL d   1      20.675 -17.749  -1.288  0.00  0.00    -0.196 OA
BRANCH  26  29
ATOM     29  C   UNL d   1      19.557 -20.586   0.634  0.00  0.00     0.051 C 
ATOM     30  C   UNL d   1      19.625 -20.447   2.156  0.00  0.00     0.018 C 
ATOM     31  C   UNL d   1      18.089 -20.669   0.201  0.00  0.00     0.018 C 
ENDBRANCH  26  29
ENDBRANCH  23  24
ENDBRANCH  22  23
ENDBRANCH  19  22
ENDBRANCH   1  18
TORSDOF 9
ENDMDL
MODEL 5
REMARK VINA RESULT:   -31.821      5.058      7.069
REMARK INTER + INTRA:         -35.775
REMARK INTER:                 -34.506
REMARK INTRA:                  -1.269
REMARK CONF_INDEPENDENT:        2.685
REMARK UNBOUND:                -1.269
REMARK  9 active torsions:
REMARK  status: ('A' for Active; 'I' for Inactive)
REMARK       I    between atoms: C_2  and  N_4 
REMARK    1  A    between atoms: N_4  and  C_5 
REMARK    2  A    between atoms: C_9  and  N_10 
REMARK    3  A    between atoms: N_10  and  C_11 
REMARK    4  A    between atoms: C_11  and  N_13 
REMARK    5  A    between atoms: N_13  and  N_14 
REMARK       I    between atoms: N_14  and  C_15 
REMARK    6  A    between atoms: C_15  and  C_17 
REMARK    7  A    between atoms: C_17  and  C_18 
REMARK    8  A    between atoms: C_18  and  C_19 
REMARK    9  A    between atoms: C_21  and  C_22 
ROOT
ATOM      1  N   UNL d   1      26.285 -15.769  -2.939  0.00  0.00    -0.274 N 
ATOM      2  H   UNL d   1      27.254 -15.879  -2.652  0.00  0.00     0.189 HD
ENDROOT
BRANCH   1   3
ATOM      3  C   UNL d   1      25.810 -15.028  -4.032  0.00  0.00     0.191 C 
ATOM      4  S   UNL d   1      24.479 -14.021  -3.697  0.00  0.00    -0.039 SA
BRANCH   3   5
ATOM      5  N   UNL d   1      26.511 -15.247  -5.251  0.00  0.00    -0.332 N 
ATOM      6  H   UNL d   1      25.953 -15.432  -6.079  0.00  0.00     0.168 HD
BRANCH   5   7
ATOM      7  C   UNL d   1      27.939 -15.189  -5.492  0.00  0.00     0.036 A 
ATOM      8  C   UNL d   1      28.884 -15.952  -4.795  0.00  0.00     0.029 A 
ATOM      9  C   UNL d   1      30.259 -15.899  -5.161  0.00  0.00     0.004 A 
ATOM     10  C   UNL d   1      30.715 -15.065  -6.200  0.00  0.00     0.029 A 
ATOM     11  C   UNL d   1      29.797 -14.275  -6.863  0.00  0.00     0.036 A 
ATOM     12  C   UNL d   1      28.464 -14.366  -6.478  0.00  0.00     0.059 A 
BRANCH  11  13
ATOM     13  N   UNL d   1      30.116 -13.435  -7.962  0.00  0.00    -0.327 N 
ATOM     14  C   UNL d   1      31.303 -12.705  -8.028  0.00  0.00     0.218 C 
ATOM     15  C   UNL d   1      31.418 -11.757  -9.190  0.00  0.00     0.117 C 
ATOM     16  O   UNL d   1      32.255 -12.825  -7.256  0.00  0.00    -0.274 OA
ATOM     17  H   UNL d   1      29.454 -13.385  -8.724  0.00  0.00     0.169 HD
ENDBRANCH  11  13
ENDBRANCH   5   7
ENDBRANCH   3   5
ENDBRANCH   1   3
BRANCH   1  18
ATOM     18  N   UNL d   1      25.300 -16.486  -2.164  0.00  0.00    -0.268 N 
ATOM     19  C   UNL d   1      25.525 -16.923  -0.887  0.00  0.00     0.236 C 
ATOM     20  O   UNL d   1      26.601 -16.737  -0.314  0.00  0.00    -0.272 OA
ATOM     21  H   UNL d   1      24.411 -16.639  -2.650  0.00  0.00     0.190 HD
BRANCH  19  22
ATOM     22  C   UNL d   1      24.340 -17.650  -0.247  0.00  0.00     0.112 C 
BRANCH  22  23
ATOM     23  C   UNL d   1      23.030 -17.060  -0.768  0.00  0.00     0.098 C 
BRANCH  23  24
ATOM     24  C   UNL d   1      21.868 -17.960  -0.581  0.00  0.00     0.173 A 
ATOM     25  N   UNL d   1      21.716 -18.944   0.271  0.00  0.00    -0.208 NA
ATOM     26  C   UNL d   1      20.416 -19.330   0.050  0.00  0.00     0.159 A 
ATOM     27  N   UNL d   1      19.777 -18.627  -0.895  0.00  0.00    -0.111 NA
ATOM     28  O   UNL d   1      20.748 -17.712  -1.322  0.00  0.00    -0.196 OA
BRANCH  26  29
ATOM     29  C   UNL d   1      19.775 -20.450   0.810  0.00  0.00     0.051 C 
ATOM     30  C   UNL d   1      19.626 -20.109   2.295  0.00  0.00     0.018 C 
ATOM     31  C   UNL d   1      18.398 -20.795   0.232  0.00  0.00     0.018 C 
ENDBRANCH  26  29
ENDBRANCH  23  24
ENDBRANCH  22  23
ENDBRANCH  19  22
ENDBRANCH   1  18
TORSDOF 9
ENDMDL
MODEL 6
REMARK VINA RESULT:   -31.743      1.591      1.598
REMARK INTER + INTRA:         -36.122
REMARK INTER:                 -34.428
REMARK INTRA:                  -1.693
REMARK CONF_INDEPENDENT:        2.685
REMARK UNBOUND:                -1.693
REMARK  9 active torsions:
REMARK  status: ('A' for Active; 'I' for Inactive)
REMARK       I    between atoms: C_2  and  N_4 
REMARK    1  A    between atoms: N_4  and  C_5 
REMARK    2  A    between atoms: C_9  and  N_10 
REMARK    3  A    between atoms: N_10  and  C_11 
REMARK    4  A    between atoms: C_11  and  N_13 
REMARK    5  A    between atoms: N_13  and  N_14 
REMARK       I    between atoms: N_14  and  C_15 
REMARK    6  A    between atoms: C_15  and  C_17 
REMARK    7  A    between atoms: C_17  and  C_18 
REMARK    8  A    between atoms: C_18  and  C_19 
REMARK    9  A    between atoms: C_21  and  C_22 
ROOT
ATOM      1  N   UNL d   1      26.009 -16.235  -2.293  0.00  0.00    -0.274 N 
ATOM      2  H   UNL d   1      26.464 -16.617  -3.118  0.00  0.00     0.189 HD
ENDROOT
BRANCH   1   3
ATOM      3  C   UNL d   1      26.231 -14.976  -1.716  0.00  0.00     0.191 C 
ATOM      4  S   UNL d   1      26.267 -13.676  -2.814  0.00  0.00    -0.039 SA
BRANCH   3   5
ATOM      5  N   UNL d   1      26.401 -14.989  -0.303  0.00  0.00    -0.332 N 
ATOM      6  H   UNL d   1      25.918 -15.717   0.215  0.00  0.00     0.168 HD
BRANCH   5   7
ATOM      7  C   UNL d   1      27.227 -14.122   0.514  0.00  0.00     0.036 A 
ATOM      8  C   UNL d   1      27.551 -12.802   0.176  0.00  0.00     0.029 A 
ATOM      9  C   UNL d   1      28.294 -11.993   1.082  0.00  0.00     0.004 A 
ATOM     10  C   UNL d   1      28.750 -12.494   2.317  0.00  0.00     0.029 A 
ATOM     11  C   UNL d   1      28.474 -13.808   2.638  0.00  0.00     0.036 A 
ATOM     12  C   UNL d   1      27.739 -14.558   1.727  0.00  0.00     0.059 A 
BRANCH  11  13
ATOM     13  N   UNL d   1      28.827 -14.417   3.871  0.00  0.00    -0.327 N 
ATOM     14  C   UNL d   1      28.316 -13.983   5.094  0.00  0.00     0.218 C 
ATOM     15  C   UNL d   1      28.902 -14.643   6.312  0.00  0.00     0.117 C 
ATOM     16  O   UNL d   1      27.407 -13.165   5.235  0.00  0.00    -0.274 OA
ATOM     17  H   UNL d   1      29.462 -15.203   3.843  0.00  0.00     0.169 HD
ENDBRANCH  11  13
ENDBRANCH   5   7
ENDBRANCH   3   5
ENDBRANCH   1   3
BRANCH   1  18
ATOM     18  N   UNL d   1      24.997 -17.062  -1.678  0.00  0.00    -0.268 N 
ATOM     19  C   UNL d   1      25.215 -17.792  -0.542  0.00  0.00     0.236 C 
ATOM     20  O   UNL d   1      26.307 -17.796   0.032  0.00  0.00    -0.272 OA
ATOM     21  H   UNL d   1      24.095 -17.055  -2.164  0.00  0.00     0.190 HD
BRANCH  19  22
ATOM     22  C   UNL d   1      24.002 -18.587  -0.055  0.00  0.00     0.112 C 
BRANCH  22  23
ATOM     23  C   UNL d   1      22.721 -17.813  -0.363  0.00  0.00     0.098 C 
BRANCH  23  24
ATOM     24  C   UNL d   1      21.511 -18.668  -0.384  0.00  0.00     0.173 A 
ATOM     25  N   UNL d   1      21.117 -19.561   0.492  0.00  0.00    -0.208 NA
ATOM     26  C   UNL d   1      19.894 -19.943  -0.003  0.00  0.00     0.159 A 
ATOM     27  N   UNL d   1      19.531 -19.325  -1.136  0.00  0.00    -0.111 NA
ATOM     28  O   UNL d   1      20.614 -18.474  -1.395  0.00  0.00    -0.196 OA
BRANCH  26  29
ATOM     29  C   UNL d   1      19.042 -20.970   0.677  0.00  0.00     0.051 C 
ATOM     30  C   UNL d   1      18.767 -20.597   2.135  0.00  0.00     0.018 C 
ATOM     31  C   UNL d   1      17.709 -21.157  -0.055  0.00  0.00     0.018 C 
ENDBRANCH  26  29
ENDBRANCH  23  24
ENDBRANCH  22  23
ENDBRANCH  19  22
ENDBRANCH   1  18
TORSDOF 9
ENDMDL
MODEL 7
REMARK VINA RESULT:   -31.536      3.239      5.485
REMARK INTER + INTRA:         -36.051
REMARK INTER:                 -34.220
REMARK INTRA:                  -1.831
REMARK CONF_INDEPENDENT:        2.685
REMARK UNBOUND:                -1.831
REMARK  9 active torsions:
REMARK  status: ('A' for Active; 'I' for Inactive)
REMARK       I    between atoms: C_2  and  N_4 
REMARK    1  A    between atoms: N_4  and  C_5 
REMARK    2  A    between atoms: C_9  and  N_10 
REMARK    3  A    between atoms: N_10  and  C_11 
REMARK    4  A    between atoms: C_11  and  N_13 
REMARK    5  A    between atoms: N_13  and  N_14 
REMARK       I    between atoms: N_14  and  C_15 
REMARK    6  A    between atoms: C_15  and  C_17 
REMARK    7  A    between atoms: C_17  and  C_18 
REMARK    8  A    between atoms: C_18  and  C_19 
REMARK    9  A    between atoms: C_21  and  C_22 
ROOT
ATOM      1  N   UNL d   1      27.814 -17.140   0.095  0.00  0.00    -0.274 N 
ATOM      2  H   UNL d   1      28.268 -17.401   0.966  0.00  0.00     0.189 HD
ENDROOT
BRANCH   1   3
ATOM      3  C   UNL d   1      28.265 -16.195  -0.838  0.00  0.00     0.191 C 
ATOM      4  S   UNL d   1      29.919 -16.301  -1.230  0.00  0.00    -0.039 SA
BRANCH   3   5
ATOM      5  N   UNL d   1      27.269 -15.291  -1.301  0.00  0.00    -0.332 N 
ATOM      6  H   UNL d   1      26.772 -14.751  -0.599  0.00  0.00     0.168 HD
BRANCH   5   7
ATOM      7  C   UNL d   1      26.893 -14.985  -2.667  0.00  0.00     0.036 A 
ATOM      8  C   UNL d   1      25.625 -14.527  -3.047  0.00  0.00     0.029 A 
ATOM      9  C   UNL d   1      25.370 -14.163  -4.400  0.00  0.00     0.004 A 
ATOM     10  C   UNL d   1      26.359 -14.281  -5.396  0.00  0.00     0.029 A 
ATOM     11  C   UNL d   1      27.598 -14.775  -5.039  0.00  0.00     0.036 A 
ATOM     12  C   UNL d   1      27.804 -15.109  -3.705  0.00  0.00     0.059 A 
BRANCH  11  13
ATOM     13  N   UNL d   1      28.696 -14.891  -5.931  0.00  0.00    -0.327 N 
ATOM     14  C   UNL d   1      29.612 -15.941  -5.859  0.00  0.00     0.218 C 
ATOM     15  C   UNL d   1      30.793 -15.835  -6.785  0.00  0.00     0.117 C 
ATOM     16  O   UNL d   1      29.491 -16.943  -5.155  0.00  0.00    -0.274 OA
ATOM     17  H   UNL d   1      28.796 -14.186  -6.648  0.00  0.00     0.169 HD
ENDBRANCH  11  13
ENDBRANCH   5   7
ENDBRANCH   3   5
ENDBRANCH   1   3
BRANCH   1  18
ATOM     18  N   UNL d   1      26.600 -17.850  -0.234  0.00  0.00    -0.268 N 
ATOM     19  C   UNL d   1      25.365 -17.263  -0.228  0.00  0.00     0.236 C 
ATOM     20  O   UNL d   1      25.207 -16.077   0.073  0.00  0.00    -0.272 OA
ATOM     21  H   UNL d   1      26.741 -18.834  -0.479  0.00  0.00     0.190 HD
BRANCH  19  22
ATOM     22  C   UNL d   1      24.217 -18.195  -0.621  0.00  0.00     0.112 C 
BRANCH  22  23
ATOM     23  C   UNL d   1      22.885 -17.458  -0.490  0.00  0.00     0.098 C 
BRANCH  23  24
ATOM     24  C   UNL d   1      21.721 -18.367  -0.376  0.00  0.00     0.173 A 
ATOM     25  N   UNL d   1      21.471 -19.278   0.533  0.00  0.00    -0.208 NA
ATOM     26  C   UNL d   1      20.218 -19.715   0.180  0.00  0.00     0.159 A 
ATOM     27  N   UNL d   1      19.699 -19.112  -0.899  0.00  0.00    -0.111 NA
ATOM     28  O   UNL d   1      20.705 -18.212  -1.276  0.00  0.00    -0.196 OA
BRANCH  26  29
ATOM     29  C   UNL d   1      19.498 -20.781   0.946  0.00  0.00     0.051 C 
ATOM     30  C   UNL d   1      19.426 -20.450   2.438  0.00  0.00     0.018 C 
ATOM     31  C   UNL d   1      18.078 -20.988   0.407  0.00  0.00     0.018 C 
ENDBRANCH  26  29
ENDBRANCH  23  24
ENDBRANCH  22  23
ENDBRANCH  19  22
ENDBRANCH   1  18
TORSDOF 9
ENDMDL
MODEL 8
REMARK VINA RESULT:   -31.406      2.410      3.622
REMARK INTER + INTRA:         -36.003
REMARK INTER:                 -34.091
REMARK INTRA:                  -1.912
REMARK CONF_INDEPENDENT:        2.685
REMARK UNBOUND:                -1.912
REMARK  9 active torsions:
REMARK  status: ('A' for Active; 'I' for Inactive)
REMARK       I    between atoms: C_2  and  N_4 
REMARK    1  A    between atoms: N_4  and  C_5 
REMARK    2  A    between atoms: C_9  and  N_10 
REMARK    3  A    between atoms: N_10  and  C_11 
REMARK    4  A    between atoms: C_11  and  N_13 
REMARK    5  A    between atoms: N_13  and  N_14 
REMARK       I    between atoms: N_14  and  C_15 
REMARK    6  A    between atoms: C_15  and  C_17 
REMARK    7  A    between atoms: C_17  and  C_18 
REMARK    8  A    between atoms: C_18  and  C_19 
REMARK    9  A    between atoms: C_21  and  C_22 
ROOT
ATOM      1  N   UNL d   1      26.189 -14.687  -2.381  0.00  0.00    -0.274 N 
ATOM      2  H   UNL d   1      26.628 -14.012  -1.760  0.00  0.00     0.189 HD
ENDROOT
BRANCH   1   3
ATOM      3  C   UNL d   1      26.684 -15.144  -3.612  0.00  0.00     0.191 C 
ATOM      4  S   UNL d   1      25.579 -15.072  -4.905  0.00  0.00    -0.039 SA
BRANCH   3   5
ATOM      5  N   UNL d   1      28.030 -15.605  -3.580  0.00  0.00    -0.332 N 
ATOM      6  H   UNL d   1      28.552 -15.570  -4.449  0.00  0.00     0.168 HD
BRANCH   5   7
ATOM      7  C   UNL d   1      28.793 -16.079  -2.443  0.00  0.00     0.036 A 
ATOM      8  C   UNL d   1      29.858 -16.984  -2.536  0.00  0.00     0.029 A 
ATOM      9  C   UNL d   1      30.613 -17.325  -1.377  0.00  0.00     0.004 A 
ATOM     10  C   UNL d   1      30.298 -16.797  -0.109  0.00  0.00     0.029 A 
ATOM     11  C   UNL d   1      29.222 -15.940  -0.000  0.00  0.00     0.036 A 
ATOM     12  C   UNL d   1      28.520 -15.629  -1.159  0.00  0.00     0.059 A 
BRANCH  11  13
ATOM     13  N   UNL d   1      28.836 -15.297   1.205  0.00  0.00    -0.327 N 
ATOM     14  C   UNL d   1      27.805 -14.358   1.255  0.00  0.00     0.218 C 
ATOM     15  C   UNL d   1      27.620 -13.669   2.579  0.00  0.00     0.117 C 
ATOM     16  O   UNL d   1      27.026 -14.108   0.336  0.00  0.00    -0.274 OA
ATOM     17  H   UNL d   1      29.325 -15.550   2.051  0.00  0.00     0.169 HD
ENDBRANCH  11  13
ENDBRANCH   5   7
ENDBRANCH   3   5
ENDBRANCH   1   3
BRANCH   1  18
ATOM     18  N   UNL d   1      24.947 -15.266  -1.926  0.00  0.00    -0.268 N 
ATOM     19  C   UNL d   1      24.885 -16.283  -1.013  0.00  0.00     0.236 C 
ATOM     20  O   UNL d   1      25.900 -16.782  -0.522  0.00  0.00    -0.272 OA
ATOM     21  H   UNL d   1      24.110 -14.847  -2.342  0.00  0.00     0.190 HD
BRANCH  19  22
ATOM     22  C   UNL d   1      23.466 -16.736  -0.662  0.00  0.00     0.112 C 
BRANCH  22  23
ATOM     23  C   UNL d   1      23.335 -18.242  -0.886  0.00  0.00     0.098 C 
BRANCH  23  24
ATOM     24  C   UNL d   1      21.974 -18.759  -0.612  0.00  0.00     0.173 A 
ATOM     25  N   UNL d   1      21.406 -19.016   0.542  0.00  0.00    -0.208 NA
ATOM     26  C   UNL d   1      20.128 -19.360   0.173  0.00  0.00     0.159 A 
ATOM     27  N   UNL d   1      19.899 -19.325  -1.148  0.00  0.00    -0.111 NA
ATOM     28  O   UNL d   1      21.134 -18.927  -1.675  0.00  0.00    -0.196 OA
BRANCH  26  29
ATOM     29  C   UNL d   1      19.084 -19.744   1.174  0.00  0.00     0.051 C 
ATOM     30  C   UNL d   1      18.166 -20.844   0.636  0.00  0.00     0.018 C 
ATOM     31  C   UNL d   1      19.720 -20.217   2.486  0.00  0.00     0.018 C 
ENDBRANCH  26  29
ENDBRANCH  23  24
ENDBRANCH  22  23
ENDBRANCH  19  22
ENDBRANCH   1  18
TORSDOF 9
ENDMDL
MODEL 9
REMARK VINA RESULT:   -31.369      4.171      5.358
REMARK INTER + INTRA:         -35.976
REMARK INTER:                 -34.053
REMARK INTRA:                  -1.923
REMARK CONF_INDEPENDENT:        2.685
REMARK UNBOUND:                -1.923
REMARK  9 active torsions:
REMARK  status: ('A' for Active; 'I' for Inactive)
REMARK       I    between atoms: C_2  and  N_4 
REMARK    1  A    between atoms: N_4  and  C_5 
REMARK    2  A    between atoms: C_9  and  N_10 
REMARK    3  A    between atoms: N_10  and  C_11 
REMARK    4  A    between atoms: C_11  and  N_13 
REMARK    5  A    between atoms: N_13  and  N_14 
REMARK       I    between atoms: N_14  and  C_15 
REMARK    6  A    between atoms: C_15  and  C_17 
REMARK    7  A    between atoms: C_17  and  C_18 
REMARK    8  A    between atoms: C_18  and  C_19 
REMARK    9  A    between atoms: C_21  and  C_22 
ROOT
ATOM      1  N   UNL d   1      25.927 -15.615  -3.184  0.00  0.00    -0.274 N 
ATOM      2  H   UNL d   1      26.842 -16.017  -2.999  0.00  0.00     0.189 HD
ENDROOT
BRANCH   1   3
ATOM      3  C   UNL d   1      25.613 -14.646  -4.150  0.00  0.00     0.191 C 
ATOM      4  S   UNL d   1      24.224 -13.721  -3.818  0.00  0.00    -0.039 SA
BRANCH   3   5
ATOM      5  N   UNL d   1      26.502 -14.601  -5.260  0.00  0.00    -0.332 N 
ATOM      6  H   UNL d   1      26.158 -14.169  -6.112  0.00  0.00     0.168 HD
BRANCH   5   7
ATOM      7  C   UNL d   1      27.880 -15.046  -5.331  0.00  0.00     0.036 A 
ATOM      8  C   UNL d   1      28.646 -15.040  -6.504  0.00  0.00     0.029 A 
ATOM      9  C   UNL d   1      30.021 -15.409  -6.463  0.00  0.00     0.004 A 
ATOM     10  C   UNL d   1      30.641 -15.819  -5.266  0.00  0.00     0.029 A 
ATOM     11  C   UNL d   1      29.882 -15.871  -4.115  0.00  0.00     0.036 A 
ATOM     12  C   UNL d   1      28.546 -15.494  -4.200  0.00  0.00     0.059 A 
BRANCH  11  13
ATOM     13  N   UNL d   1      30.397 -16.212  -2.836  0.00  0.00    -0.327 N 
ATOM     14  C   UNL d   1      29.594 -16.727  -1.819  0.00  0.00     0.218 C 
ATOM     15  C   UNL d   1      30.268 -16.899  -0.485  0.00  0.00     0.117 C 
ATOM     16  O   UNL d   1      28.426 -17.094  -1.951  0.00  0.00    -0.274 OA
ATOM     17  H   UNL d   1      31.386 -16.083  -2.678  0.00  0.00     0.169 HD
ENDBRANCH  11  13
ENDBRANCH   5   7
ENDBRANCH   3   5
ENDBRANCH   1   3
BRANCH   1  18
ATOM     18  N   UNL d   1      24.829 -16.128  -2.399  0.00  0.00    -0.268 N 
ATOM     19  C   UNL d   1      25.003 -16.850  -1.250  0.00  0.00     0.236 C 
ATOM     20  O   UNL d   1      26.124 -17.118  -0.811  0.00  0.00    -0.272 OA
ATOM     21  H   UNL d   1      23.903 -15.903  -2.774  0.00  0.00     0.190 HD
BRANCH  19  22
ATOM     22  C   UNL d   1      23.703 -17.284  -0.570  0.00  0.00     0.112 C 
BRANCH  22  23
ATOM     23  C   UNL d   1      23.360 -18.716  -0.980  0.00  0.00     0.098 C 
BRANCH  23  24
ATOM     24  C   UNL d   1      21.945 -19.075  -0.726  0.00  0.00     0.173 A 
ATOM     25  N   UNL d   1      21.356 -19.355   0.412  0.00  0.00    -0.208 NA
ATOM     26  C   UNL d   1      20.043 -19.500   0.038  0.00  0.00     0.159 A 
ATOM     27  N   UNL d   1      19.810 -19.322  -1.270  0.00  0.00    -0.111 NA
ATOM     28  O   UNL d   1      21.083 -19.042  -1.785  0.00  0.00    -0.196 OA
BRANCH  26  29
ATOM     29  C   UNL d   1      18.964 -19.831   1.022  0.00  0.00     0.051 C 
ATOM     30  C   UNL d   1      18.164 -21.061   0.587  0.00  0.00     0.018 C 
ATOM     31  C   UNL d   1      19.544 -20.076   2.420  0.00  0.00     0.018 C 
ENDBRANCH  26  29
ENDBRANCH  23  24
ENDBRANCH  22  23
ENDBRANCH  19  22
ENDBRANCH   1  18
TORSDOF 9
ENDMDL
