MODEL 1
REMARK VINA RESULT:    -7.687      0.000      0.000
REMARK INTER + INTRA:         -14.345
REMARK INTER:                 -11.565
REMARK INTRA:                  -2.780
REMARK CONF_INDEPENDENT:        3.878
REMARK UNBOUND:                -2.780
REMARK  13 active torsions:
REMARK  status: ('A' for Active; 'I' for Inactive)
REMARK    1  A    between atoms: C_2  and  C_3 
REMARK    2  A    between atoms: C_3  and  C_4 
REMARK    3  A    between atoms: C_4  and  N_5 
REMARK       I    between atoms: N_5  and  C_6 
REMARK    4  A    between atoms: C_6  and  C_8 
REMARK    5  A    between atoms: C_8  and  C_9 
REMARK    6  A    between atoms: C_8  and  N_18 
REMARK    7  A    between atoms: C_10  and  O_11 
REMARK    8  A    between atoms: C_13  and  O_14 
REMARK    9  A    between atoms: C_16  and  O_17 
REMARK       I    between atoms: N_18  and  C_19 
REMARK   10  A    between atoms: N_18  and  C_25 
REMARK   11  A    between atoms: C_19  and  C_21 
REMARK   12  A    between atoms: C_21  and  C_22 
REMARK   13  A    between atoms: C_22  and  C_23 
ROOT
ATOM      1  C   UNL d   1      25.915 -14.970  -1.610  0.00  0.00     0.212 C 
ENDROOT
BRANCH   1   2
ATOM      2  C   UNL d   1      26.546 -13.926  -0.587  0.00  0.00     0.225 C 
ATOM      3  N   UNL d   1      26.642 -14.177   0.764  0.00  0.00    -0.261 NA
ATOM      4  H   UNL d   1      25.843 -14.701   1.100  0.00  0.00     0.130 HD
ATOM      5  O   UNL d   1      26.836 -12.790  -0.835  0.00  0.00    -0.277 OA
BRANCH   3   6
ATOM      6  C   UNL d   1      26.856 -12.892   1.448  0.00  0.00     0.095 C 
BRANCH   6   7
ATOM      7  C   UNL d   1      27.047 -13.073   2.907  0.00  0.00     0.014 C 
BRANCH   7   8
ATOM      8  C   UNL d   1      28.028 -14.203   3.147  0.00  0.00    -0.003 C 
ATOM      9  C   UNL d   1      28.077 -14.449   4.634  0.00  0.00     0.005 C 
ENDBRANCH   7   8
ENDBRANCH   6   7
ENDBRANCH   3   6
ENDBRANCH   1   2
BRANCH   1  10
ATOM     10  C   UNL d   1      26.604 -14.812  -2.993  0.00  0.00     0.040 C 
ATOM     11  C   UNL d   1      25.845 -14.788  -4.136  0.00  0.00     0.080 C 
ATOM     12  C   UNL d   1      26.324 -15.204  -5.396  0.00  0.00     0.073 C 
ATOM     13  C   UNL d   1      27.648 -15.029  -5.652  0.00  0.00     0.071 C 
ATOM     14  C   UNL d   1      28.424 -14.544  -4.628  0.00  0.00     0.073 C 
ATOM     15  C   UNL d   1      27.921 -14.502  -3.311  0.00  0.00     0.080 C 
BRANCH  11  16
ATOM     16  O   UNL d   1      24.543 -14.356  -4.041  0.00  0.00    -0.360 OA
ATOM     17  H   UNL d   1      24.293 -14.042  -4.923  0.00  0.00     0.217 HD
ENDBRANCH  11  16
BRANCH  13  18
ATOM     18  O   UNL d   1      28.175 -15.170  -6.894  0.00  0.00    -0.361 OA
ATOM     19  H   UNL d   1      28.494 -14.305  -7.209  0.00  0.00     0.217 HD
ENDBRANCH  13  18
BRANCH  15  20
ATOM     20  O   UNL d   1      28.743 -13.958  -2.379  0.00  0.00    -0.360 OA
ATOM     21  H   UNL d   1      28.289 -13.231  -1.924  0.00  0.00     0.217 HD
ENDBRANCH  15  20
ENDBRANCH   1  10
BRANCH   1  22
ATOM     22  N   UNL d   1      25.716 -16.576  -1.161  0.00  0.00    -0.330 N 
ATOM     23  C   UNL d   1      26.735 -17.346  -0.514  0.00  0.00     0.221 C 
ATOM     24  O   UNL d   1      26.621 -18.487  -0.067  0.00  0.00    -0.273 OA
BRANCH  23  25
ATOM     25  C   UNL d   1      28.080 -16.786  -0.352  0.00  0.00     0.103 C 
BRANCH  25  26
ATOM     26  C   UNL d   1      29.158 -17.069  -1.347  0.00  0.00     0.009 C 
BRANCH  26  27
ATOM     27  C   UNL d   1      30.356 -16.150  -1.085  0.00  0.00    -0.004 C 
ATOM     28  C   UNL d   1      30.315 -15.774   0.375  0.00  0.00     0.005 C 
ENDBRANCH  26  27
ENDBRANCH  25  26
ENDBRANCH  23  25
BRANCH  22  29
ATOM     29  C   UNL d   1      24.334 -17.316  -1.246  0.00  0.00     0.088 C 
ATOM     30  C   UNL d   1      24.177 -18.571  -0.348  0.00  0.00     0.025 C 
ATOM     31  C   UNL d   1      22.925 -19.403  -0.509  0.00  0.00     0.002 C 
ATOM     32  C   UNL d   1      21.810 -18.556  -0.033  0.00  0.00     0.000 C 
ATOM     33  C   UNL d   1      21.781 -17.305  -0.897  0.00  0.00     0.002 C 
ATOM     34  C   UNL d   1      23.081 -16.505  -0.836  0.00  0.00     0.025 C 
ENDBRANCH  22  29
ENDBRANCH   1  22
TORSDOF 13
ENDMDL
MODEL 2
REMARK VINA RESULT:    -6.963      1.977      5.291
REMARK INTER + INTRA:         -14.628
REMARK INTER:                 -10.841
REMARK INTRA:                  -3.787
REMARK CONF_INDEPENDENT:        3.878
REMARK UNBOUND:                -3.787
REMARK  13 active torsions:
REMARK  status: ('A' for Active; 'I' for Inactive)
REMARK    1  A    between atoms: C_2  and  C_3 
REMARK    2  A    between atoms: C_3  and  C_4 
REMARK    3  A    between atoms: C_4  and  N_5 
REMARK       I    between atoms: N_5  and  C_6 
REMARK    4  A    between atoms: C_6  and  C_8 
REMARK    5  A    between atoms: C_8  and  C_9 
REMARK    6  A    between atoms: C_8  and  N_18 
REMARK    7  A    between atoms: C_10  and  O_11 
REMARK    8  A    between atoms: C_13  and  O_14 
REMARK    9  A    between atoms: C_16  and  O_17 
REMARK       I    between atoms: N_18  and  C_19 
REMARK   10  A    between atoms: N_18  and  C_25 
REMARK   11  A    between atoms: C_19  and  C_21 
REMARK   12  A    between atoms: C_21  and  C_22 
REMARK   13  A    between atoms: C_22  and  C_23 
ROOT
ATOM      1  C   UNL d   1      26.824 -16.215  -2.219  0.00  0.00     0.212 C 
ENDROOT
BRANCH   1   2
ATOM      2  C   UNL d   1      25.612 -16.864  -1.416  0.00  0.00     0.225 C 
ATOM      3  N   UNL d   1      24.536 -17.451  -2.045  0.00  0.00    -0.261 NA
ATOM      4  H   UNL d   1      24.292 -16.960  -2.896  0.00  0.00     0.130 HD
ATOM      5  O   UNL d   1      25.421 -16.767  -0.237  0.00  0.00    -0.277 OA
BRANCH   3   6
ATOM      6  C   UNL d   1      23.440 -17.549  -1.067  0.00  0.00     0.095 C 
BRANCH   6   7
ATOM      7  C   UNL d   1      22.847 -18.907  -1.043  0.00  0.00     0.014 C 
BRANCH   7   8
ATOM      8  C   UNL d   1      21.678 -18.926  -0.078  0.00  0.00    -0.003 C 
ATOM      9  C   UNL d   1      20.423 -19.101  -0.895  0.00  0.00     0.005 C 
ENDBRANCH   7   8
ENDBRANCH   6   7
ENDBRANCH   3   6
ENDBRANCH   1   2
BRANCH   1  10
ATOM     10  C   UNL d   1      26.279 -15.115  -3.170  0.00  0.00     0.040 C 
ATOM     11  C   UNL d   1      26.931 -14.844  -4.347  0.00  0.00     0.080 C 
ATOM     12  C   UNL d   1      26.898 -13.584  -4.982  0.00  0.00     0.073 C 
ATOM     13  C   UNL d   1      25.773 -12.835  -4.831  0.00  0.00     0.071 C 
ATOM     14  C   UNL d   1      24.799 -13.332  -3.999  0.00  0.00     0.073 C 
ATOM     15  C   UNL d   1      25.079 -14.413  -3.139  0.00  0.00     0.080 C 
BRANCH  11  16
ATOM     16  O   UNL d   1      27.671 -15.848  -4.924  0.00  0.00    -0.360 OA
ATOM     17  H   UNL d   1      28.565 -15.494  -5.048  0.00  0.00     0.217 HD
ENDBRANCH  11  16
BRANCH  13  18
ATOM     18  O   UNL d   1      25.530 -11.727  -5.573  0.00  0.00    -0.361 OA
ATOM     19  H   UNL d   1      24.780 -11.239  -5.189  0.00  0.00     0.217 HD
ENDBRANCH  13  18
BRANCH  15  20
ATOM     20  O   UNL d   1      24.039 -14.865  -2.395  0.00  0.00    -0.360 OA
ATOM     21  H   UNL d   1      24.372 -15.309  -1.599  0.00  0.00     0.217 HD
ENDBRANCH  15  20
ENDBRANCH   1  10
BRANCH   1  22
ATOM     22  N   UNL d   1      28.216 -15.742  -1.407  0.00  0.00    -0.330 N 
ATOM     23  C   UNL d   1      29.536 -16.115  -1.820  0.00  0.00     0.221 C 
ATOM     24  O   UNL d   1      30.596 -15.721  -1.336  0.00  0.00    -0.273 OA
BRANCH  23  25
ATOM     25  C   UNL d   1      29.713 -17.075  -2.914  0.00  0.00     0.103 C 
BRANCH  25  26
ATOM     26  C   UNL d   1      30.439 -16.695  -4.163  0.00  0.00     0.009 C 
BRANCH  26  27
ATOM     27  C   UNL d   1      30.331 -17.828  -5.188  0.00  0.00    -0.004 C 
ATOM     28  C   UNL d   1      30.780 -17.269  -6.516  0.00  0.00     0.005 C 
ENDBRANCH  26  27
ENDBRANCH  25  26
ENDBRANCH  23  25
BRANCH  22  29
ATOM     29  C   UNL d   1      28.201 -14.701  -0.232  0.00  0.00     0.088 C 
ATOM     30  C   UNL d   1      27.225 -13.507  -0.394  0.00  0.00     0.025 C 
ATOM     31  C   UNL d   1      27.286 -12.400   0.635  0.00  0.00     0.002 C 
ATOM     32  C   UNL d   1      26.815 -12.999   1.903  0.00  0.00     0.000 C 
ATOM     33  C   UNL d   1      27.749 -14.149   2.244  0.00  0.00     0.002 C 
ATOM     34  C   UNL d   1      27.789 -15.228   1.164  0.00  0.00     0.025 C 
ENDBRANCH  22  29
ENDBRANCH   1  22
TORSDOF 13
ENDMDL
MODEL 3
REMARK VINA RESULT:    -6.663      1.650      3.742
REMARK INTER + INTRA:         -14.325
REMARK INTER:                 -10.541
REMARK INTRA:                  -3.784
REMARK CONF_INDEPENDENT:        3.878
REMARK UNBOUND:                -3.784
REMARK  13 active torsions:
REMARK  status: ('A' for Active; 'I' for Inactive)
REMARK    1  A    between atoms: C_2  and  C_3 
REMARK    2  A    between atoms: C_3  and  C_4 
REMARK    3  A    between atoms: C_4  and  N_5 
REMARK       I    between atoms: N_5  and  C_6 
REMARK    4  A    between atoms: C_6  and  C_8 
REMARK    5  A    between atoms: C_8  and  C_9 
REMARK    6  A    between atoms: C_8  and  N_18 
REMARK    7  A    between atoms: C_10  and  O_11 
REMARK    8  A    between atoms: C_13  and  O_14 
REMARK    9  A    between atoms: C_16  and  O_17 
REMARK       I    between atoms: N_18  and  C_19 
REMARK   10  A    between atoms: N_18  and  C_25 
REMARK   11  A    between atoms: C_19  and  C_21 
REMARK   12  A    between atoms: C_21  and  C_22 
REMARK   13  A    between atoms: C_22  and  C_23 
ROOT
ATOM      1  C   UNL d   1      27.279 -14.476  -1.184  0.00  0.00     0.212 C 
ENDROOT
BRANCH   1   2
ATOM      2  C   UNL d   1      27.252 -14.049   0.349  0.00  0.00     0.225 C 
ATOM      3  N   UNL d   1      28.351 -14.167   1.171  0.00  0.00    -0.261 NA
ATOM      4  H   UNL d   1      28.890 -14.996   0.950  0.00  0.00     0.130 HD
ATOM      5  O   UNL d   1      26.275 -13.753   0.977  0.00  0.00    -0.277 OA
BRANCH   3   6
ATOM      6  C   UNL d   1      27.882 -14.103   2.565  0.00  0.00     0.095 C 
BRANCH   6   7
ATOM      7  C   UNL d   1      28.959 -14.449   3.522  0.00  0.00     0.014 C 
BRANCH   7   8
ATOM      8  C   UNL d   1      28.343 -14.824   4.855  0.00  0.00    -0.003 C 
ATOM      9  C   UNL d   1      27.406 -13.709   5.247  0.00  0.00     0.005 C 
ENDBRANCH   7   8
ENDBRANCH   6   7
ENDBRANCH   3   6
ENDBRANCH   1   2
BRANCH   1  10
ATOM     10  C   UNL d   1      28.398 -15.531  -1.403  0.00  0.00     0.040 C 
ATOM     11  C   UNL d   1      29.369 -15.311  -2.346  0.00  0.00     0.080 C 
ATOM     12  C   UNL d   1      30.055 -16.349  -3.012  0.00  0.00     0.073 C 
ATOM     13  C   UNL d   1      30.250 -17.510  -2.332  0.00  0.00     0.071 C 
ATOM     14  C   UNL d   1      29.684 -17.605  -1.084  0.00  0.00     0.073 C 
ATOM     15  C   UNL d   1      28.725 -16.661  -0.662  0.00  0.00     0.080 C 
BRANCH  11  16
ATOM     16  O   UNL d   1      29.674 -14.011  -2.672  0.00  0.00    -0.360 OA
ATOM     17  H   UNL d   1      30.621 -13.899  -2.498  0.00  0.00     0.217 HD
ENDBRANCH  11  16
BRANCH  13  18
ATOM     18  O   UNL d   1      31.088 -18.481  -2.772  0.00  0.00    -0.361 OA
ATOM     19  H   UNL d   1      31.426 -18.986  -2.011  0.00  0.00     0.217 HD
ENDBRANCH  13  18
BRANCH  15  20
ATOM     20  O   UNL d   1      28.263 -16.810   0.605  0.00  0.00    -0.360 OA
ATOM     21  H   UNL d   1      28.844 -16.340   1.223  0.00  0.00     0.217 HD
ENDBRANCH  15  20
ENDBRANCH   1  10
BRANCH   1  22
ATOM     22  N   UNL d   1      25.850 -14.868  -1.975  0.00  0.00    -0.330 N 
ATOM     23  C   UNL d   1      25.357 -14.154  -3.113  0.00  0.00     0.221 C 
ATOM     24  O   UNL d   1      24.379 -14.450  -3.799  0.00  0.00    -0.273 OA
BRANCH  23  25
ATOM     25  C   UNL d   1      26.026 -12.925  -3.549  0.00  0.00     0.103 C 
BRANCH  25  26
ATOM     26  C   UNL d   1      27.047 -12.949  -4.640  0.00  0.00     0.009 C 
BRANCH  26  27
ATOM     27  C   UNL d   1      27.017 -14.309  -5.345  0.00  0.00    -0.004 C 
ATOM     28  C   UNL d   1      28.445 -14.670  -5.673  0.00  0.00     0.005 C 
ENDBRANCH  26  27
ENDBRANCH  25  26
ENDBRANCH  23  25
BRANCH  22  29
ATOM     29  C   UNL d   1      25.027 -16.164  -1.647  0.00  0.00     0.088 C 
ATOM     30  C   UNL d   1      25.533 -17.007  -0.447  0.00  0.00     0.025 C 
ATOM     31  C   UNL d   1      24.868 -18.341  -0.189  0.00  0.00     0.002 C 
ATOM     32  C   UNL d   1      23.484 -18.029   0.230  0.00  0.00     0.000 C 
ATOM     33  C   UNL d   1      22.819 -17.269  -0.906  0.00  0.00     0.002 C 
ATOM     34  C   UNL d   1      23.540 -15.970  -1.260  0.00  0.00     0.025 C 
ENDBRANCH  22  29
ENDBRANCH   1  22
TORSDOF 13
ENDMDL
MODEL 4
REMARK VINA RESULT:    -6.523      1.677      3.967
REMARK INTER + INTRA:         -14.174
REMARK INTER:                 -10.400
REMARK INTRA:                  -3.773
REMARK CONF_INDEPENDENT:        3.878
REMARK UNBOUND:                -3.773
REMARK  13 active torsions:
REMARK  status: ('A' for Active; 'I' for Inactive)
REMARK    1  A    between atoms: C_2  and  C_3 
REMARK    2  A    between atoms: C_3  and  C_4 
REMARK    3  A    between atoms: C_4  and  N_5 
REMARK       I    between atoms: N_5  and  C_6 
REMARK    4  A    between atoms: C_6  and  C_8 
REMARK    5  A    between atoms: C_8  and  C_9 
REMARK    6  A    between atoms: C_8  and  N_18 
REMARK    7  A    between atoms: C_10  and  O_11 
REMARK    8  A    between atoms: C_13  and  O_14 
REMARK    9  A    between atoms: C_16  and  O_17 
REMARK       I    between atoms: N_18  and  C_19 
REMARK   10  A    between atoms: N_18  and  C_25 
REMARK   11  A    between atoms: C_19  and  C_21 
REMARK   12  A    between atoms: C_21  and  C_22 
REMARK   13  A    between atoms: C_22  and  C_23 
ROOT
ATOM      1  C   UNL d   1      27.187 -13.993  -0.895  0.00  0.00     0.212 C 
ENDROOT
BRANCH   1   2
ATOM      2  C   UNL d   1      26.789 -13.314   0.489  0.00  0.00     0.225 C 
ATOM      3  N   UNL d   1      27.533 -12.305   1.061  0.00  0.00    -0.261 NA
ATOM      4  H   UNL d   1      28.523 -12.442   0.902  0.00  0.00     0.130 HD
ATOM      5  O   UNL d   1      25.938 -13.699   1.240  0.00  0.00    -0.277 OA
BRANCH   3   6
ATOM      6  C   UNL d   1      27.154 -12.214   2.480  0.00  0.00     0.095 C 
BRANCH   6   7
ATOM      7  C   UNL d   1      28.163 -12.851   3.359  0.00  0.00     0.014 C 
BRANCH   7   8
ATOM      8  C   UNL d   1      27.787 -14.301   3.583  0.00  0.00    -0.003 C 
ATOM      9  C   UNL d   1      28.026 -14.609   5.040  0.00  0.00     0.005 C 
ENDBRANCH   7   8
ENDBRANCH   6   7
ENDBRANCH   3   6
ENDBRANCH   1   2
BRANCH   1  10
ATOM     10  C   UNL d   1      28.440 -14.887  -0.685  0.00  0.00     0.040 C 
ATOM     11  C   UNL d   1      28.671 -15.948  -1.523  0.00  0.00     0.080 C 
ATOM     12  C   UNL d   1      29.387 -17.101  -1.138  0.00  0.00     0.073 C 
ATOM     13  C   UNL d   1      30.374 -16.948  -0.216  0.00  0.00     0.071 C 
ATOM     14  C   UNL d   1      30.532 -15.696   0.328  0.00  0.00     0.073 C 
ATOM     15  C   UNL d   1      29.542 -14.709   0.144  0.00  0.00     0.080 C 
BRANCH  11  16
ATOM     16  O   UNL d   1      28.159 -15.892  -2.798  0.00  0.00    -0.360 OA
ATOM     17  H   UNL d   1      28.696 -16.492  -3.337  0.00  0.00     0.217 HD
ENDBRANCH  11  16
BRANCH  13  18
ATOM     18  O   UNL d   1      31.275 -17.924   0.057  0.00  0.00    -0.361 OA
ATOM     19  H   UNL d   1      30.853 -18.610   0.604  0.00  0.00     0.217 HD
ENDBRANCH  13  18
BRANCH  15  20
ATOM     20  O   UNL d   1      29.813 -13.490   0.675  0.00  0.00    -0.360 OA
ATOM     21  H   UNL d   1      29.352 -13.391   1.523  0.00  0.00     0.217 HD
ENDBRANCH  15  20
ENDBRANCH   1  10
BRANCH   1  22
ATOM     22  N   UNL d   1      26.011 -14.732  -1.840  0.00  0.00    -0.330 N 
ATOM     23  C   UNL d   1      25.557 -14.202  -3.090  0.00  0.00     0.221 C 
ATOM     24  O   UNL d   1      24.780 -14.741  -3.878  0.00  0.00    -0.273 OA
BRANCH  23  25
ATOM     25  C   UNL d   1      26.008 -12.877  -3.528  0.00  0.00     0.103 C 
BRANCH  25  26
ATOM     26  C   UNL d   1      26.762 -12.704  -4.806  0.00  0.00     0.009 C 
BRANCH  26  27
ATOM     27  C   UNL d   1      27.928 -13.698  -4.857  0.00  0.00    -0.004 C 
ATOM     28  C   UNL d   1      27.509 -14.825  -5.767  0.00  0.00     0.005 C 
ENDBRANCH  26  27
ENDBRANCH  25  26
ENDBRANCH  23  25
BRANCH  22  29
ATOM     29  C   UNL d   1      25.443 -16.160  -1.524  0.00  0.00     0.088 C 
ATOM     30  C   UNL d   1      25.849 -16.768  -0.156  0.00  0.00     0.025 C 
ATOM     31  C   UNL d   1      25.454 -18.200   0.127  0.00  0.00     0.002 C 
ATOM     32  C   UNL d   1      23.978 -18.201   0.227  0.00  0.00     0.000 C 
ATOM     33  C   UNL d   1      23.426 -17.707  -1.100  0.00  0.00     0.002 C 
ATOM     34  C   UNL d   1      23.902 -16.302  -1.461  0.00  0.00     0.025 C 
ENDBRANCH  22  29
ENDBRANCH   1  22
TORSDOF 13
ENDMDL
MODEL 5
REMARK VINA RESULT:    -6.458      1.845      5.500
REMARK INTER + INTRA:         -14.006
REMARK INTER:                 -10.336
REMARK INTRA:                  -3.670
REMARK CONF_INDEPENDENT:        3.878
REMARK UNBOUND:                -3.670
REMARK  13 active torsions:
REMARK  status: ('A' for Active; 'I' for Inactive)
REMARK    1  A    between atoms: C_2  and  C_3 
REMARK    2  A    between atoms: C_3  and  C_4 
REMARK    3  A    between atoms: C_4  and  N_5 
REMARK       I    between atoms: N_5  and  C_6 
REMARK    4  A    between atoms: C_6  and  C_8 
REMARK    5  A    between atoms: C_8  and  C_9 
REMARK    6  A    between atoms: C_8  and  N_18 
REMARK    7  A    between atoms: C_10  and  O_11 
REMARK    8  A    between atoms: C_13  and  O_14 
REMARK    9  A    between atoms: C_16  and  O_17 
REMARK       I    between atoms: N_18  and  C_19 
REMARK   10  A    between atoms: N_18  and  C_25 
REMARK   11  A    between atoms: C_19  and  C_21 
REMARK   12  A    between atoms: C_21  and  C_22 
REMARK   13  A    between atoms: C_22  and  C_23 
ROOT
ATOM      1  C   UNL d   1      26.999 -16.096  -2.350  0.00  0.00     0.212 C 
ENDROOT
BRANCH   1   2
ATOM      2  C   UNL d   1      25.866 -16.629  -1.366  0.00  0.00     0.225 C 
ATOM      3  N   UNL d   1      24.777 -17.346  -1.808  0.00  0.00    -0.261 NA
ATOM      4  H   UNL d   1      24.460 -17.017  -2.712  0.00  0.00     0.130 HD
ATOM      5  O   UNL d   1      25.748 -16.335  -0.210  0.00  0.00    -0.277 OA
BRANCH   3   6
ATOM      6  C   UNL d   1      23.750 -17.303  -0.755  0.00  0.00     0.095 C 
BRANCH   6   7
ATOM      7  C   UNL d   1      23.034 -18.595  -0.635  0.00  0.00     0.014 C 
BRANCH   7   8
ATOM      8  C   UNL d   1      21.559 -18.377  -0.911  0.00  0.00    -0.003 C 
ATOM      9  C   UNL d   1      20.799 -19.441  -0.159  0.00  0.00     0.005 C 
ENDBRANCH   7   8
ENDBRANCH   6   7
ENDBRANCH   3   6
ENDBRANCH   1   2
BRANCH   1  10
ATOM     10  C   UNL d   1      26.394 -15.020  -3.292  0.00  0.00     0.040 C 
ATOM     11  C   UNL d   1      27.017 -14.721  -4.478  0.00  0.00     0.080 C 
ATOM     12  C   UNL d   1      26.921 -13.464  -5.111  0.00  0.00     0.073 C 
ATOM     13  C   UNL d   1      25.768 -12.763  -4.943  0.00  0.00     0.071 C 
ATOM     14  C   UNL d   1      24.828 -13.300  -4.098  0.00  0.00     0.073 C 
ATOM     15  C   UNL d   1      25.166 -14.370  -3.243  0.00  0.00     0.080 C 
BRANCH  11  16
ATOM     16  O   UNL d   1      27.791 -15.693  -5.066  0.00  0.00    -0.360 OA
ATOM     17  H   UNL d   1      28.305 -16.104  -4.355  0.00  0.00     0.217 HD
ENDBRANCH  11  16
BRANCH  13  18
ATOM     18  O   UNL d   1      25.468 -11.666  -5.681  0.00  0.00    -0.361 OA
ATOM     19  H   UNL d   1      24.800 -11.134  -5.212  0.00  0.00     0.217 HD
ENDBRANCH  13  18
BRANCH  15  20
ATOM     20  O   UNL d   1      24.157 -14.865  -2.484  0.00  0.00    -0.360 OA
ATOM     21  H   UNL d   1      24.503 -15.161  -1.628  0.00  0.00     0.217 HD
ENDBRANCH  15  20
ENDBRANCH   1  10
BRANCH   1  22
ATOM     22  N   UNL d   1      28.505 -15.661  -1.746  0.00  0.00    -0.330 N 
ATOM     23  C   UNL d   1      28.724 -14.504  -0.932  0.00  0.00     0.221 C 
ATOM     24  O   UNL d   1      29.774 -14.187  -0.374  0.00  0.00    -0.273 OA
BRANCH  23  25
ATOM     25  C   UNL d   1      27.634 -13.547  -0.716  0.00  0.00     0.103 C 
BRANCH  25  26
ATOM     26  C   UNL d   1      26.657 -13.731   0.398  0.00  0.00     0.009 C 
BRANCH  26  27
ATOM     27  C   UNL d   1      27.410 -13.979   1.710  0.00  0.00    -0.004 C 
ATOM     28  C   UNL d   1      27.027 -12.869   2.657  0.00  0.00     0.005 C 
ENDBRANCH  26  27
ENDBRANCH  25  26
ENDBRANCH  23  25
BRANCH  22  29
ATOM     29  C   UNL d   1      29.767 -16.586  -1.869  0.00  0.00     0.088 C 
ATOM     30  C   UNL d   1      29.807 -17.813  -0.921  0.00  0.00     0.025 C 
ATOM     31  C   UNL d   1      31.070 -18.645  -0.894  0.00  0.00     0.002 C 
ATOM     32  C   UNL d   1      31.159 -19.291  -2.221  0.00  0.00     0.000 C 
ATOM     33  C   UNL d   1      31.222 -18.189  -3.267  0.00  0.00     0.002 C 
ATOM     34  C   UNL d   1      30.005 -17.267  -3.239  0.00  0.00     0.025 C 
ENDBRANCH  22  29
ENDBRANCH   1  22
TORSDOF 13
ENDMDL
MODEL 6
REMARK VINA RESULT:    -6.389      1.094      1.526
REMARK INTER + INTRA:         -14.208
REMARK INTER:                 -10.267
REMARK INTRA:                  -3.940
REMARK CONF_INDEPENDENT:        3.878
REMARK UNBOUND:                -3.940
REMARK  13 active torsions:
REMARK  status: ('A' for Active; 'I' for Inactive)
REMARK    1  A    between atoms: C_2  and  C_3 
REMARK    2  A    between atoms: C_3  and  C_4 
REMARK    3  A    between atoms: C_4  and  N_5 
REMARK       I    between atoms: N_5  and  C_6 
REMARK    4  A    between atoms: C_6  and  C_8 
REMARK    5  A    between atoms: C_8  and  C_9 
REMARK    6  A    between atoms: C_8  and  N_18 
REMARK    7  A    between atoms: C_10  and  O_11 
REMARK    8  A    between atoms: C_13  and  O_14 
REMARK    9  A    between atoms: C_16  and  O_17 
REMARK       I    between atoms: N_18  and  C_19 
REMARK   10  A    between atoms: N_18  and  C_25 
REMARK   11  A    between atoms: C_19  and  C_21 
REMARK   12  A    between atoms: C_21  and  C_22 
REMARK   13  A    between atoms: C_22  and  C_23 
ROOT
ATOM      1  C   UNL d   1      25.904 -14.986  -0.732  0.00  0.00     0.212 C 
ENDROOT
BRANCH   1   2
ATOM      2  C   UNL d   1      26.661 -13.967   0.230  0.00  0.00     0.225 C 
ATOM      3  N   UNL d   1      26.871 -12.648  -0.105  0.00  0.00    -0.261 NA
ATOM      4  H   UNL d   1      27.055 -12.543  -1.095  0.00  0.00     0.130 HD
ATOM      5  O   UNL d   1      27.256 -14.258   1.229  0.00  0.00    -0.277 OA
BRANCH   3   6
ATOM      6  C   UNL d   1      27.935 -12.125   0.768  0.00  0.00     0.095 C 
BRANCH   6   7
ATOM      7  C   UNL d   1      27.474 -10.955   1.552  0.00  0.00     0.014 C 
BRANCH   7   8
ATOM      8  C   UNL d   1      27.538 -11.286   3.030  0.00  0.00    -0.003 C 
ATOM      9  C   UNL d   1      28.536 -12.405   3.197  0.00  0.00     0.005 C 
ENDBRANCH   7   8
ENDBRANCH   6   7
ENDBRANCH   3   6
ENDBRANCH   1   2
BRANCH   1  10
ATOM     10  C   UNL d   1      26.456 -14.833  -2.176  0.00  0.00     0.040 C 
ATOM     11  C   UNL d   1      25.592 -14.841  -3.241  0.00  0.00     0.080 C 
ATOM     12  C   UNL d   1      25.959 -15.264  -4.536  0.00  0.00     0.073 C 
ATOM     13  C   UNL d   1      27.249 -15.066  -4.919  0.00  0.00     0.071 C 
ATOM     14  C   UNL d   1      28.107 -14.550  -3.978  0.00  0.00     0.073 C 
ATOM     15  C   UNL d   1      27.730 -14.500  -2.620  0.00  0.00     0.080 C 
BRANCH  11  16
ATOM     16  O   UNL d   1      24.296 -14.436  -3.029  0.00  0.00    -0.360 OA
ATOM     17  H   UNL d   1      24.234 -13.527  -3.362  0.00  0.00     0.217 HD
ENDBRANCH  11  16
BRANCH  13  18
ATOM     18  O   UNL d   1      27.660 -15.213  -6.203  0.00  0.00    -0.361 OA
ATOM     19  H   UNL d   1      28.609 -15.432  -6.216  0.00  0.00     0.217 HD
ENDBRANCH  13  18
BRANCH  15  20
ATOM     20  O   UNL d   1      28.624 -13.926  -1.777  0.00  0.00    -0.360 OA
ATOM     21  H   UNL d   1      28.292 -13.970  -0.866  0.00  0.00     0.217 HD
ENDBRANCH  15  20
ENDBRANCH   1  10
BRANCH   1  22
ATOM     22  N   UNL d   1      25.709 -16.590  -0.275  0.00  0.00    -0.330 N 
ATOM     23  C   UNL d   1      26.783 -17.414   0.190  0.00  0.00     0.221 C 
ATOM     24  O   UNL d   1      26.692 -18.557   0.637  0.00  0.00    -0.273 OA
BRANCH  23  25
ATOM     25  C   UNL d   1      28.160 -16.914   0.141  0.00  0.00     0.103 C 
BRANCH  25  26
ATOM     26  C   UNL d   1      29.052 -17.223  -1.018  0.00  0.00     0.009 C 
BRANCH  26  27
ATOM     27  C   UNL d   1      30.249 -16.268  -1.017  0.00  0.00    -0.004 C 
ATOM     28  C   UNL d   1      30.266 -15.579   0.325  0.00  0.00     0.005 C 
ENDBRANCH  26  27
ENDBRANCH  25  26
ENDBRANCH  23  25
BRANCH  22  29
ATOM     29  C   UNL d   1      24.300 -17.270  -0.145  0.00  0.00     0.088 C 
ATOM     30  C   UNL d   1      23.194 -16.729  -1.088  0.00  0.00     0.025 C 
ATOM     31  C   UNL d   1      21.785 -17.244  -0.894  0.00  0.00     0.002 C 
ATOM     32  C   UNL d   1      21.821 -18.675  -1.268  0.00  0.00     0.000 C 
ATOM     33  C   UNL d   1      22.815 -19.366  -0.348  0.00  0.00     0.002 C 
ATOM     34  C   UNL d   1      24.224 -18.787  -0.446  0.00  0.00     0.025 C 
ENDBRANCH  22  29
ENDBRANCH   1  22
TORSDOF 13
ENDMDL
MODEL 7
REMARK VINA RESULT:    -6.172      1.851      6.518
REMARK INTER + INTRA:         -14.115
REMARK INTER:                 -10.050
REMARK INTRA:                  -4.065
REMARK CONF_INDEPENDENT:        3.878
REMARK UNBOUND:                -4.065
REMARK  13 active torsions:
REMARK  status: ('A' for Active; 'I' for Inactive)
REMARK    1  A    between atoms: C_2  and  C_3 
REMARK    2  A    between atoms: C_3  and  C_4 
REMARK    3  A    between atoms: C_4  and  N_5 
REMARK       I    between atoms: N_5  and  C_6 
REMARK    4  A    between atoms: C_6  and  C_8 
REMARK    5  A    between atoms: C_8  and  C_9 
REMARK    6  A    between atoms: C_8  and  N_18 
REMARK    7  A    between atoms: C_10  and  O_11 
REMARK    8  A    between atoms: C_13  and  O_14 
REMARK    9  A    between atoms: C_16  and  O_17 
REMARK       I    between atoms: N_18  and  C_19 
REMARK   10  A    between atoms: N_18  and  C_25 
REMARK   11  A    between atoms: C_19  and  C_21 
REMARK   12  A    between atoms: C_21  and  C_22 
REMARK   13  A    between atoms: C_22  and  C_23 
ROOT
ATOM      1  C   UNL d   1      26.078 -15.420  -1.961  0.00  0.00     0.212 C 
ENDROOT
BRANCH   1   2
ATOM      2  C   UNL d   1      24.927 -16.499  -1.749  0.00  0.00     0.225 C 
ATOM      3  N   UNL d   1      24.085 -16.481  -0.659  0.00  0.00    -0.261 NA
ATOM      4  H   UNL d   1      24.571 -16.179   0.177  0.00  0.00     0.130 HD
ATOM      5  O   UNL d   1      24.780 -17.501  -2.390  0.00  0.00    -0.277 OA
BRANCH   3   6
ATOM      6  C   UNL d   1      23.459 -17.809  -0.550  0.00  0.00     0.095 C 
BRANCH   6   7
ATOM      7  C   UNL d   1      22.018 -17.765  -0.894  0.00  0.00     0.014 C 
BRANCH   7   8
ATOM      8  C   UNL d   1      21.404 -19.129  -0.653  0.00  0.00    -0.003 C 
ATOM      9  C   UNL d   1      19.906 -18.951  -0.632  0.00  0.00     0.005 C 
ENDBRANCH   7   8
ENDBRANCH   6   7
ENDBRANCH   3   6
ENDBRANCH   1   2
BRANCH   1  10
ATOM     10  C   UNL d   1      26.772 -15.136  -0.601  0.00  0.00     0.040 C 
ATOM     11  C   UNL d   1      27.096 -13.849  -0.255  0.00  0.00     0.080 C 
ATOM     12  C   UNL d   1      28.163 -13.522   0.609  0.00  0.00     0.073 C 
ATOM     13  C   UNL d   1      28.475 -14.414   1.587  0.00  0.00     0.071 C 
ATOM     14  C   UNL d   1      27.780 -15.599   1.596  0.00  0.00     0.073 C 
ATOM     15  C   UNL d   1      26.996 -15.974   0.486  0.00  0.00     0.080 C 
BRANCH  11  16
ATOM     16  O   UNL d   1      26.355 -12.825  -0.795  0.00  0.00    -0.360 OA
ATOM     17  H   UNL d   1      26.760 -12.614  -1.650  0.00  0.00     0.217 HD
ENDBRANCH  11  16
BRANCH  13  18
ATOM     18  O   UNL d   1      29.312 -14.111   2.610  0.00  0.00    -0.361 OA
ATOM     19  H   UNL d   1      29.721 -14.929   2.945  0.00  0.00     0.217 HD
ENDBRANCH  13  18
BRANCH  15  20
ATOM     20  O   UNL d   1      26.308 -17.136   0.610  0.00  0.00    -0.360 OA
ATOM     21  H   UNL d   1      26.003 -17.433  -0.261  0.00  0.00     0.217 HD
ENDBRANCH  15  20
ENDBRANCH   1  10
BRANCH   1  22
ATOM     22  N   UNL d   1      27.169 -15.588  -3.227  0.00  0.00    -0.330 N 
ATOM     23  C   UNL d   1      26.881 -15.200  -4.574  0.00  0.00     0.221 C 
ATOM     24  O   UNL d   1      27.665 -15.199  -5.523  0.00  0.00    -0.273 OA
BRANCH  23  25
ATOM     25  C   UNL d   1      25.527 -14.768  -4.935  0.00  0.00     0.103 C 
BRANCH  25  26
ATOM     26  C   UNL d   1      24.961 -13.489  -4.409  0.00  0.00     0.009 C 
BRANCH  26  27
ATOM     27  C   UNL d   1      25.966 -12.353  -4.624  0.00  0.00    -0.004 C 
ATOM     28  C   UNL d   1      25.739 -11.345  -3.524  0.00  0.00     0.005 C 
ENDBRANCH  26  27
ENDBRANCH  25  26
ENDBRANCH  23  25
BRANCH  22  29
ATOM     29  C   UNL d   1      28.664 -16.016  -3.007  0.00  0.00     0.088 C 
ATOM     30  C   UNL d   1      29.638 -14.888  -2.576  0.00  0.00     0.025 C 
ATOM     31  C   UNL d   1      31.112 -15.218  -2.502  0.00  0.00     0.002 C 
ATOM     32  C   UNL d   1      31.257 -16.179  -1.387  0.00  0.00     0.000 C 
ATOM     33  C   UNL d   1      30.414 -17.400  -1.718  0.00  0.00     0.002 C 
ATOM     34  C   UNL d   1      28.935 -17.072  -1.908  0.00  0.00     0.025 C 
ENDBRANCH  22  29
ENDBRANCH   1  22
TORSDOF 13
ENDMDL
MODEL 8
REMARK VINA RESULT:    -5.974      7.843     10.920
REMARK INTER + INTRA:         -13.816
REMARK INTER:                  -9.852
REMARK INTRA:                  -3.964
REMARK CONF_INDEPENDENT:        3.878
REMARK UNBOUND:                -3.964
REMARK  13 active torsions:
REMARK  status: ('A' for Active; 'I' for Inactive)
REMARK    1  A    between atoms: C_2  and  C_3 
REMARK    2  A    between atoms: C_3  and  C_4 
REMARK    3  A    between atoms: C_4  and  N_5 
REMARK       I    between atoms: N_5  and  C_6 
REMARK    4  A    between atoms: C_6  and  C_8 
REMARK    5  A    between atoms: C_8  and  C_9 
REMARK    6  A    between atoms: C_8  and  N_18 
REMARK    7  A    between atoms: C_10  and  O_11 
REMARK    8  A    between atoms: C_13  and  O_14 
REMARK    9  A    between atoms: C_16  and  O_17 
REMARK       I    between atoms: N_18  and  C_19 
REMARK   10  A    between atoms: N_18  and  C_25 
REMARK   11  A    between atoms: C_19  and  C_21 
REMARK   12  A    between atoms: C_21  and  C_22 
REMARK   13  A    between atoms: C_22  and  C_23 
ROOT
ATOM      1  C   UNL d   1      33.542 -21.536   2.211  0.00  0.00     0.212 C 
ENDROOT
BRANCH   1   2
ATOM      2  C   UNL d   1      33.359 -20.286   1.242  0.00  0.00     0.225 C 
ATOM      3  N   UNL d   1      32.242 -19.481   1.272  0.00  0.00    -0.261 NA
ATOM      4  H   UNL d   1      31.406 -20.017   1.467  0.00  0.00     0.130 HD
ATOM      5  O   UNL d   1      34.058 -20.019   0.305  0.00  0.00    -0.277 OA
BRANCH   3   6
ATOM      6  C   UNL d   1      32.197 -18.724   0.010  0.00  0.00     0.095 C 
BRANCH   6   7
ATOM      7  C   UNL d   1      31.404 -19.430  -1.024  0.00  0.00     0.014 C 
BRANCH   7   8
ATOM      8  C   UNL d   1      31.986 -19.132  -2.391  0.00  0.00    -0.003 C 
ATOM      9  C   UNL d   1      31.223 -19.960  -3.395  0.00  0.00     0.005 C 
ENDBRANCH   7   8
ENDBRANCH   6   7
ENDBRANCH   3   6
ENDBRANCH   1   2
BRANCH   1  10
ATOM     10  C   UNL d   1      32.563 -21.402   3.410  0.00  0.00     0.040 C 
ATOM     11  C   UNL d   1      33.004 -20.873   4.596  0.00  0.00     0.080 C 
ATOM     12  C   UNL d   1      32.442 -21.198   5.849  0.00  0.00     0.073 C 
ATOM     13  C   UNL d   1      31.118 -21.505   5.882  0.00  0.00     0.071 C 
ATOM     14  C   UNL d   1      30.459 -21.560   4.678  0.00  0.00     0.073 C 
ATOM     15  C   UNL d   1      31.184 -21.573   3.469  0.00  0.00     0.080 C 
BRANCH  11  16
ATOM     16  O   UNL d   1      34.062 -19.996   4.562  0.00  0.00    -0.360 OA
ATOM     17  H   UNL d   1      33.885 -19.380   3.836  0.00  0.00     0.217 HD
ENDBRANCH  11  16
BRANCH  13  18
ATOM     18  O   UNL d   1      30.421 -21.604   7.041  0.00  0.00    -0.361 OA
ATOM     19  H   UNL d   1      29.777 -22.331   6.970  0.00  0.00     0.217 HD
ENDBRANCH  13  18
BRANCH  15  20
ATOM     20  O   UNL d   1      30.444 -21.575   2.332  0.00  0.00    -0.360 OA
ATOM     21  H   UNL d   1      30.455 -20.692   1.931  0.00  0.00     0.217 HD
ENDBRANCH  15  20
ENDBRANCH   1  10
BRANCH   1  22
ATOM     22  N   UNL d   1      33.590 -23.092   1.581  0.00  0.00    -0.330 N 
ATOM     23  C   UNL d   1      34.410 -24.136   2.118  0.00  0.00     0.221 C 
ATOM     24  O   UNL d   1      34.415 -25.317   1.773  0.00  0.00    -0.273 OA
BRANCH  23  25
ATOM     25  C   UNL d   1      35.377 -23.832   3.177  0.00  0.00     0.103 C 
BRANCH  25  26
ATOM     26  C   UNL d   1      35.280 -24.481   4.520  0.00  0.00     0.009 C 
BRANCH  26  27
ATOM     27  C   UNL d   1      35.158 -23.406   5.605  0.00  0.00    -0.004 C 
ATOM     28  C   UNL d   1      34.828 -24.115   6.895  0.00  0.00     0.005 C 
ENDBRANCH  26  27
ENDBRANCH  25  26
ENDBRANCH  23  25
BRANCH  22  29
ATOM     29  C   UNL d   1      32.604 -23.586   0.463  0.00  0.00     0.088 C 
ATOM     30  C   UNL d   1      31.657 -24.749   0.856  0.00  0.00     0.025 C 
ATOM     31  C   UNL d   1      30.799 -25.360  -0.229  0.00  0.00     0.002 C 
ATOM     32  C   UNL d   1      29.834 -24.310  -0.623  0.00  0.00     0.000 C 
ATOM     33  C   UNL d   1      30.631 -23.117  -1.126  0.00  0.00     0.002 C 
ATOM     34  C   UNL d   1      31.588 -22.551  -0.079  0.00  0.00     0.025 C 
ENDBRANCH  22  29
ENDBRANCH   1  22
TORSDOF 13
ENDMDL
MODEL 9
REMARK VINA RESULT:    -5.869      1.057      4.244
REMARK INTER + INTRA:         -13.885
REMARK INTER:                  -9.747
REMARK INTRA:                  -4.138
REMARK CONF_INDEPENDENT:        3.878
REMARK UNBOUND:                -4.138
REMARK  13 active torsions:
REMARK  status: ('A' for Active; 'I' for Inactive)
REMARK    1  A    between atoms: C_2  and  C_3 
REMARK    2  A    between atoms: C_3  and  C_4 
REMARK    3  A    between atoms: C_4  and  N_5 
REMARK       I    between atoms: N_5  and  C_6 
REMARK    4  A    between atoms: C_6  and  C_8 
REMARK    5  A    between atoms: C_8  and  C_9 
REMARK    6  A    between atoms: C_8  and  N_18 
REMARK    7  A    between atoms: C_10  and  O_11 
REMARK    8  A    between atoms: C_13  and  O_14 
REMARK    9  A    between atoms: C_16  and  O_17 
REMARK       I    between atoms: N_18  and  C_19 
REMARK   10  A    between atoms: N_18  and  C_25 
REMARK   11  A    between atoms: C_19  and  C_21 
REMARK   12  A    between atoms: C_21  and  C_22 
REMARK   13  A    between atoms: C_22  and  C_23 
ROOT
ATOM      1  C   UNL d   1      26.451 -15.368  -0.771  0.00  0.00     0.212 C 
ENDROOT
BRANCH   1   2
ATOM      2  C   UNL d   1      26.642 -14.018   0.051  0.00  0.00     0.225 C 
ATOM      3  N   UNL d   1      27.800 -13.274  -0.003  0.00  0.00    -0.261 NA
ATOM      4  H   UNL d   1      28.617 -13.868  -0.077  0.00  0.00     0.130 HD
ATOM      5  O   UNL d   1      25.905 -13.605   0.902  0.00  0.00    -0.277 OA
BRANCH   3   6
ATOM      6  C   UNL d   1      27.812 -12.371   1.159  0.00  0.00     0.095 C 
BRANCH   6   7
ATOM      7  C   UNL d   1      28.700 -12.872   2.234  0.00  0.00     0.014 C 
BRANCH   7   8
ATOM      8  C   UNL d   1      28.060 -14.079   2.891  0.00  0.00    -0.003 C 
ATOM      9  C   UNL d   1      27.807 -13.724   4.335  0.00  0.00     0.005 C 
ENDBRANCH   7   8
ENDBRANCH   6   7
ENDBRANCH   3   6
ENDBRANCH   1   2
BRANCH   1  10
ATOM     10  C   UNL d   1      26.792 -15.111  -2.264  0.00  0.00     0.040 C 
ATOM     11  C   UNL d   1      25.784 -15.046  -3.193  0.00  0.00     0.080 C 
ATOM     12  C   UNL d   1      25.960 -15.375  -4.554  0.00  0.00     0.073 C 
ATOM     13  C   UNL d   1      27.183 -15.146  -5.102  0.00  0.00     0.071 C 
ATOM     14  C   UNL d   1      28.171 -14.696  -4.260  0.00  0.00     0.073 C 
ATOM     15  C   UNL d   1      27.992 -14.744  -2.862  0.00  0.00     0.080 C 
BRANCH  11  16
ATOM     16  O   UNL d   1      24.535 -14.660  -2.770  0.00  0.00    -0.360 OA
ATOM     17  H   UNL d   1      24.613 -13.735  -2.490  0.00  0.00     0.217 HD
ENDBRANCH  11  16
BRANCH  13  18
ATOM     18  O   UNL d   1      27.405 -15.200  -6.439  0.00  0.00    -0.361 OA
ATOM     19  H   UNL d   1      28.272 -14.803  -6.639  0.00  0.00     0.217 HD
ENDBRANCH  13  18
BRANCH  15  20
ATOM     20  O   UNL d   1      29.001 -14.229  -2.116  0.00  0.00    -0.360 OA
ATOM     21  H   UNL d   1      28.715 -13.398  -1.705  0.00  0.00     0.217 HD
ENDBRANCH  15  20
ENDBRANCH   1  10
BRANCH   1  22
ATOM     22  N   UNL d   1      27.098 -16.806  -0.193  0.00  0.00    -0.330 N 
ATOM     23  C   UNL d   1      26.302 -17.938   0.173  0.00  0.00     0.221 C 
ATOM     24  O   UNL d   1      26.714 -19.050   0.502  0.00  0.00    -0.273 OA
BRANCH  23  25
ATOM     25  C   UNL d   1      24.841 -17.825   0.198  0.00  0.00     0.103 C 
BRANCH  25  26
ATOM     26  C   UNL d   1      24.080 -17.402  -1.016  0.00  0.00     0.009 C 
BRANCH  26  27
ATOM     27  C   UNL d   1      22.577 -17.421  -0.716  0.00  0.00    -0.004 C 
ATOM     28  C   UNL d   1      22.328 -18.576   0.222  0.00  0.00     0.005 C 
ENDBRANCH  26  27
ENDBRANCH  25  26
ENDBRANCH  23  25
BRANCH  22  29
ATOM     29  C   UNL d   1      28.641 -17.096  -0.177  0.00  0.00     0.088 C 
ATOM     30  C   UNL d   1      29.282 -17.442  -1.546  0.00  0.00     0.025 C 
ATOM     31  C   UNL d   1      30.730 -17.879  -1.559  0.00  0.00     0.002 C 
ATOM     32  C   UNL d   1      31.515 -16.692  -1.154  0.00  0.00     0.000 C 
ATOM     33  C   UNL d   1      31.052 -16.286   0.236  0.00  0.00     0.002 C 
ATOM     34  C   UNL d   1      29.564 -15.947   0.296  0.00  0.00     0.025 C 
ENDBRANCH  22  29
ENDBRANCH   1  22
TORSDOF 13
ENDMDL
