MODEL 1
REMARK VINA RESULT:    -8.393      0.000      0.000
REMARK INTER + INTRA:         -12.531
REMARK INTER:                 -10.779
REMARK INTRA:                  -1.751
REMARK CONF_INDEPENDENT:        2.386
REMARK UNBOUND:                -1.751
REMARK  8 active torsions:
REMARK  status: ('A' for Active; 'I' for Inactive)
REMARK    1  A    between atoms: C_2  and  N_3 
REMARK    2  A    between atoms: N_3  and  C_4 
REMARK    3  A    between atoms: N_3  and  C_6 
REMARK    4  A    between atoms: C_9  and  N_10 
REMARK    5  A    between atoms: C_16  and  N_17 
REMARK       I    between atoms: N_17  and  C_18 
REMARK    6  A    between atoms: C_20  and  C_18 
REMARK    7  A    between atoms: C_20  and  C_23 
REMARK    8  A    between atoms: C_20  and  O_21 
ROOT
ATOM      1  N   UNL d   1      28.481 -12.561   5.305  0.00  0.00    -0.150 N 
ATOM      2  N   UNL d   1      27.632 -13.612   5.399  0.00  0.00    -0.147 NA
ATOM      3  C   UNL d   1      27.524 -13.849   4.086  0.00  0.00     0.110 C 
ATOM      4  C   UNL d   1      28.135 -14.825   3.289  0.00  0.00     0.045 C 
ATOM      5  C   UNL d   1      27.940 -14.699   1.892  0.00  0.00    -0.033 C 
ATOM      6  C   UNL d   1      28.925 -15.339   0.961  0.00  0.00     0.050 C 
ATOM      7  C   UNL d   1      26.896 -13.909   1.378  0.00  0.00     0.043 C 
ATOM      8  C   UNL d   1      26.597 -12.709   2.104  0.00  0.00     0.066 C 
ATOM      9  C   UNL d   1      27.218 -12.607   3.447  0.00  0.00     0.111 C 
ATOM     10  N   UNL d   1      28.182 -11.800   4.102  0.00  0.00    -0.147 NA
ENDROOT
BRANCH   7  11
ATOM     11  N   UNL d   1      26.283 -14.410   0.167  0.00  0.00    -0.324 N 
ATOM     12  C   UNL d   1      26.783 -14.376  -1.144  0.00  0.00     0.255 C 
ATOM     13  O   UNL d   1      27.667 -13.614  -1.470  0.00  0.00    -0.270 OA
ATOM     14  H   UNL d   1      25.287 -14.611   0.204  0.00  0.00     0.169 HD
BRANCH  12  15
ATOM     15  C   UNL d   1      26.023 -15.359  -2.196  0.00  0.00     0.247 C 
BRANCH  15  16
ATOM     16  C   UNL d   1      25.054 -16.357  -1.523  0.00  0.00     0.001 A 
ATOM     17  C   UNL d   1      23.650 -16.131  -1.594  0.00  0.00     0.012 A 
ATOM     18  C   UNL d   1      22.740 -16.944  -0.895  0.00  0.00     0.001 A 
ATOM     19  C   UNL d   1      23.194 -18.058  -0.200  0.00  0.00     0.002 A 
ATOM     20  C   UNL d   1      24.556 -18.316  -0.145  0.00  0.00     0.024 A 
ATOM     21  C   UNL d   1      25.479 -17.453  -0.744  0.00  0.00     0.043 A 
ATOM     22 CL   UNL d   1      27.125 -17.815  -0.349  0.00  0.00    -0.084 Cl
ENDBRANCH  15  16
BRANCH  15  23
ATOM     23  O   UNL d   1      25.351 -14.830  -3.346  0.00  0.00    -0.377 OA
ATOM     24  C   UNL d   1      25.928 -15.202  -4.587  0.00  0.00     0.203 C 
ENDBRANCH  15  23
ENDBRANCH  12  15
ENDBRANCH   7  11
BRANCH   1  25
ATOM     25  C   UNL d   1      29.108 -12.116   6.574  0.00  0.00     0.079 A 
ATOM     26  C   UNL d   1      29.943 -12.904   7.430  0.00  0.00     0.036 A 
ATOM     27  C   UNL d   1      30.277 -12.489   8.786  0.00  0.00     0.039 A 
ATOM     28  C   UNL d   1      29.802 -11.282   9.325  0.00  0.00     0.134 A 
ATOM     29  C   UNL d   1      28.951 -10.545   8.491  0.00  0.00     0.039 A 
ATOM     30  C   UNL d   1      28.593 -10.967   7.170  0.00  0.00     0.036 A 
BRANCH  28  31
ATOM     31  N   UNL d   1      30.192 -10.836  10.761  0.00  0.00    -0.042 N 
ATOM     32  H   UNL d   1      29.386 -10.278  11.064  0.00  0.00     0.286 HD
BRANCH  31  33
ATOM     33  C   UNL d   1      31.288  -9.758  10.765  0.00  0.00     0.237 C 
ATOM     34  C   UNL d   1      30.855  -8.366  11.188  0.00  0.00     0.035 C 
ENDBRANCH  31  33
BRANCH  31  35
ATOM     35  C   UNL d   1      30.121 -12.028  11.730  0.00  0.00     0.237 C 
ATOM     36  C   UNL d   1      28.736 -12.612  11.965  0.00  0.00     0.035 C 
ENDBRANCH  31  35
ENDBRANCH  28  31
ENDBRANCH   1  25
TORSDOF 8
ENDMDL
MODEL 2
REMARK VINA RESULT:    -8.097      8.316     10.910
REMARK INTER + INTRA:         -12.174
REMARK INTER:                 -10.483
REMARK INTRA:                  -1.691
REMARK CONF_INDEPENDENT:        2.386
REMARK UNBOUND:                -1.691
REMARK  8 active torsions:
REMARK  status: ('A' for Active; 'I' for Inactive)
REMARK    1  A    between atoms: C_2  and  N_3 
REMARK    2  A    between atoms: N_3  and  C_4 
REMARK    3  A    between atoms: N_3  and  C_6 
REMARK    4  A    between atoms: C_9  and  N_10 
REMARK    5  A    between atoms: C_16  and  N_17 
REMARK       I    between atoms: N_17  and  C_18 
REMARK    6  A    between atoms: C_20  and  C_18 
REMARK    7  A    between atoms: C_20  and  C_23 
REMARK    8  A    between atoms: C_20  and  O_21 
ROOT
ATOM      1  N   UNL d   1      25.083 -15.631  -1.931  0.00  0.00    -0.150 N 
ATOM      2  N   UNL d   1      24.429 -14.812  -2.787  0.00  0.00    -0.147 NA
ATOM      3  C   UNL d   1      25.508 -14.364  -3.439  0.00  0.00     0.110 C 
ATOM      4  C   UNL d   1      26.026 -14.728  -4.689  0.00  0.00     0.045 C 
ATOM      5  C   UNL d   1      27.291 -14.184  -5.020  0.00  0.00    -0.033 C 
ATOM      6  C   UNL d   1      28.136 -14.882  -6.042  0.00  0.00     0.050 C 
ATOM      7  C   UNL d   1      27.794 -13.061  -4.337  0.00  0.00     0.043 C 
ATOM      8  C   UNL d   1      27.493 -12.986  -2.938  0.00  0.00     0.066 C 
ATOM      9  C   UNL d   1      26.456 -13.933  -2.460  0.00  0.00     0.111 C 
ATOM     10  N   UNL d   1      26.373 -15.052  -1.592  0.00  0.00    -0.147 NA
ENDROOT
BRANCH   7  11
ATOM     11  N   UNL d   1      28.571 -12.146  -5.146  0.00  0.00    -0.324 N 
ATOM     12  C   UNL d   1      29.953 -12.154  -5.391  0.00  0.00     0.255 C 
ATOM     13  O   UNL d   1      30.725 -12.754  -4.674  0.00  0.00    -0.270 OA
ATOM     14  H   UNL d   1      28.132 -11.264  -5.394  0.00  0.00     0.169 HD
BRANCH  12  15
ATOM     15  C   UNL d   1      30.436 -11.226  -6.639  0.00  0.00     0.247 C 
BRANCH  15  16
ATOM     16  C   UNL d   1      29.656 -11.490  -7.946  0.00  0.00     0.001 A 
ATOM     17  C   UNL d   1      28.261 -11.209  -8.002  0.00  0.00     0.012 A 
ATOM     18  C   UNL d   1      27.490 -11.547  -9.128  0.00  0.00     0.001 A 
ATOM     19  C   UNL d   1      28.103 -12.069 -10.260  0.00  0.00     0.002 A 
ATOM     20  C   UNL d   1      29.467 -12.320 -10.240  0.00  0.00     0.024 A 
ATOM     21  C   UNL d   1      30.225 -12.091  -9.087  0.00  0.00     0.043 A 
ATOM     22 CL   UNL d   1      31.843 -12.700  -9.189  0.00  0.00    -0.084 Cl
ENDBRANCH  15  16
BRANCH  15  23
ATOM     23  O   UNL d   1      30.554  -9.804  -6.497  0.00  0.00    -0.377 OA
ATOM     24  C   UNL d   1      31.365  -9.387  -5.412  0.00  0.00     0.203 C 
ENDBRANCH  15  23
ENDBRANCH  12  15
ENDBRANCH   7  11
BRANCH   1  25
ATOM     25  C   UNL d   1      24.238 -16.574  -1.157  0.00  0.00     0.079 A 
ATOM     26  C   UNL d   1      24.578 -17.916  -0.793  0.00  0.00     0.036 A 
ATOM     27  C   UNL d   1      23.588 -18.860  -0.291  0.00  0.00     0.039 A 
ATOM     28  C   UNL d   1      22.241 -18.497  -0.128  0.00  0.00     0.134 A 
ATOM     29  C   UNL d   1      21.916 -17.195  -0.531  0.00  0.00     0.039 A 
ATOM     30  C   UNL d   1      22.881 -16.276  -1.057  0.00  0.00     0.036 A 
BRANCH  28  31
ATOM     31  N   UNL d   1      21.202 -19.503   0.439  0.00  0.00    -0.042 N 
ATOM     32  H   UNL d   1      21.767 -20.331   0.658  0.00  0.00     0.286 HD
BRANCH  31  33
ATOM     33  C   UNL d   1      20.282 -20.078  -0.651  0.00  0.00     0.237 C 
ATOM     34  C   UNL d   1      18.795 -20.055  -0.350  0.00  0.00     0.035 C 
ENDBRANCH  31  33
BRANCH  31  35
ATOM     35  C   UNL d   1      20.745 -19.066   1.842  0.00  0.00     0.237 C 
ATOM     36  C   UNL d   1      19.934 -20.088   2.624  0.00  0.00     0.035 C 
ENDBRANCH  31  35
ENDBRANCH  28  31
ENDBRANCH   1  25
TORSDOF 8
ENDMDL
MODEL 3
REMARK VINA RESULT:    -7.839      1.640      2.918
REMARK INTER + INTRA:         -11.638
REMARK INTER:                 -10.225
REMARK INTRA:                  -1.413
REMARK CONF_INDEPENDENT:        2.386
REMARK UNBOUND:                -1.413
REMARK  8 active torsions:
REMARK  status: ('A' for Active; 'I' for Inactive)
REMARK    1  A    between atoms: C_2  and  N_3 
REMARK    2  A    between atoms: N_3  and  C_4 
REMARK    3  A    between atoms: N_3  and  C_6 
REMARK    4  A    between atoms: C_9  and  N_10 
REMARK    5  A    between atoms: C_16  and  N_17 
REMARK       I    between atoms: N_17  and  C_18 
REMARK    6  A    between atoms: C_20  and  C_18 
REMARK    7  A    between atoms: C_20  and  C_23 
REMARK    8  A    between atoms: C_20  and  O_21 
ROOT
ATOM      1  N   UNL d   1      28.500 -12.833   5.577  0.00  0.00    -0.150 N 
ATOM      2  N   UNL d   1      27.698 -13.918   5.463  0.00  0.00    -0.147 NA
ATOM      3  C   UNL d   1      27.706 -13.985   4.126  0.00  0.00     0.110 C 
ATOM      4  C   UNL d   1      28.426 -14.825   3.267  0.00  0.00     0.045 C 
ATOM      5  C   UNL d   1      28.338 -14.524   1.886  0.00  0.00    -0.033 C 
ATOM      6  C   UNL d   1      29.424 -14.999   0.969  0.00  0.00     0.050 C 
ATOM      7  C   UNL d   1      27.302 -13.712   1.389  0.00  0.00     0.043 C 
ATOM      8  C   UNL d   1      26.889 -12.630   2.234  0.00  0.00     0.066 C 
ATOM      9  C   UNL d   1      27.394 -12.682   3.627  0.00  0.00     0.111 C 
ATOM     10  N   UNL d   1      28.263 -11.933   4.460  0.00  0.00    -0.147 NA
ENDROOT
BRANCH   7  11
ATOM     11  N   UNL d   1      26.813 -14.073   0.076  0.00  0.00    -0.324 N 
ATOM     12  C   UNL d   1      26.432 -15.338  -0.398  0.00  0.00     0.255 C 
ATOM     13  O   UNL d   1      26.783 -16.358   0.153  0.00  0.00    -0.270 OA
ATOM     14  H   UNL d   1      26.963 -13.400  -0.671  0.00  0.00     0.169 HD
BRANCH  12  15
ATOM     15  C   UNL d   1      25.576 -15.324  -1.783  0.00  0.00     0.247 C 
BRANCH  15  16
ATOM     16  C   UNL d   1      26.453 -15.240  -3.053  0.00  0.00     0.001 A 
ATOM     17  C   UNL d   1      27.702 -15.923  -3.093  0.00  0.00     0.012 A 
ATOM     18  C   UNL d   1      28.584 -15.774  -4.177  0.00  0.00     0.001 A 
ATOM     19  C   UNL d   1      28.203 -15.033  -5.289  0.00  0.00     0.002 A 
ATOM     20  C   UNL d   1      26.976 -14.386  -5.285  0.00  0.00     0.024 A 
ATOM     21  C   UNL d   1      26.137 -14.436  -4.167  0.00  0.00     0.043 A 
ATOM     22 CL   UNL d   1      24.780 -13.365  -4.270  0.00  0.00    -0.084 Cl
ENDBRANCH  15  16
BRANCH  15  23
ATOM     23  O   UNL d   1      24.565 -16.309  -2.035  0.00  0.00    -0.377 OA
ATOM     24  C   UNL d   1      24.222 -17.100  -0.909  0.00  0.00     0.203 C 
ENDBRANCH  15  23
ENDBRANCH  12  15
ENDBRANCH   7  11
BRANCH   1  25
ATOM     25  C   UNL d   1      29.001 -12.534   6.941  0.00  0.00     0.079 A 
ATOM     26  C   UNL d   1      29.485 -13.487   7.895  0.00  0.00     0.036 A 
ATOM     27  C   UNL d   1      29.683 -13.150   9.299  0.00  0.00     0.039 A 
ATOM     28  C   UNL d   1      29.418 -11.862   9.791  0.00  0.00     0.134 A 
ATOM     29  C   UNL d   1      28.904 -10.955   8.855  0.00  0.00     0.039 A 
ATOM     30  C   UNL d   1      28.675 -11.293   7.482  0.00  0.00     0.036 A 
BRANCH  28  31
ATOM     31  N   UNL d   1      29.665 -11.506  11.282  0.00  0.00    -0.042 N 
ATOM     32  H   UNL d   1      28.947 -10.801  11.482  0.00  0.00     0.286 HD
BRANCH  31  33
ATOM     33  C   UNL d   1      30.937 -10.666  11.485  0.00  0.00     0.237 C 
ATOM     34  C   UNL d   1      30.726  -9.233  11.937  0.00  0.00     0.035 C 
ENDBRANCH  31  33
BRANCH  31  35
ATOM     35  C   UNL d   1      29.216 -12.664  12.191  0.00  0.00     0.237 C 
ATOM     36  C   UNL d   1      27.890 -13.316  11.830  0.00  0.00     0.035 C 
ENDBRANCH  31  35
ENDBRANCH  28  31
ENDBRANCH   1  25
TORSDOF 8
ENDMDL
MODEL 4
REMARK VINA RESULT:    -7.672      8.491     11.124
REMARK INTER + INTRA:         -11.840
REMARK INTER:                 -10.058
REMARK INTRA:                  -1.782
REMARK CONF_INDEPENDENT:        2.386
REMARK UNBOUND:                -1.782
REMARK  8 active torsions:
REMARK  status: ('A' for Active; 'I' for Inactive)
REMARK    1  A    between atoms: C_2  and  N_3 
REMARK    2  A    between atoms: N_3  and  C_4 
REMARK    3  A    between atoms: N_3  and  C_6 
REMARK    4  A    between atoms: C_9  and  N_10 
REMARK    5  A    between atoms: C_16  and  N_17 
REMARK       I    between atoms: N_17  and  C_18 
REMARK    6  A    between atoms: C_20  and  C_18 
REMARK    7  A    between atoms: C_20  and  C_23 
REMARK    8  A    between atoms: C_20  and  O_21 
ROOT
ATOM      1  N   UNL d   1      25.334 -15.734  -2.109  0.00  0.00    -0.150 N 
ATOM      2  N   UNL d   1      24.701 -14.954  -3.016  0.00  0.00    -0.147 NA
ATOM      3  C   UNL d   1      25.796 -14.542  -3.666  0.00  0.00     0.110 C 
ATOM      4  C   UNL d   1      26.337 -14.967  -4.886  0.00  0.00     0.045 C 
ATOM      5  C   UNL d   1      27.612 -14.444  -5.216  0.00  0.00    -0.033 C 
ATOM      6  C   UNL d   1      28.474 -15.193  -6.186  0.00  0.00     0.050 C 
ATOM      7  C   UNL d   1      28.106 -13.291  -4.577  0.00  0.00     0.043 C 
ATOM      8  C   UNL d   1      27.776 -13.150  -3.189  0.00  0.00     0.066 C 
ATOM      9  C   UNL d   1      26.726 -14.069  -2.688  0.00  0.00     0.111 C 
ATOM     10  N   UNL d   1      26.619 -15.144  -1.771  0.00  0.00    -0.147 NA
ENDROOT
BRANCH   7  11
ATOM     11  N   UNL d   1      28.904 -12.420  -5.412  0.00  0.00    -0.324 N 
ATOM     12  C   UNL d   1      30.298 -12.261  -5.427  0.00  0.00     0.255 C 
ATOM     13  O   UNL d   1      30.991 -12.608  -4.496  0.00  0.00    -0.270 OA
ATOM     14  H   UNL d   1      28.416 -11.668  -5.891  0.00  0.00     0.169 HD
BRANCH  12  15
ATOM     15  C   UNL d   1      30.889 -11.493  -6.737  0.00  0.00     0.247 C 
BRANCH  15  16
ATOM     16  C   UNL d   1      31.637 -12.426  -7.717  0.00  0.00     0.001 A 
ATOM     17  C   UNL d   1      31.583 -13.836  -7.526  0.00  0.00     0.012 A 
ATOM     18  C   UNL d   1      32.346 -14.712  -8.319  0.00  0.00     0.001 A 
ATOM     19  C   UNL d   1      33.091 -14.218  -9.382  0.00  0.00     0.002 A 
ATOM     20  C   UNL d   1      33.132 -12.850  -9.606  0.00  0.00     0.024 A 
ATOM     21  C   UNL d   1      32.466 -11.960  -8.757  0.00  0.00     0.043 A 
ATOM     22 CL   UNL d   1      32.846 -10.297  -9.060  0.00  0.00    -0.084 Cl
ENDBRANCH  15  16
BRANCH  15  23
ATOM     23  O   UNL d   1      30.056 -10.634  -7.526  0.00  0.00    -0.377 OA
ATOM     24  C   UNL d   1      29.173 -11.315  -8.403  0.00  0.00     0.203 C 
ENDBRANCH  15  23
ENDBRANCH  12  15
ENDBRANCH   7  11
BRANCH   1  25
ATOM     25  C   UNL d   1      24.468 -16.636  -1.309  0.00  0.00     0.079 A 
ATOM     26  C   UNL d   1      24.718 -18.016  -1.019  0.00  0.00     0.036 A 
ATOM     27  C   UNL d   1      23.689 -18.895  -0.479  0.00  0.00     0.039 A 
ATOM     28  C   UNL d   1      22.393 -18.430  -0.205  0.00  0.00     0.134 A 
ATOM     29  C   UNL d   1      22.152 -17.090  -0.535  0.00  0.00     0.039 A 
ATOM     30  C   UNL d   1      23.152 -16.232  -1.098  0.00  0.00     0.036 A 
BRANCH  28  31
ATOM     31  N   UNL d   1      21.315 -19.370   0.402  0.00  0.00    -0.042 N 
ATOM     32  H   UNL d   1      21.823 -20.248   0.555  0.00  0.00     0.286 HD
BRANCH  31  33
ATOM     33  C   UNL d   1      20.281 -19.830  -0.640  0.00  0.00     0.237 C 
ATOM     34  C   UNL d   1      18.895 -20.149  -0.109  0.00  0.00     0.035 C 
ENDBRANCH  31  33
BRANCH  31  35
ATOM     35  C   UNL d   1      20.989 -18.950   1.845  0.00  0.00     0.237 C 
ATOM     36  C   UNL d   1      20.279 -19.992   2.697  0.00  0.00     0.035 C 
ENDBRANCH  31  35
ENDBRANCH  28  31
ENDBRANCH   1  25
TORSDOF 8
ENDMDL
MODEL 5
REMARK VINA RESULT:    -7.590      2.642      4.535
REMARK INTER + INTRA:         -11.683
REMARK INTER:                  -9.976
REMARK INTRA:                  -1.707
REMARK CONF_INDEPENDENT:        2.386
REMARK UNBOUND:                -1.707
REMARK  8 active torsions:
REMARK  status: ('A' for Active; 'I' for Inactive)
REMARK    1  A    between atoms: C_2  and  N_3 
REMARK    2  A    between atoms: N_3  and  C_4 
REMARK    3  A    between atoms: N_3  and  C_6 
REMARK    4  A    between atoms: C_9  and  N_10 
REMARK    5  A    between atoms: C_16  and  N_17 
REMARK       I    between atoms: N_17  and  C_18 
REMARK    6  A    between atoms: C_20  and  C_18 
REMARK    7  A    between atoms: C_20  and  C_23 
REMARK    8  A    between atoms: C_20  and  O_21 
ROOT
ATOM      1  N   UNL d   1      28.215 -13.711   3.208  0.00  0.00    -0.150 N 
ATOM      2  N   UNL d   1      27.431 -12.784   2.609  0.00  0.00    -0.147 NA
ATOM      3  C   UNL d   1      27.433 -13.335   1.389  0.00  0.00     0.110 C 
ATOM      4  C   UNL d   1      26.459 -14.108   0.744  0.00  0.00     0.045 C 
ATOM      5  C   UNL d   1      26.842 -14.688  -0.490  0.00  0.00    -0.033 C 
ATOM      6  C   UNL d   1      26.108 -15.897  -0.983  0.00  0.00     0.050 C 
ATOM      7  C   UNL d   1      27.954 -14.199  -1.201  0.00  0.00     0.043 C 
ATOM      8  C   UNL d   1      29.066 -13.761  -0.410  0.00  0.00     0.066 C 
ATOM      9  C   UNL d   1      28.792 -13.604   1.039  0.00  0.00     0.111 C 
ATOM     10  N   UNL d   1      29.200 -14.203   2.258  0.00  0.00    -0.147 NA
ENDROOT
BRANCH   7  11
ATOM     11  N   UNL d   1      27.825 -14.233  -2.642  0.00  0.00    -0.324 N 
ATOM     12  C   UNL d   1      27.979 -15.326  -3.508  0.00  0.00     0.255 C 
ATOM     13  O   UNL d   1      28.571 -16.328  -3.172  0.00  0.00    -0.270 OA
ATOM     14  H   UNL d   1      27.847 -13.339  -3.127  0.00  0.00     0.169 HD
BRANCH  12  15
ATOM     15  C   UNL d   1      27.393 -15.102  -5.011  0.00  0.00     0.247 C 
BRANCH  15  16
ATOM     16  C   UNL d   1      26.979 -13.642  -5.304  0.00  0.00     0.001 A 
ATOM     17  C   UNL d   1      27.816 -12.822  -6.114  0.00  0.00     0.012 A 
ATOM     18  C   UNL d   1      27.540 -11.456  -6.304  0.00  0.00     0.001 A 
ATOM     19  C   UNL d   1      26.377 -10.902  -5.786  0.00  0.00     0.002 A 
ATOM     20  C   UNL d   1      25.530 -11.691  -5.021  0.00  0.00     0.024 A 
ATOM     21  C   UNL d   1      25.849 -13.022  -4.732  0.00  0.00     0.043 A 
ATOM     22 CL   UNL d   1      24.797 -13.750  -3.565  0.00  0.00    -0.084 Cl
ENDBRANCH  15  16
BRANCH  15  23
ATOM     23  O   UNL d   1      28.109 -15.575  -6.160  0.00  0.00    -0.377 OA
ATOM     24  C   UNL d   1      29.500 -15.754  -5.952  0.00  0.00     0.203 C 
ENDBRANCH  15  23
ENDBRANCH  12  15
ENDBRANCH   7  11
BRANCH   1  25
ATOM     25  C   UNL d   1      28.278 -13.652   4.689  0.00  0.00     0.079 A 
ATOM     26  C   UNL d   1      27.816 -12.577   5.516  0.00  0.00     0.036 A 
ATOM     27  C   UNL d   1      28.174 -12.471   6.924  0.00  0.00     0.039 A 
ATOM     28  C   UNL d   1      28.989 -13.428   7.551  0.00  0.00     0.134 A 
ATOM     29  C   UNL d   1      29.468 -14.448   6.718  0.00  0.00     0.039 A 
ATOM     30  C   UNL d   1      29.145 -14.536   5.325  0.00  0.00     0.036 A 
BRANCH  28  31
ATOM     31  N   UNL d   1      29.336 -13.321   9.061  0.00  0.00    -0.042 N 
ATOM     32  H   UNL d   1      30.096 -12.631   9.082  0.00  0.00     0.286 HD
BRANCH  31  33
ATOM     33  C   UNL d   1      30.077 -14.562   9.585  0.00  0.00     0.237 C 
ATOM     34  C   UNL d   1      31.590 -14.458   9.650  0.00  0.00     0.035 C 
ENDBRANCH  31  33
BRANCH  31  35
ATOM     35  C   UNL d   1      28.223 -12.571   9.814  0.00  0.00     0.237 C 
ATOM     36  C   UNL d   1      27.682 -13.261  11.058  0.00  0.00     0.035 C 
ENDBRANCH  31  35
ENDBRANCH  28  31
ENDBRANCH   1  25
TORSDOF 8
ENDMDL
MODEL 6
REMARK VINA RESULT:    -7.586      2.726      3.508
REMARK INTER + INTRA:         -11.807
REMARK INTER:                  -9.972
REMARK INTRA:                  -1.835
REMARK CONF_INDEPENDENT:        2.386
REMARK UNBOUND:                -1.835
REMARK  8 active torsions:
REMARK  status: ('A' for Active; 'I' for Inactive)
REMARK    1  A    between atoms: C_2  and  N_3 
REMARK    2  A    between atoms: N_3  and  C_4 
REMARK    3  A    between atoms: N_3  and  C_6 
REMARK    4  A    between atoms: C_9  and  N_10 
REMARK    5  A    between atoms: C_16  and  N_17 
REMARK       I    between atoms: N_17  and  C_18 
REMARK    6  A    between atoms: C_20  and  C_18 
REMARK    7  A    between atoms: C_20  and  C_23 
REMARK    8  A    between atoms: C_20  and  O_21 
ROOT
ATOM      1  N   UNL d   1      28.114 -13.047   4.412  0.00  0.00    -0.150 N 
ATOM      2  N   UNL d   1      27.379 -14.157   4.168  0.00  0.00    -0.147 NA
ATOM      3  C   UNL d   1      27.405 -14.077   2.832  0.00  0.00     0.110 C 
ATOM      4  C   UNL d   1      28.182 -14.775   1.899  0.00  0.00     0.045 C 
ATOM      5  C   UNL d   1      28.090 -14.330   0.557  0.00  0.00    -0.033 C 
ATOM      6  C   UNL d   1      29.211 -14.639  -0.388  0.00  0.00     0.050 C 
ATOM      7  C   UNL d   1      27.012 -13.530   0.135  0.00  0.00     0.043 C 
ATOM      8  C   UNL d   1      26.527 -12.572   1.085  0.00  0.00     0.066 C 
ATOM      9  C   UNL d   1      27.021 -12.748   2.473  0.00  0.00     0.111 C 
ATOM     10  N   UNL d   1      27.836 -12.045   3.396  0.00  0.00    -0.147 NA
ENDROOT
BRANCH   7  11
ATOM     11  N   UNL d   1      26.559 -13.773  -1.218  0.00  0.00    -0.324 N 
ATOM     12  C   UNL d   1      26.705 -12.954  -2.348  0.00  0.00     0.255 C 
ATOM     13  O   UNL d   1      26.950 -11.771  -2.252  0.00  0.00    -0.270 OA
ATOM     14  H   UNL d   1      25.862 -14.502  -1.346  0.00  0.00     0.169 HD
BRANCH  12  15
ATOM     15  C   UNL d   1      26.424 -13.691  -3.773  0.00  0.00     0.247 C 
BRANCH  15  16
ATOM     16  C   UNL d   1      27.606 -14.555  -4.268  0.00  0.00     0.001 A 
ATOM     17  C   UNL d   1      28.114 -15.594  -3.438  0.00  0.00     0.012 A 
ATOM     18  C   UNL d   1      29.263 -16.322  -3.795  0.00  0.00     0.001 A 
ATOM     19  C   UNL d   1      29.866 -16.109  -5.028  0.00  0.00     0.002 A 
ATOM     20  C   UNL d   1      29.367 -15.123  -5.868  0.00  0.00     0.024 A 
ATOM     21  C   UNL d   1      28.293 -14.318  -5.476  0.00  0.00     0.043 A 
ATOM     22 CL   UNL d   1      27.989 -12.995  -6.552  0.00  0.00    -0.084 Cl
ENDBRANCH  15  16
BRANCH  15  23
ATOM     23  O   UNL d   1      25.228 -14.452  -3.986  0.00  0.00    -0.377 OA
ATOM     24  C   UNL d   1      24.029 -13.700  -3.896  0.00  0.00     0.203 C 
ENDBRANCH  15  23
ENDBRANCH  12  15
ENDBRANCH   7  11
BRANCH   1  25
ATOM     25  C   UNL d   1      28.583 -12.871   5.809  0.00  0.00     0.079 A 
ATOM     26  C   UNL d   1      28.920 -13.916   6.729  0.00  0.00     0.036 A 
ATOM     27  C   UNL d   1      29.091 -13.671   8.155  0.00  0.00     0.039 A 
ATOM     28  C   UNL d   1      28.942 -12.387   8.704  0.00  0.00     0.134 A 
ATOM     29  C   UNL d   1      28.569 -11.385   7.798  0.00  0.00     0.039 A 
ATOM     30  C   UNL d   1      28.367 -11.629   6.402  0.00  0.00     0.036 A 
BRANCH  28  31
ATOM     31  N   UNL d   1      29.159 -12.133  10.221  0.00  0.00    -0.042 N 
ATOM     32  H   UNL d   1      28.897 -11.148  10.338  0.00  0.00     0.286 HD
BRANCH  31  33
ATOM     33  C   UNL d   1      30.648 -12.067  10.601  0.00  0.00     0.237 C 
ATOM     34  C   UNL d   1      31.633 -12.080   9.446  0.00  0.00     0.035 C 
ENDBRANCH  31  33
BRANCH  31  35
ATOM     35  C   UNL d   1      28.067 -12.838  11.044  0.00  0.00     0.237 C 
ATOM     36  C   UNL d   1      28.161 -14.355  11.110  0.00  0.00     0.035 C 
ENDBRANCH  31  35
ENDBRANCH  28  31
ENDBRANCH   1  25
TORSDOF 8
ENDMDL
MODEL 7
REMARK VINA RESULT:    -7.489      3.074      5.254
REMARK INTER + INTRA:         -11.581
REMARK INTER:                  -9.875
REMARK INTRA:                  -1.706
REMARK CONF_INDEPENDENT:        2.386
REMARK UNBOUND:                -1.706
REMARK  8 active torsions:
REMARK  status: ('A' for Active; 'I' for Inactive)
REMARK    1  A    between atoms: C_2  and  N_3 
REMARK    2  A    between atoms: N_3  and  C_4 
REMARK    3  A    between atoms: N_3  and  C_6 
REMARK    4  A    between atoms: C_9  and  N_10 
REMARK    5  A    between atoms: C_16  and  N_17 
REMARK       I    between atoms: N_17  and  C_18 
REMARK    6  A    between atoms: C_20  and  C_18 
REMARK    7  A    between atoms: C_20  and  C_23 
REMARK    8  A    between atoms: C_20  and  O_21 
ROOT
ATOM      1  N   UNL d   1      27.945 -13.981   2.631  0.00  0.00    -0.150 N 
ATOM      2  N   UNL d   1      26.885 -13.334   2.092  0.00  0.00    -0.147 NA
ATOM      3  C   UNL d   1      26.986 -13.855   0.863  0.00  0.00     0.110 C 
ATOM      4  C   UNL d   1      26.258 -14.885   0.255  0.00  0.00     0.045 C 
ATOM      5  C   UNL d   1      26.730 -15.318  -1.008  0.00  0.00    -0.033 C 
ATOM      6  C   UNL d   1      26.370 -16.692  -1.485  0.00  0.00     0.050 C 
ATOM      7  C   UNL d   1      27.600 -14.513  -1.767  0.00  0.00     0.043 C 
ATOM      8  C   UNL d   1      28.569 -13.761  -1.026  0.00  0.00     0.066 C 
ATOM      9  C   UNL d   1      28.342 -13.698   0.438  0.00  0.00     0.111 C 
ATOM     10  N   UNL d   1      28.978 -14.148   1.622  0.00  0.00    -0.147 NA
ENDROOT
BRANCH   7  11
ATOM     11  N   UNL d   1      27.408 -14.580  -3.199  0.00  0.00    -0.324 N 
ATOM     12  C   UNL d   1      27.683 -13.599  -4.164  0.00  0.00     0.255 C 
ATOM     13  O   UNL d   1      27.814 -12.431  -3.868  0.00  0.00    -0.270 OA
ATOM     14  H   UNL d   1      26.804 -15.319  -3.548  0.00  0.00     0.169 HD
BRANCH  12  15
ATOM     15  C   UNL d   1      27.711 -14.135  -5.702  0.00  0.00     0.247 C 
BRANCH  15  16
ATOM     16  C   UNL d   1      29.130 -14.193  -6.312  0.00  0.00     0.001 A 
ATOM     17  C   UNL d   1      29.514 -13.236  -7.294  0.00  0.00     0.012 A 
ATOM     18  C   UNL d   1      30.748 -13.325  -7.961  0.00  0.00     0.001 A 
ATOM     19  C   UNL d   1      31.668 -14.299  -7.595  0.00  0.00     0.002 A 
ATOM     20  C   UNL d   1      31.328 -15.223  -6.618  0.00  0.00     0.024 A 
ATOM     21  C   UNL d   1      30.062 -15.211  -6.024  0.00  0.00     0.043 A 
ATOM     22 CL   UNL d   1      29.754 -16.589  -5.020  0.00  0.00    -0.084 Cl
ENDBRANCH  15  16
BRANCH  15  23
ATOM     23  O   UNL d   1      27.044 -15.349  -6.072  0.00  0.00    -0.377 OA
ATOM     24  C   UNL d   1      25.819 -15.575  -5.395  0.00  0.00     0.203 C 
ENDBRANCH  15  23
ENDBRANCH  12  15
ENDBRANCH   7  11
BRANCH   1  25
ATOM     25  C   UNL d   1      28.069 -13.910   4.109  0.00  0.00     0.079 A 
ATOM     26  C   UNL d   1      27.780 -12.773   4.930  0.00  0.00     0.036 A 
ATOM     27  C   UNL d   1      28.200 -12.694   6.323  0.00  0.00     0.039 A 
ATOM     28  C   UNL d   1      28.907 -13.740   6.940  0.00  0.00     0.134 A 
ATOM     29  C   UNL d   1      29.219 -14.825   6.110  0.00  0.00     0.039 A 
ATOM     30  C   UNL d   1      28.837 -14.890   4.731  0.00  0.00     0.036 A 
BRANCH  28  31
ATOM     31  N   UNL d   1      29.320 -13.657   8.434  0.00  0.00    -0.042 N 
ATOM     32  H   UNL d   1      29.121 -14.600   8.789  0.00  0.00     0.286 HD
BRANCH  31  33
ATOM     33  C   UNL d   1      28.330 -12.834   9.275  0.00  0.00     0.237 C 
ATOM     34  C   UNL d   1      27.868 -13.468  10.574  0.00  0.00     0.035 C 
ENDBRANCH  31  33
BRANCH  31  35
ATOM     35  C   UNL d   1      30.852 -13.600   8.564  0.00  0.00     0.237 C 
ATOM     36  C   UNL d   1      31.514 -14.824   9.178  0.00  0.00     0.035 C 
ENDBRANCH  31  35
ENDBRANCH  28  31
ENDBRANCH   1  25
TORSDOF 8
ENDMDL
MODEL 8
REMARK VINA RESULT:    -7.487      3.026      4.887
REMARK INTER + INTRA:         -11.497
REMARK INTER:                  -9.873
REMARK INTRA:                  -1.624
REMARK CONF_INDEPENDENT:        2.386
REMARK UNBOUND:                -1.624
REMARK  8 active torsions:
REMARK  status: ('A' for Active; 'I' for Inactive)
REMARK    1  A    between atoms: C_2  and  N_3 
REMARK    2  A    between atoms: N_3  and  C_4 
REMARK    3  A    between atoms: N_3  and  C_6 
REMARK    4  A    between atoms: C_9  and  N_10 
REMARK    5  A    between atoms: C_16  and  N_17 
REMARK       I    between atoms: N_17  and  C_18 
REMARK    6  A    between atoms: C_20  and  C_18 
REMARK    7  A    between atoms: C_20  and  C_23 
REMARK    8  A    between atoms: C_20  and  O_21 
ROOT
ATOM      1  N   UNL d   1      27.891 -13.219   2.953  0.00  0.00    -0.150 N 
ATOM      2  N   UNL d   1      26.635 -12.986   2.504  0.00  0.00    -0.147 NA
ATOM      3  C   UNL d   1      26.895 -13.156   1.202  0.00  0.00     0.110 C 
ATOM      4  C   UNL d   1      26.647 -14.251   0.366  0.00  0.00     0.045 C 
ATOM      5  C   UNL d   1      27.204 -14.179  -0.934  0.00  0.00    -0.033 C 
ATOM      6  C   UNL d   1      27.439 -15.449  -1.695  0.00  0.00     0.050 C 
ATOM      7  C   UNL d   1      27.620 -12.947  -1.473  0.00  0.00     0.043 C 
ATOM      8  C   UNL d   1      28.210 -12.022  -0.551  0.00  0.00     0.066 C 
ATOM      9  C   UNL d   1      28.038 -12.359   0.884  0.00  0.00     0.111 C 
ATOM     10  N   UNL d   1      28.855 -12.727   1.983  0.00  0.00    -0.147 NA
ENDROOT
BRANCH   7  11
ATOM     11  N   UNL d   1      27.415 -12.798  -2.898  0.00  0.00    -0.324 N 
ATOM     12  C   UNL d   1      26.553 -11.917  -3.569  0.00  0.00     0.255 C 
ATOM     13  O   UNL d   1      25.618 -11.387  -3.009  0.00  0.00    -0.270 OA
ATOM     14  H   UNL d   1      27.750 -13.551  -3.492  0.00  0.00     0.169 HD
BRANCH  12  15
ATOM     15  C   UNL d   1      26.849 -11.744  -5.161  0.00  0.00     0.247 C 
BRANCH  15  16
ATOM     16  C   UNL d   1      27.756 -12.849  -5.747  0.00  0.00     0.001 A 
ATOM     17  C   UNL d   1      28.895 -12.488  -6.521  0.00  0.00     0.012 A 
ATOM     18  C   UNL d   1      29.676 -13.459  -7.173  0.00  0.00     0.001 A 
ATOM     19  C   UNL d   1      29.410 -14.809  -6.983  0.00  0.00     0.002 A 
ATOM     20  C   UNL d   1      28.324 -15.184  -6.205  0.00  0.00     0.024 A 
ATOM     21  C   UNL d   1      27.474 -14.227  -5.642  0.00  0.00     0.043 A 
ATOM     22 CL   UNL d   1      26.049 -14.900  -4.924  0.00  0.00    -0.084 Cl
ENDBRANCH  15  16
BRANCH  15  23
ATOM     23  O   UNL d   1      25.778 -11.541  -6.092  0.00  0.00    -0.377 OA
ATOM     24  C   UNL d   1      25.533 -10.184  -6.419  0.00  0.00     0.203 C 
ENDBRANCH  15  23
ENDBRANCH  12  15
ENDBRANCH   7  11
BRANCH   1  25
ATOM     25  C   UNL d   1      28.034 -13.402   4.419  0.00  0.00     0.079 A 
ATOM     26  C   UNL d   1      27.989 -12.371   5.412  0.00  0.00     0.036 A 
ATOM     27  C   UNL d   1      28.423 -12.593   6.785  0.00  0.00     0.039 A 
ATOM     28  C   UNL d   1      28.904 -13.841   7.211  0.00  0.00     0.134 A 
ATOM     29  C   UNL d   1      28.984 -14.827   6.218  0.00  0.00     0.039 A 
ATOM     30  C   UNL d   1      28.590 -14.601   4.860  0.00  0.00     0.036 A 
BRANCH  28  31
ATOM     31  N   UNL d   1      29.333 -14.075   8.686  0.00  0.00    -0.042 N 
ATOM     32  H   UNL d   1      29.240 -15.090   8.804  0.00  0.00     0.286 HD
BRANCH  31  33
ATOM     33  C   UNL d   1      28.279 -13.583   9.691  0.00  0.00     0.237 C 
ATOM     34  C   UNL d   1      28.239 -14.308  11.024  0.00  0.00     0.035 C 
ENDBRANCH  31  33
BRANCH  31  35
ATOM     35  C   UNL d   1      30.853 -13.889   8.837  0.00  0.00     0.237 C 
ATOM     36  C   UNL d   1      31.583 -14.980   9.606  0.00  0.00     0.035 C 
ENDBRANCH  31  35
ENDBRANCH  28  31
ENDBRANCH   1  25
TORSDOF 8
ENDMDL
MODEL 9
REMARK VINA RESULT:    -7.253      2.001      2.791
REMARK INTER + INTRA:         -11.474
REMARK INTER:                  -9.640
REMARK INTRA:                  -1.834
REMARK CONF_INDEPENDENT:        2.386
REMARK UNBOUND:                -1.834
REMARK  8 active torsions:
REMARK  status: ('A' for Active; 'I' for Inactive)
REMARK    1  A    between atoms: C_2  and  N_3 
REMARK    2  A    between atoms: N_3  and  C_4 
REMARK    3  A    between atoms: N_3  and  C_6 
REMARK    4  A    between atoms: C_9  and  N_10 
REMARK    5  A    between atoms: C_16  and  N_17 
REMARK       I    between atoms: N_17  and  C_18 
REMARK    6  A    between atoms: C_20  and  C_18 
REMARK    7  A    between atoms: C_20  and  C_23 
REMARK    8  A    between atoms: C_20  and  O_21 
ROOT
ATOM      1  N   UNL d   1      28.298 -13.327   5.077  0.00  0.00    -0.150 N 
ATOM      2  N   UNL d   1      28.618 -14.607   4.775  0.00  0.00    -0.147 NA
ATOM      3  C   UNL d   1      28.678 -14.450   3.448  0.00  0.00     0.110 C 
ATOM      4  C   UNL d   1      29.787 -14.312   2.603  0.00  0.00     0.045 C 
ATOM      5  C   UNL d   1      29.504 -13.987   1.254  0.00  0.00    -0.033 C 
ATOM      6  C   UNL d   1      30.568 -13.331   0.427  0.00  0.00     0.050 C 
ATOM      7  C   UNL d   1      28.218 -14.188   0.718  0.00  0.00     0.043 C 
ATOM      8  C   UNL d   1      27.120 -13.937   1.605  0.00  0.00     0.066 C 
ATOM      9  C   UNL d   1      27.480 -13.788   3.036  0.00  0.00     0.111 C 
ATOM     10  N   UNL d   1      27.459 -12.773   4.026  0.00  0.00    -0.147 NA
ENDROOT
BRANCH   7  11
ATOM     11  N   UNL d   1      28.186 -14.597  -0.669  0.00  0.00    -0.324 N 
ATOM     12  C   UNL d   1      28.553 -15.833  -1.224  0.00  0.00     0.255 C 
ATOM     13  O   UNL d   1      29.263 -16.614  -0.630  0.00  0.00    -0.270 OA
ATOM     14  H   UNL d   1      28.106 -13.860  -1.364  0.00  0.00     0.169 HD
BRANCH  12  15
ATOM     15  C   UNL d   1      28.034 -16.084  -2.748  0.00  0.00     0.247 C 
BRANCH  15  16
ATOM     16  C   UNL d   1      26.753 -15.297  -3.104  0.00  0.00     0.001 A 
ATOM     17  C   UNL d   1      26.803 -14.287  -4.107  0.00  0.00     0.012 A 
ATOM     18  C   UNL d   1      25.693 -13.467  -4.377  0.00  0.00     0.001 A 
ATOM     19  C   UNL d   1      24.483 -13.699  -3.735  0.00  0.00     0.002 A 
ATOM     20  C   UNL d   1      24.403 -14.699  -2.777  0.00  0.00     0.024 A 
ATOM     21  C   UNL d   1      25.529 -15.449  -2.421  0.00  0.00     0.043 A 
ATOM     22 CL   UNL d   1      25.277 -16.465  -1.041  0.00  0.00    -0.084 Cl
ENDBRANCH  15  16
BRANCH  15  23
ATOM     23  O   UNL d   1      28.929 -15.958  -3.861  0.00  0.00    -0.377 OA
ATOM     24  C   UNL d   1      30.172 -15.352  -3.549  0.00  0.00     0.203 C 
ENDBRANCH  15  23
ENDBRANCH  12  15
ENDBRANCH   7  11
BRANCH   1  25
ATOM     25  C   UNL d   1      28.386 -12.954   6.511  0.00  0.00     0.079 A 
ATOM     26  C   UNL d   1      28.177 -11.649   7.063  0.00  0.00     0.036 A 
ATOM     27  C   UNL d   1      28.562 -11.311   8.427  0.00  0.00     0.039 A 
ATOM     28  C   UNL d   1      29.156 -12.256   9.280  0.00  0.00     0.134 A 
ATOM     29  C   UNL d   1      29.395 -13.514   8.710  0.00  0.00     0.039 A 
ATOM     30  C   UNL d   1      29.047 -13.839   7.359  0.00  0.00     0.036 A 
BRANCH  28  31
ATOM     31  N   UNL d   1      29.532 -11.892  10.742  0.00  0.00    -0.042 N 
ATOM     32  H   UNL d   1      29.249 -10.909  10.824  0.00  0.00     0.286 HD
BRANCH  31  33
ATOM     33  C   UNL d   1      31.051 -11.757  10.944  0.00  0.00     0.237 C 
ATOM     34  C   UNL d   1      31.862 -11.428   9.704  0.00  0.00     0.035 C 
ENDBRANCH  31  33
BRANCH  31  35
ATOM     35  C   UNL d   1      28.567 -12.571  11.728  0.00  0.00     0.237 C 
ATOM     36  C   UNL d   1      27.408 -13.336  11.105  0.00  0.00     0.035 C 
ENDBRANCH  31  35
ENDBRANCH  28  31
ENDBRANCH   1  25
TORSDOF 8
ENDMDL
