MODEL 1
REMARK VINA RESULT:    -9.501      0.000      0.000
REMARK INTER + INTRA:         -13.818
REMARK INTER:                 -11.589
REMARK INTRA:                  -2.229
REMARK CONF_INDEPENDENT:        2.088
REMARK UNBOUND:                -2.229
REMARK  7 active torsions:
REMARK  status: ('A' for Active; 'I' for Inactive)
REMARK    1  A    between atoms: C_5  and  N_6 
REMARK       I    between atoms: N_6  and  C_7 
REMARK    2  A    between atoms: C_7  and  C_9 
REMARK       I    between atoms: C_9  and  N_11 
REMARK    3  A    between atoms: N_11  and  C_12 
REMARK    4  A    between atoms: C_12  and  C_13 
REMARK    5  A    between atoms: C_16  and  C_17 
REMARK    6  A    between atoms: N_18  and  N_19 
REMARK       I    between atoms: N_19  and  C_20 
REMARK    7  A    between atoms: C_20  and  C_22 
ROOT
ATOM      1  C   UNL d   1      26.746 -16.026  -1.264  0.00  0.00     0.071 A 
ATOM      2  C   UNL d   1      27.828 -16.769  -0.830  0.00  0.00     0.037 A 
ATOM      3  C   UNL d   1      28.366 -16.112   0.293  0.00  0.00     0.041 A 
ATOM      4  C   UNL d   1      27.604 -14.983   0.520  0.00  0.00     0.095 A 
ATOM      5  O   UNL d   1      26.597 -14.918  -0.443  0.00  0.00    -0.312 OA
ENDROOT
BRANCH   1   6
ATOM      6  C   UNL d   1      25.839 -16.324  -2.432  0.00  0.00     0.188 C 
BRANCH   6   7
ATOM      7  N   UNL d   1      24.725 -17.196  -2.177  0.00  0.00    -0.347 N 
ATOM      8  C   UNL d   1      23.971 -17.109  -1.008  0.00  0.00     0.310 C 
ATOM      9  O   UNL d   1      24.151 -16.313  -0.092  0.00  0.00    -0.262 OA
ATOM     10  H   UNL d   1      24.467 -17.904  -2.858  0.00  0.00     0.163 HD
BRANCH   8  11
ATOM     11  C   UNL d   1      22.825 -18.140  -0.936  0.00  0.00     0.313 C 
ATOM     12  N   UNL d   1      21.965 -18.077   0.171  0.00  0.00    -0.319 N 
ATOM     13  H   UNL d   1      22.146 -17.349   0.857  0.00  0.00     0.169 HD
ATOM     14  O   UNL d   1      22.784 -18.928  -1.877  0.00  0.00    -0.262 OA
BRANCH  12  15
ATOM     15  C   UNL d   1      20.854 -18.950   0.388  0.00  0.00     0.035 A 
ATOM     16  C   UNL d   1      20.010 -19.345  -0.664  0.00  0.00     0.030 A 
ATOM     17  C   UNL d   1      18.927 -20.225  -0.430  0.00  0.00     0.009 A 
ATOM     18  C   UNL d   1      18.669 -20.721   0.854  0.00  0.00    -0.062 A 
ATOM     19  C   UNL d   1      17.549 -21.671   1.155  0.00  0.00     0.048 C 
ATOM     20  C   UNL d   1      19.497 -20.320   1.895  0.00  0.00     0.009 A 
ATOM     21  C   UNL d   1      20.562 -19.450   1.659  0.00  0.00     0.030 A 
ENDBRANCH  12  15
ENDBRANCH   8  11
ENDBRANCH   6   7
ENDBRANCH   1   6
BRANCH   4  22
ATOM     22  C   UNL d   1      27.753 -13.984   1.574  0.00  0.00     0.175 C 
ATOM     23  N   UNL d   1      28.431 -14.283   2.647  0.00  0.00    -0.181 NA
BRANCH  23  24
ATOM     24  N   UNL d   1      28.584 -13.360   3.671  0.00  0.00    -0.242 N 
ATOM     25  C   UNL d   1      27.999 -13.633   4.920  0.00  0.00     0.290 C 
ATOM     26  O   UNL d   1      27.350 -14.665   5.120  0.00  0.00    -0.264 OA
ATOM     27  H   UNL d   1      29.197 -12.565   3.546  0.00  0.00     0.192 HD
BRANCH  25  28
ATOM     28  C   UNL d   1      28.226 -12.684   5.999  0.00  0.00     0.135 A 
ATOM     29  C   UNL d   1      28.198 -11.294   5.903  0.00  0.00     0.066 A 
ATOM     30  C   UNL d   1      27.848 -10.452   4.730  0.00  0.00     0.073 C 
ATOM     31  N   UNL d   1      28.530 -10.693   7.098  0.00  0.00    -0.233 NA
ATOM     32  C   UNL d   1      28.798 -11.680   7.922  0.00  0.00     0.134 A 
ATOM     33  C   UNL d   1      29.216 -11.668   9.288  0.00  0.00     0.051 A 
ATOM     34  N   UNL d   1      28.638 -12.923   7.301  0.00  0.00    -0.300 N 
ATOM     35  C   UNL d   1      29.444 -12.831   9.929  0.00  0.00     0.005 A 
ATOM     36  C   UNL d   1      29.292 -14.106   9.248  0.00  0.00     0.018 A 
ATOM     37  C   UNL d   1      28.905 -14.124   7.962  0.00  0.00     0.099 A 
ENDBRANCH  25  28
ENDBRANCH  23  24
ENDBRANCH   4  22
TORSDOF 7
ENDMDL
MODEL 2
REMARK VINA RESULT:    -9.160      6.345     10.196
REMARK INTER + INTRA:         -12.957
REMARK INTER:                 -11.249
REMARK INTRA:                  -1.708
REMARK CONF_INDEPENDENT:        2.088
REMARK UNBOUND:                -1.708
REMARK  7 active torsions:
REMARK  status: ('A' for Active; 'I' for Inactive)
REMARK    1  A    between atoms: C_5  and  N_6 
REMARK       I    between atoms: N_6  and  C_7 
REMARK    2  A    between atoms: C_7  and  C_9 
REMARK       I    between atoms: C_9  and  N_11 
REMARK    3  A    between atoms: N_11  and  C_12 
REMARK    4  A    between atoms: C_12  and  C_13 
REMARK    5  A    between atoms: C_16  and  C_17 
REMARK    6  A    between atoms: N_18  and  N_19 
REMARK       I    between atoms: N_19  and  C_20 
REMARK    7  A    between atoms: C_20  and  C_22 
ROOT
ATOM      1  C   UNL d   1      26.200 -15.979  -2.405  0.00  0.00     0.071 A 
ATOM      2  C   UNL d   1      25.129 -15.193  -2.788  0.00  0.00     0.037 A 
ATOM      3  C   UNL d   1      25.536 -14.444  -3.908  0.00  0.00     0.041 A 
ATOM      4  C   UNL d   1      26.846 -14.787  -4.185  0.00  0.00     0.095 A 
ATOM      5  O   UNL d   1      27.268 -15.737  -3.256  0.00  0.00    -0.312 OA
ENDROOT
BRANCH   1   6
ATOM      6  C   UNL d   1      26.254 -16.959  -1.259  0.00  0.00     0.188 C 
BRANCH   6   7
ATOM      7  N   UNL d   1      25.107 -17.807  -1.082  0.00  0.00    -0.347 N 
ATOM      8  C   UNL d   1      23.877 -17.309  -0.654  0.00  0.00     0.310 C 
ATOM      9  O   UNL d   1      23.627 -16.137  -0.389  0.00  0.00    -0.262 OA
ATOM     10  H   UNL d   1      25.178 -18.804  -1.268  0.00  0.00     0.163 HD
BRANCH   8  11
ATOM     11  C   UNL d   1      22.784 -18.390  -0.529  0.00  0.00     0.313 C 
ATOM     12  N   UNL d   1      21.794 -18.201   0.447  0.00  0.00    -0.319 N 
ATOM     13  H   UNL d   1      21.854 -17.356   1.010  0.00  0.00     0.169 HD
ATOM     14  O   UNL d   1      22.897 -19.327  -1.315  0.00  0.00    -0.262 OA
BRANCH  12  15
ATOM     15  C   UNL d   1      20.710 -19.100   0.690  0.00  0.00     0.035 A 
ATOM     16  C   UNL d   1      20.374 -19.515   1.991  0.00  0.00     0.030 A 
ATOM     17  C   UNL d   1      19.284 -20.391   2.210  0.00  0.00     0.009 A 
ATOM     18  C   UNL d   1      18.516 -20.865   1.140  0.00  0.00    -0.062 A 
ATOM     19  C   UNL d   1      17.339 -21.777   1.316  0.00  0.00     0.048 C 
ATOM     20  C   UNL d   1      18.858 -20.463  -0.146  0.00  0.00     0.009 A 
ATOM     21  C   UNL d   1      19.934 -19.602  -0.357  0.00  0.00     0.030 A 
ENDBRANCH  12  15
ENDBRANCH   8  11
ENDBRANCH   6   7
ENDBRANCH   1   6
BRANCH   4  22
ATOM     22  C   UNL d   1      27.706 -14.295  -5.258  0.00  0.00     0.175 C 
ATOM     23  N   UNL d   1      28.174 -15.135  -6.138  0.00  0.00    -0.181 NA
BRANCH  23  24
ATOM     24  N   UNL d   1      29.001 -14.701  -7.164  0.00  0.00    -0.242 N 
ATOM     25  C   UNL d   1      29.832 -13.590  -6.938  0.00  0.00     0.290 C 
ATOM     26  O   UNL d   1      29.836 -12.993  -5.857  0.00  0.00    -0.264 OA
ATOM     27  H   UNL d   1      29.078 -15.245  -8.013  0.00  0.00     0.192 HD
BRANCH  25  28
ATOM     28  C   UNL d   1      30.739 -13.192  -8.004  0.00  0.00     0.135 A 
ATOM     29  C   UNL d   1      30.545 -12.156  -8.916  0.00  0.00     0.066 A 
ATOM     30  C   UNL d   1      29.440 -11.165  -8.973  0.00  0.00     0.073 C 
ATOM     31  N   UNL d   1      31.564 -12.094  -9.842  0.00  0.00    -0.233 NA
ATOM     32  C   UNL d   1      32.365 -13.092  -9.547  0.00  0.00     0.134 A 
ATOM     33  C   UNL d   1      33.572 -13.536 -10.169  0.00  0.00     0.051 A 
ATOM     34  N   UNL d   1      31.905 -13.806  -8.435  0.00  0.00    -0.300 N 
ATOM     35  C   UNL d   1      34.220 -14.611  -9.682  0.00  0.00     0.005 A 
ATOM     36  C   UNL d   1      33.704 -15.345  -8.539  0.00  0.00     0.018 A 
ATOM     37  C   UNL d   1      32.567 -14.937  -7.953  0.00  0.00     0.099 A 
ENDBRANCH  25  28
ENDBRANCH  23  24
ENDBRANCH   4  22
TORSDOF 7
ENDMDL
MODEL 3
REMARK VINA RESULT:    -8.955      0.927      2.162
REMARK INTER + INTRA:         -13.134
REMARK INTER:                 -11.043
REMARK INTRA:                  -2.090
REMARK CONF_INDEPENDENT:        2.088
REMARK UNBOUND:                -2.090
REMARK  7 active torsions:
REMARK  status: ('A' for Active; 'I' for Inactive)
REMARK    1  A    between atoms: C_5  and  N_6 
REMARK       I    between atoms: N_6  and  C_7 
REMARK    2  A    between atoms: C_7  and  C_9 
REMARK       I    between atoms: C_9  and  N_11 
REMARK    3  A    between atoms: N_11  and  C_12 
REMARK    4  A    between atoms: C_12  and  C_13 
REMARK    5  A    between atoms: C_16  and  C_17 
REMARK    6  A    between atoms: N_18  and  N_19 
REMARK       I    between atoms: N_19  and  C_20 
REMARK    7  A    between atoms: C_20  and  C_22 
ROOT
ATOM      1  C   UNL d   1      26.889 -16.058  -1.251  0.00  0.00     0.071 A 
ATOM      2  C   UNL d   1      27.727 -17.068  -0.817  0.00  0.00     0.037 A 
ATOM      3  C   UNL d   1      28.509 -16.544   0.230  0.00  0.00     0.041 A 
ATOM      4  C   UNL d   1      28.134 -15.227   0.413  0.00  0.00     0.095 A 
ATOM      5  O   UNL d   1      27.131 -14.915  -0.504  0.00  0.00    -0.312 OA
ENDROOT
BRANCH   1   6
ATOM      6  C   UNL d   1      25.860 -16.131  -2.352  0.00  0.00     0.188 C 
BRANCH   6   7
ATOM      7  N   UNL d   1      24.744 -17.009  -2.133  0.00  0.00    -0.347 N 
ATOM      8  C   UNL d   1      24.186 -17.195  -0.869  0.00  0.00     0.310 C 
ATOM      9  O   UNL d   1      24.557 -16.656   0.169  0.00  0.00    -0.262 OA
ATOM     10  H   UNL d   1      24.337 -17.520  -2.912  0.00  0.00     0.163 HD
BRANCH   8  11
ATOM     11  C   UNL d   1      22.999 -18.182  -0.858  0.00  0.00     0.313 C 
ATOM     12  N   UNL d   1      22.116 -18.121   0.230  0.00  0.00    -0.319 N 
ATOM     13  H   UNL d   1      22.309 -17.423   0.945  0.00  0.00     0.169 HD
ATOM     14  O   UNL d   1      22.950 -18.935  -1.826  0.00  0.00    -0.262 OA
BRANCH  12  15
ATOM     15  C   UNL d   1      20.967 -18.955   0.393  0.00  0.00     0.035 A 
ATOM     16  C   UNL d   1      20.122 -19.265  -0.687  0.00  0.00     0.030 A 
ATOM     17  C   UNL d   1      19.000 -20.108  -0.508  0.00  0.00     0.009 A 
ATOM     18  C   UNL d   1      18.703 -20.653   0.747  0.00  0.00    -0.062 A 
ATOM     19  C   UNL d   1      17.541 -21.568   0.990  0.00  0.00     0.048 C 
ATOM     20  C   UNL d   1      19.534 -20.336   1.816  0.00  0.00     0.009 A 
ATOM     21  C   UNL d   1      20.637 -19.502   1.635  0.00  0.00     0.030 A 
ENDBRANCH  12  15
ENDBRANCH   8  11
ENDBRANCH   6   7
ENDBRANCH   1   6
BRANCH   4  22
ATOM     22  C   UNL d   1      28.642 -14.265   1.386  0.00  0.00     0.175 C 
ATOM     23  N   UNL d   1      28.168 -14.274   2.601  0.00  0.00    -0.181 NA
BRANCH  23  24
ATOM     24  N   UNL d   1      28.623 -13.367   3.547  0.00  0.00    -0.242 N 
ATOM     25  C   UNL d   1      27.987 -13.322   4.800  0.00  0.00     0.290 C 
ATOM     26  O   UNL d   1      27.036 -14.062   5.071  0.00  0.00    -0.264 OA
ATOM     27  H   UNL d   1      29.463 -12.832   3.370  0.00  0.00     0.192 HD
BRANCH  25  28
ATOM     28  C   UNL d   1      28.521 -12.412   5.801  0.00  0.00     0.135 A 
ATOM     29  C   UNL d   1      28.990 -12.752   7.069  0.00  0.00     0.066 A 
ATOM     30  C   UNL d   1      29.146 -14.102   7.668  0.00  0.00     0.073 C 
ATOM     31  N   UNL d   1      29.356 -11.639   7.794  0.00  0.00    -0.233 NA
ATOM     32  C   UNL d   1      29.090 -10.614   7.017  0.00  0.00     0.134 A 
ATOM     33  C   UNL d   1      29.242  -9.211   7.238  0.00  0.00     0.051 A 
ATOM     34  N   UNL d   1      28.567 -11.026   5.787  0.00  0.00    -0.300 N 
ATOM     35  C   UNL d   1      28.881  -8.338   6.277  0.00  0.00     0.005 A 
ATOM     36  C   UNL d   1      28.319  -8.797   5.018  0.00  0.00     0.018 A 
ATOM     37  C   UNL d   1      28.168 -10.115   4.806  0.00  0.00     0.099 A 
ENDBRANCH  25  28
ENDBRANCH  23  24
ENDBRANCH   4  22
TORSDOF 7
ENDMDL
MODEL 4
REMARK VINA RESULT:    -8.861      6.191     10.383
REMARK INTER + INTRA:         -13.144
REMARK INTER:                 -10.949
REMARK INTRA:                  -2.195
REMARK CONF_INDEPENDENT:        2.088
REMARK UNBOUND:                -2.195
REMARK  7 active torsions:
REMARK  status: ('A' for Active; 'I' for Inactive)
REMARK    1  A    between atoms: C_5  and  N_6 
REMARK       I    between atoms: N_6  and  C_7 
REMARK    2  A    between atoms: C_7  and  C_9 
REMARK       I    between atoms: C_9  and  N_11 
REMARK    3  A    between atoms: N_11  and  C_12 
REMARK    4  A    between atoms: C_12  and  C_13 
REMARK    5  A    between atoms: C_16  and  C_17 
REMARK    6  A    between atoms: N_18  and  N_19 
REMARK       I    between atoms: N_19  and  C_20 
REMARK    7  A    between atoms: C_20  and  C_22 
ROOT
ATOM      1  C   UNL d   1      26.640 -16.012  -2.390  0.00  0.00     0.071 A 
ATOM      2  C   UNL d   1      25.600 -15.258  -2.901  0.00  0.00     0.037 A 
ATOM      3  C   UNL d   1      26.074 -14.620  -4.063  0.00  0.00     0.041 A 
ATOM      4  C   UNL d   1      27.392 -14.996  -4.237  0.00  0.00     0.095 A 
ATOM      5  O   UNL d   1      27.754 -15.858  -3.202  0.00  0.00    -0.312 OA
ENDROOT
BRANCH   1   6
ATOM      6  C   UNL d   1      26.622 -16.881  -1.157  0.00  0.00     0.188 C 
BRANCH   6   7
ATOM      7  N   UNL d   1      25.481 -17.737  -0.988  0.00  0.00    -0.347 N 
ATOM      8  C   UNL d   1      24.269 -17.264  -0.488  0.00  0.00     0.310 C 
ATOM      9  O   UNL d   1      24.032 -16.110  -0.145  0.00  0.00    -0.262 OA
ATOM     10  H   UNL d   1      25.542 -18.721  -1.235  0.00  0.00     0.163 HD
BRANCH   8  11
ATOM     11  C   UNL d   1      23.177 -18.350  -0.385  0.00  0.00     0.313 C 
ATOM     12  N   UNL d   1      22.045 -18.061   0.389  0.00  0.00    -0.319 N 
ATOM     13  H   UNL d   1      22.008 -17.146   0.833  0.00  0.00     0.169 HD
ATOM     14  O   UNL d   1      23.421 -19.380  -1.008  0.00  0.00    -0.262 OA
BRANCH  12  15
ATOM     15  C   UNL d   1      20.943 -18.950   0.583  0.00  0.00     0.035 A 
ATOM     16  C   UNL d   1      20.211 -19.464  -0.502  0.00  0.00     0.030 A 
ATOM     17  C   UNL d   1      19.135 -20.358  -0.288  0.00  0.00     0.009 A 
ATOM     18  C   UNL d   1      18.772 -20.751   1.006  0.00  0.00    -0.062 A 
ATOM     19  C   UNL d   1      17.656 -21.710   1.289  0.00  0.00     0.048 C 
ATOM     20  C   UNL d   1      19.490 -20.232   2.077  0.00  0.00     0.009 A 
ATOM     21  C   UNL d   1      20.548 -19.349   1.862  0.00  0.00     0.030 A 
ENDBRANCH  12  15
ENDBRANCH   8  11
ENDBRANCH   6   7
ENDBRANCH   1   6
BRANCH   4  22
ATOM     22  C   UNL d   1      28.313 -14.612  -5.303  0.00  0.00     0.175 C 
ATOM     23  N   UNL d   1      28.753 -15.523  -6.126  0.00  0.00    -0.181 NA
BRANCH  23  24
ATOM     24  N   UNL d   1      29.635 -15.193  -7.145  0.00  0.00    -0.242 N 
ATOM     25  C   UNL d   1      31.009 -15.130  -6.854  0.00  0.00     0.290 C 
ATOM     26  O   UNL d   1      31.442 -15.353  -5.719  0.00  0.00    -0.264 OA
ATOM     27  H   UNL d   1      29.300 -15.109  -8.095  0.00  0.00     0.192 HD
BRANCH  25  28
ATOM     28  C   UNL d   1      31.924 -14.847  -7.949  0.00  0.00     0.135 A 
ATOM     29  C   UNL d   1      32.765 -15.758  -8.586  0.00  0.00     0.066 A 
ATOM     30  C   UNL d   1      32.871 -17.225  -8.377  0.00  0.00     0.073 C 
ATOM     31  N   UNL d   1      33.556 -15.146  -9.534  0.00  0.00    -0.233 NA
ATOM     32  C   UNL d   1      33.250 -13.870  -9.473  0.00  0.00     0.134 A 
ATOM     33  C   UNL d   1      33.759 -12.753 -10.203  0.00  0.00     0.051 A 
ATOM     34  N   UNL d   1      32.262 -13.627  -8.513  0.00  0.00    -0.300 N 
ATOM     35  C   UNL d   1      33.287 -11.517  -9.949  0.00  0.00     0.005 A 
ATOM     36  C   UNL d   1      32.277 -11.293  -8.928  0.00  0.00     0.018 A 
ATOM     37  C   UNL d   1      31.799 -12.339  -8.235  0.00  0.00     0.099 A 
ENDBRANCH  25  28
ENDBRANCH  23  24
ENDBRANCH   4  22
TORSDOF 7
ENDMDL
MODEL 5
REMARK VINA RESULT:    -8.701      1.576      2.164
REMARK INTER + INTRA:         -12.933
REMARK INTER:                 -10.789
REMARK INTRA:                  -2.145
REMARK CONF_INDEPENDENT:        2.088
REMARK UNBOUND:                -2.145
REMARK  7 active torsions:
REMARK  status: ('A' for Active; 'I' for Inactive)
REMARK    1  A    between atoms: C_5  and  N_6 
REMARK       I    between atoms: N_6  and  C_7 
REMARK    2  A    between atoms: C_7  and  C_9 
REMARK       I    between atoms: C_9  and  N_11 
REMARK    3  A    between atoms: N_11  and  C_12 
REMARK    4  A    between atoms: C_12  and  C_13 
REMARK    5  A    between atoms: C_16  and  C_17 
REMARK    6  A    between atoms: N_18  and  N_19 
REMARK       I    between atoms: N_19  and  C_20 
REMARK    7  A    between atoms: C_20  and  C_22 
ROOT
ATOM      1  C   UNL d   1      27.386 -15.497   0.931  0.00  0.00     0.071 A 
ATOM      2  C   UNL d   1      26.709 -14.323   0.661  0.00  0.00     0.037 A 
ATOM      3  C   UNL d   1      26.959 -13.439   1.728  0.00  0.00     0.041 A 
ATOM      4  C   UNL d   1      27.781 -14.092   2.626  0.00  0.00     0.095 A 
ATOM      5  O   UNL d   1      28.050 -15.371   2.142  0.00  0.00    -0.312 OA
ENDROOT
BRANCH   1   6
ATOM      6  C   UNL d   1      27.433 -16.744   0.082  0.00  0.00     0.188 C 
BRANCH   6   7
ATOM      7  N   UNL d   1      26.263 -17.578   0.096  0.00  0.00    -0.347 N 
ATOM      8  C   UNL d   1      25.021 -17.117  -0.336  0.00  0.00     0.310 C 
ATOM      9  O   UNL d   1      24.779 -15.994  -0.767  0.00  0.00    -0.262 OA
ATOM     10  H   UNL d   1      26.325 -18.535   0.431  0.00  0.00     0.163 HD
BRANCH   8  11
ATOM     11  C   UNL d   1      23.901 -18.174  -0.233  0.00  0.00     0.313 C 
ATOM     12  N   UNL d   1      22.576 -17.714  -0.210  0.00  0.00    -0.319 N 
ATOM     13  H   UNL d   1      22.433 -16.709  -0.271  0.00  0.00     0.169 HD
ATOM     14  O   UNL d   1      24.296 -19.335  -0.179  0.00  0.00    -0.262 OA
BRANCH  12  15
ATOM     15  C   UNL d   1      21.424 -18.557  -0.125  0.00  0.00     0.035 A 
ATOM     16  C   UNL d   1      20.639 -18.848  -1.253  0.00  0.00     0.030 A 
ATOM     17  C   UNL d   1      19.513 -19.700  -1.149  0.00  0.00     0.009 A 
ATOM     18  C   UNL d   1      19.155 -20.271   0.078  0.00  0.00    -0.062 A 
ATOM     19  C   UNL d   1      17.986 -21.196   0.241  0.00  0.00     0.048 C 
ATOM     20  C   UNL d   1      19.926 -19.972   1.194  0.00  0.00     0.009 A 
ATOM     21  C   UNL d   1      21.033 -19.129   1.088  0.00  0.00     0.030 A 
ENDBRANCH  12  15
ENDBRANCH   8  11
ENDBRANCH   6   7
ENDBRANCH   1   6
BRANCH   4  22
ATOM     22  C   UNL d   1      28.329 -13.592   3.884  0.00  0.00     0.175 C 
ATOM     23  N   UNL d   1      28.016 -14.188   5.000  0.00  0.00    -0.181 NA
BRANCH  23  24
ATOM     24  N   UNL d   1      28.513 -13.733   6.213  0.00  0.00    -0.242 N 
ATOM     25  C   UNL d   1      28.147 -12.449   6.654  0.00  0.00     0.290 C 
ATOM     26  O   UNL d   1      27.404 -11.722   5.987  0.00  0.00    -0.264 OA
ATOM     27  H   UNL d   1      29.037 -14.359   6.810  0.00  0.00     0.192 HD
BRANCH  25  28
ATOM     28  C   UNL d   1      28.625 -12.017   7.958  0.00  0.00     0.135 A 
ATOM     29  C   UNL d   1      29.306 -10.834   8.243  0.00  0.00     0.066 A 
ATOM     30  C   UNL d   1      29.626  -9.705   7.331  0.00  0.00     0.073 C 
ATOM     31  N   UNL d   1      29.682 -10.768   9.567  0.00  0.00    -0.233 NA
ATOM     32  C   UNL d   1      29.281 -11.899  10.101  0.00  0.00     0.134 A 
ATOM     33  C   UNL d   1      29.409 -12.400  11.432  0.00  0.00     0.051 A 
ATOM     34  N   UNL d   1      28.636 -12.708   9.159  0.00  0.00    -0.300 N 
ATOM     35  C   UNL d   1      28.919 -13.616  11.740  0.00  0.00     0.005 A 
ATOM     36  C   UNL d   1      28.274 -14.443  10.734  0.00  0.00     0.018 A 
ATOM     37  C   UNL d   1      28.156 -13.980   9.478  0.00  0.00     0.099 A 
ENDBRANCH  25  28
ENDBRANCH  23  24
ENDBRANCH   4  22
TORSDOF 7
ENDMDL
MODEL 6
REMARK VINA RESULT:    -8.618      6.195     10.654
REMARK INTER + INTRA:         -12.748
REMARK INTER:                 -10.706
REMARK INTRA:                  -2.042
REMARK CONF_INDEPENDENT:        2.088
REMARK UNBOUND:                -2.042
REMARK  7 active torsions:
REMARK  status: ('A' for Active; 'I' for Inactive)
REMARK    1  A    between atoms: C_5  and  N_6 
REMARK       I    between atoms: N_6  and  C_7 
REMARK    2  A    between atoms: C_7  and  C_9 
REMARK       I    between atoms: C_9  and  N_11 
REMARK    3  A    between atoms: N_11  and  C_12 
REMARK    4  A    between atoms: C_12  and  C_13 
REMARK    5  A    between atoms: C_16  and  C_17 
REMARK    6  A    between atoms: N_18  and  N_19 
REMARK       I    between atoms: N_19  and  C_20 
REMARK    7  A    between atoms: C_20  and  C_22 
ROOT
ATOM      1  C   UNL d   1      25.873 -14.761  -2.788  0.00  0.00     0.071 A 
ATOM      2  C   UNL d   1      25.188 -13.780  -3.480  0.00  0.00     0.037 A 
ATOM      3  C   UNL d   1      25.865 -13.572  -4.696  0.00  0.00     0.041 A 
ATOM      4  C   UNL d   1      26.949 -14.428  -4.721  0.00  0.00     0.095 A 
ATOM      5  O   UNL d   1      26.965 -15.169  -3.540  0.00  0.00    -0.312 OA
ENDROOT
BRANCH   1   6
ATOM      6  C   UNL d   1      25.534 -15.335  -1.435  0.00  0.00     0.188 C 
BRANCH   6   7
ATOM      7  N   UNL d   1      24.268 -16.005  -1.318  0.00  0.00    -0.347 N 
ATOM      8  C   UNL d   1      24.011 -16.931  -0.308  0.00  0.00     0.310 C 
ATOM      9  O   UNL d   1      24.795 -17.273   0.572  0.00  0.00    -0.262 OA
ATOM     10  H   UNL d   1      23.526 -15.812  -1.986  0.00  0.00     0.163 HD
BRANCH   8  11
ATOM     11  C   UNL d   1      22.592 -17.533  -0.369  0.00  0.00     0.313 C 
ATOM     12  N   UNL d   1      22.323 -18.643   0.444  0.00  0.00    -0.319 N 
ATOM     13  H   UNL d   1      23.081 -18.981   1.032  0.00  0.00     0.169 HD
ATOM     14  O   UNL d   1      21.827 -16.963  -1.144  0.00  0.00    -0.262 OA
BRANCH  12  15
ATOM     15  C   UNL d   1      21.063 -19.316   0.512  0.00  0.00     0.035 A 
ATOM     16  C   UNL d   1      20.217 -19.411  -0.606  0.00  0.00     0.030 A 
ATOM     17  C   UNL d   1      18.982 -20.098  -0.521  0.00  0.00     0.009 A 
ATOM     18  C   UNL d   1      18.574 -20.697   0.677  0.00  0.00    -0.062 A 
ATOM     19  C   UNL d   1      17.288 -21.454   0.818  0.00  0.00     0.048 C 
ATOM     20  C   UNL d   1      19.407 -20.591   1.784  0.00  0.00     0.009 A 
ATOM     21  C   UNL d   1      20.622 -19.911   1.696  0.00  0.00     0.030 A 
ENDBRANCH  12  15
ENDBRANCH   8  11
ENDBRANCH   6   7
ENDBRANCH   1   6
BRANCH   4  22
ATOM     22  C   UNL d   1      27.947 -14.599  -5.773  0.00  0.00     0.175 C 
ATOM     23  N   UNL d   1      28.684 -15.674  -5.787  0.00  0.00    -0.181 NA
BRANCH  23  24
ATOM     24  N   UNL d   1      29.647 -15.863  -6.768  0.00  0.00    -0.242 N 
ATOM     25  C   UNL d   1      30.597 -16.885  -6.594  0.00  0.00     0.290 C 
ATOM     26  O   UNL d   1      30.597 -17.606  -5.591  0.00  0.00    -0.264 OA
ATOM     27  H   UNL d   1      29.592 -15.346  -7.635  0.00  0.00     0.192 HD
BRANCH  25  28
ATOM     28  C   UNL d   1      31.557 -17.109  -7.663  0.00  0.00     0.135 A 
ATOM     29  C   UNL d   1      32.306 -16.137  -8.326  0.00  0.00     0.066 A 
ATOM     30  C   UNL d   1      32.380 -14.679  -8.054  0.00  0.00     0.073 C 
ATOM     31  N   UNL d   1      33.066 -16.681  -9.339  0.00  0.00    -0.233 NA
ATOM     32  C   UNL d   1      32.777 -17.962  -9.342  0.00  0.00     0.134 A 
ATOM     33  C   UNL d   1      33.242 -19.021 -10.181  0.00  0.00     0.051 A 
ATOM     34  N   UNL d   1      31.851 -18.281  -8.344  0.00  0.00    -0.300 N 
ATOM     35  C   UNL d   1      32.783 -20.274  -9.994  0.00  0.00     0.005 A 
ATOM     36  C   UNL d   1      31.803 -20.569  -8.962  0.00  0.00     0.018 A 
ATOM     37  C   UNL d   1      31.357 -19.576  -8.175  0.00  0.00     0.099 A 
ENDBRANCH  25  28
ENDBRANCH  23  24
ENDBRANCH   4  22
TORSDOF 7
ENDMDL
MODEL 7
REMARK VINA RESULT:    -8.556      5.613      8.924
REMARK INTER + INTRA:         -12.678
REMARK INTER:                 -10.644
REMARK INTRA:                  -2.034
REMARK CONF_INDEPENDENT:        2.088
REMARK UNBOUND:                -2.034
REMARK  7 active torsions:
REMARK  status: ('A' for Active; 'I' for Inactive)
REMARK    1  A    between atoms: C_5  and  N_6 
REMARK       I    between atoms: N_6  and  C_7 
REMARK    2  A    between atoms: C_7  and  C_9 
REMARK       I    between atoms: C_9  and  N_11 
REMARK    3  A    between atoms: N_11  and  C_12 
REMARK    4  A    between atoms: C_12  and  C_13 
REMARK    5  A    between atoms: C_16  and  C_17 
REMARK    6  A    between atoms: N_18  and  N_19 
REMARK       I    between atoms: N_19  and  C_20 
REMARK    7  A    between atoms: C_20  and  C_22 
ROOT
ATOM      1  C   UNL d   1      26.877 -15.935  -0.713  0.00  0.00     0.071 A 
ATOM      2  C   UNL d   1      26.843 -14.872   0.169  0.00  0.00     0.037 A 
ATOM      3  C   UNL d   1      26.690 -13.698  -0.592  0.00  0.00     0.041 A 
ATOM      4  C   UNL d   1      26.635 -14.068  -1.922  0.00  0.00     0.095 A 
ATOM      5  O   UNL d   1      26.753 -15.455  -2.008  0.00  0.00    -0.312 OA
ENDROOT
BRANCH   1   6
ATOM      6  C   UNL d   1      27.022 -17.399  -0.379  0.00  0.00     0.188 C 
BRANCH   6   7
ATOM      7  N   UNL d   1      25.813 -18.175  -0.347  0.00  0.00    -0.347 N 
ATOM      8  C   UNL d   1      24.560 -17.587  -0.187  0.00  0.00     0.310 C 
ATOM      9  O   UNL d   1      24.338 -16.386  -0.063  0.00  0.00    -0.262 OA
ATOM     10  H   UNL d   1      25.855 -19.187  -0.440  0.00  0.00     0.163 HD
BRANCH   8  11
ATOM     11  C   UNL d   1      23.398 -18.602  -0.178  0.00  0.00     0.313 C 
ATOM     12  N   UNL d   1      22.193 -18.203   0.418  0.00  0.00    -0.319 N 
ATOM     13  H   UNL d   1      22.156 -17.262   0.803  0.00  0.00     0.169 HD
ATOM     14  O   UNL d   1      23.656 -19.680  -0.706  0.00  0.00    -0.262 OA
BRANCH  12  15
ATOM     15  C   UNL d   1      21.020 -19.015   0.506  0.00  0.00     0.035 A 
ATOM     16  C   UNL d   1      20.240 -19.309  -0.626  0.00  0.00     0.030 A 
ATOM     17  C   UNL d   1      19.094 -20.131  -0.520  0.00  0.00     0.009 A 
ATOM     18  C   UNL d   1      18.708 -20.671   0.713  0.00  0.00    -0.062 A 
ATOM     19  C   UNL d   1      17.515 -21.564   0.880  0.00  0.00     0.048 C 
ATOM     20  C   UNL d   1      19.474 -20.369   1.833  0.00  0.00     0.009 A 
ATOM     21  C   UNL d   1      20.602 -19.556   1.724  0.00  0.00     0.030 A 
ENDBRANCH  12  15
ENDBRANCH   8  11
ENDBRANCH   6   7
ENDBRANCH   1   6
BRANCH   4  22
ATOM     22  C   UNL d   1      26.469 -13.216  -3.096  0.00  0.00     0.175 C 
ATOM     23  N   UNL d   1      25.454 -12.399  -3.154  0.00  0.00    -0.181 NA
BRANCH  23  24
ATOM     24  N   UNL d   1      25.263 -11.582  -4.259  0.00  0.00    -0.242 N 
ATOM     25  C   UNL d   1      25.771 -10.272  -4.227  0.00  0.00     0.290 C 
ATOM     26  O   UNL d   1      26.373  -9.834  -3.241  0.00  0.00    -0.264 OA
ATOM     27  H   UNL d   1      24.862 -11.964  -5.105  0.00  0.00     0.192 HD
BRANCH  25  28
ATOM     28  C   UNL d   1      25.617  -9.453  -5.419  0.00  0.00     0.135 A 
ATOM     29  C   UNL d   1      26.310  -9.595  -6.620  0.00  0.00     0.066 A 
ATOM     30  C   UNL d   1      27.287 -10.645  -7.008  0.00  0.00     0.073 C 
ATOM     31  N   UNL d   1      25.978  -8.608  -7.522  0.00  0.00    -0.233 NA
ATOM     32  C   UNL d   1      25.121  -7.835  -6.893  0.00  0.00     0.134 A 
ATOM     33  C   UNL d   1      24.450  -6.647  -7.317  0.00  0.00     0.051 A 
ATOM     34  N   UNL d   1      24.870  -8.299  -5.597  0.00  0.00    -0.300 N 
ATOM     35  C   UNL d   1      23.613  -6.015  -6.473  0.00  0.00     0.005 A 
ATOM     36  C   UNL d   1      23.390  -6.509  -5.124  0.00  0.00     0.018 A 
ATOM     37  C   UNL d   1      24.023  -7.622  -4.718  0.00  0.00     0.099 A 
ENDBRANCH  25  28
ENDBRANCH  23  24
ENDBRANCH   4  22
TORSDOF 7
ENDMDL
MODEL 8
REMARK VINA RESULT:    -8.203      6.421      8.750
REMARK INTER + INTRA:         -12.539
REMARK INTER:                 -10.291
REMARK INTRA:                  -2.248
REMARK CONF_INDEPENDENT:        2.088
REMARK UNBOUND:                -2.248
REMARK  7 active torsions:
REMARK  status: ('A' for Active; 'I' for Inactive)
REMARK    1  A    between atoms: C_5  and  N_6 
REMARK       I    between atoms: N_6  and  C_7 
REMARK    2  A    between atoms: C_7  and  C_9 
REMARK       I    between atoms: C_9  and  N_11 
REMARK    3  A    between atoms: N_11  and  C_12 
REMARK    4  A    between atoms: C_12  and  C_13 
REMARK    5  A    between atoms: C_16  and  C_17 
REMARK    6  A    between atoms: N_18  and  N_19 
REMARK       I    between atoms: N_19  and  C_20 
REMARK    7  A    between atoms: C_20  and  C_22 
ROOT
ATOM      1  C   UNL d   1      26.125 -15.308  -3.038  0.00  0.00     0.071 A 
ATOM      2  C   UNL d   1      26.419 -15.443  -4.382  0.00  0.00     0.037 A 
ATOM      3  C   UNL d   1      26.169 -14.200  -4.994  0.00  0.00     0.041 A 
ATOM      4  C   UNL d   1      25.728 -13.333  -4.012  0.00  0.00     0.095 A 
ATOM      5  O   UNL d   1      25.694 -14.012  -2.795  0.00  0.00    -0.312 OA
ENDROOT
BRANCH   1   6
ATOM      6  C   UNL d   1      26.238 -16.363  -1.965  0.00  0.00     0.188 C 
BRANCH   6   7
ATOM      7  N   UNL d   1      25.106 -17.230  -1.792  0.00  0.00    -0.347 N 
ATOM      8  C   UNL d   1      24.234 -17.103  -0.713  0.00  0.00     0.310 C 
ATOM      9  O   UNL d   1      24.316 -16.271   0.186  0.00  0.00    -0.262 OA
ATOM     10  H   UNL d   1      24.921 -17.966  -2.469  0.00  0.00     0.163 HD
BRANCH   8  11
ATOM     11  C   UNL d   1      23.089 -18.137  -0.719  0.00  0.00     0.313 C 
ATOM     12  N   UNL d   1      22.159 -18.081   0.330  0.00  0.00    -0.319 N 
ATOM     13  H   UNL d   1      22.293 -17.355   1.030  0.00  0.00     0.169 HD
ATOM     14  O   UNL d   1      23.111 -18.920  -1.664  0.00  0.00    -0.262 OA
BRANCH  12  15
ATOM     15  C   UNL d   1      21.039 -18.958   0.471  0.00  0.00     0.035 A 
ATOM     16  C   UNL d   1      20.600 -19.395   1.732  0.00  0.00     0.030 A 
ATOM     17  C   UNL d   1      19.476 -20.248   1.850  0.00  0.00     0.009 A 
ATOM     18  C   UNL d   1      18.777 -20.677   0.716  0.00  0.00    -0.062 A 
ATOM     19  C   UNL d   1      17.569 -21.562   0.783  0.00  0.00     0.048 C 
ATOM     20  C   UNL d   1      19.220 -20.252  -0.531  0.00  0.00     0.009 A 
ATOM     21  C   UNL d   1      20.330 -19.414  -0.642  0.00  0.00     0.030 A 
ENDBRANCH  12  15
ENDBRANCH   8  11
ENDBRANCH   6   7
ENDBRANCH   1   6
BRANCH   4  22
ATOM     22  C   UNL d   1      25.353 -11.928  -4.143  0.00  0.00     0.175 C 
ATOM     23  N   UNL d   1      25.685 -11.088  -3.203  0.00  0.00    -0.181 NA
BRANCH  23  24
ATOM     24  N   UNL d   1      25.337  -9.748  -3.292  0.00  0.00    -0.242 N 
ATOM     25  C   UNL d   1      26.127  -8.896  -4.084  0.00  0.00     0.290 C 
ATOM     26  O   UNL d   1      27.119  -9.311  -4.691  0.00  0.00    -0.264 OA
ATOM     27  H   UNL d   1      24.471  -9.423  -2.883  0.00  0.00     0.192 HD
BRANCH  25  28
ATOM     28  C   UNL d   1      25.708  -7.510  -4.217  0.00  0.00     0.135 A 
ATOM     29  C   UNL d   1      26.414  -6.384  -3.796  0.00  0.00     0.066 A 
ATOM     30  C   UNL d   1      27.775  -6.310  -3.206  0.00  0.00     0.073 C 
ATOM     31  N   UNL d   1      25.699  -5.225  -4.007  0.00  0.00    -0.233 NA
ATOM     32  C   UNL d   1      24.551  -5.610  -4.515  0.00  0.00     0.134 A 
ATOM     33  C   UNL d   1      23.407  -4.854  -4.915  0.00  0.00     0.051 A 
ATOM     34  N   UNL d   1      24.495  -7.001  -4.657  0.00  0.00    -0.300 N 
ATOM     35  C   UNL d   1      22.324  -5.488  -5.405  0.00  0.00     0.005 A 
ATOM     36  C   UNL d   1      22.288  -6.936  -5.519  0.00  0.00     0.018 A 
ATOM     37  C   UNL d   1      23.359  -7.653  -5.140  0.00  0.00     0.099 A 
ENDBRANCH  25  28
ENDBRANCH  23  24
ENDBRANCH   4  22
TORSDOF 7
ENDMDL
MODEL 9
REMARK VINA RESULT:    -8.153      2.042      2.937
REMARK INTER + INTRA:         -12.452
REMARK INTER:                 -10.241
REMARK INTRA:                  -2.211
REMARK CONF_INDEPENDENT:        2.088
REMARK UNBOUND:                -2.211
REMARK  7 active torsions:
REMARK  status: ('A' for Active; 'I' for Inactive)
REMARK    1  A    between atoms: C_5  and  N_6 
REMARK       I    between atoms: N_6  and  C_7 
REMARK    2  A    between atoms: C_7  and  C_9 
REMARK       I    between atoms: C_9  and  N_11 
REMARK    3  A    between atoms: N_11  and  C_12 
REMARK    4  A    between atoms: C_12  and  C_13 
REMARK    5  A    between atoms: C_16  and  C_17 
REMARK    6  A    between atoms: N_18  and  N_19 
REMARK       I    between atoms: N_19  and  C_20 
REMARK    7  A    between atoms: C_20  and  C_22 
ROOT
ATOM      1  C   UNL d   1      27.218 -14.833   0.773  0.00  0.00     0.071 A 
ATOM      2  C   UNL d   1      26.695 -13.554   0.732  0.00  0.00     0.037 A 
ATOM      3  C   UNL d   1      27.206 -12.854   1.841  0.00  0.00     0.041 A 
ATOM      4  C   UNL d   1      28.029 -13.720   2.536  0.00  0.00     0.095 A 
ATOM      5  O   UNL d   1      28.041 -14.951   1.882  0.00  0.00    -0.312 OA
ENDROOT
BRANCH   1   6
ATOM      6  C   UNL d   1      26.971 -15.956  -0.204  0.00  0.00     0.188 C 
BRANCH   6   7
ATOM      7  N   UNL d   1      25.875 -16.837   0.091  0.00  0.00    -0.347 N 
ATOM      8  C   UNL d   1      24.684 -16.805  -0.634  0.00  0.00     0.310 C 
ATOM      9  O   UNL d   1      24.433 -16.058  -1.574  0.00  0.00    -0.262 OA
ATOM     10  H   UNL d   1      25.952 -17.509   0.849  0.00  0.00     0.163 HD
BRANCH   8  11
ATOM     11  C   UNL d   1      23.640 -17.833  -0.149  0.00  0.00     0.313 C 
ATOM     12  N   UNL d   1      22.331 -17.707  -0.638  0.00  0.00    -0.319 N 
ATOM     13  H   UNL d   1      22.151 -16.947  -1.290  0.00  0.00     0.169 HD
ATOM     14  O   UNL d   1      24.074 -18.674   0.633  0.00  0.00    -0.262 OA
BRANCH  12  15
ATOM     15  C   UNL d   1      21.248 -18.575  -0.296  0.00  0.00     0.035 A 
ATOM     16  C   UNL d   1      20.297 -18.977  -1.250  0.00  0.00     0.030 A 
ATOM     17  C   UNL d   1      19.244 -19.852  -0.895  0.00  0.00     0.009 A 
ATOM     18  C   UNL d   1      19.122 -20.338   0.413  0.00  0.00    -0.062 A 
ATOM     19  C   UNL d   1      18.040 -21.283   0.840  0.00  0.00     0.048 C 
ATOM     20  C   UNL d   1      20.057 -19.929   1.357  0.00  0.00     0.009 A 
ATOM     21  C   UNL d   1      21.092 -19.064   1.002  0.00  0.00     0.030 A 
ENDBRANCH  12  15
ENDBRANCH   8  11
ENDBRANCH   6   7
ENDBRANCH   1   6
BRANCH   4  22
ATOM     22  C   UNL d   1      28.801 -13.462   3.748  0.00  0.00     0.175 C 
ATOM     23  N   UNL d   1      29.315 -14.464   4.404  0.00  0.00    -0.181 NA
BRANCH  23  24
ATOM     24  N   UNL d   1      30.046 -14.254   5.565  0.00  0.00    -0.242 N 
ATOM     25  C   UNL d   1      29.373 -13.813   6.717  0.00  0.00     0.290 C 
ATOM     26  O   UNL d   1      28.156 -13.603   6.716  0.00  0.00    -0.264 OA
ATOM     27  H   UNL d   1      31.021 -14.520   5.601  0.00  0.00     0.192 HD
BRANCH  25  28
ATOM     28  C   UNL d   1      30.146 -13.662   7.940  0.00  0.00     0.135 A 
ATOM     29  C   UNL d   1      29.795 -14.125   9.208  0.00  0.00     0.066 A 
ATOM     30  C   UNL d   1      28.623 -14.946   9.603  0.00  0.00     0.073 C 
ATOM     31  N   UNL d   1      30.716 -13.748  10.161  0.00  0.00    -0.233 NA
ATOM     32  C   UNL d   1      31.610 -13.031   9.519  0.00  0.00     0.134 A 
ATOM     33  C   UNL d   1      32.782 -12.362   9.988  0.00  0.00     0.051 A 
ATOM     34  N   UNL d   1      31.307 -12.936   8.157  0.00  0.00    -0.300 N 
ATOM     35  C   UNL d   1      33.547 -11.667   9.125  0.00  0.00     0.005 A 
ATOM     36  C   UNL d   1      33.193 -11.568   7.719  0.00  0.00     0.018 A 
ATOM     37  C   UNL d   1      32.089 -12.190   7.272  0.00  0.00     0.099 A 
ENDBRANCH  25  28
ENDBRANCH  23  24
ENDBRANCH   4  22
TORSDOF 7
ENDMDL
