MODEL 1
REMARK VINA RESULT:    -7.069      0.000      0.000
REMARK INTER + INTRA:         -12.134
REMARK INTER:                 -10.052
REMARK INTRA:                  -2.081
REMARK CONF_INDEPENDENT:        2.983
REMARK UNBOUND:                -2.081
REMARK  10 active torsions:
REMARK  status: ('A' for Active; 'I' for Inactive)
REMARK    1  A    between atoms: O_2  and  C_3 
REMARK    2  A    between atoms: C_6  and  O_7 
REMARK    3  A    between atoms: O_7  and  C_8 
REMARK    4  A    between atoms: C_8  and  C_9 
REMARK    5  A    between atoms: C_9  and  C_10 
REMARK       I    between atoms: C_10  and  N_12 
REMARK    6  A    between atoms: N_12  and  N_13 
REMARK    7  A    between atoms: N_13  and  C_14 
REMARK    8  A    between atoms: C_14  and  N_16 
REMARK    9  A    between atoms: N_16  and  C_17 
REMARK   10  A    between atoms: C_22  and  O_23 
ROOT
ATOM      1  C   UNL d   1      25.762 -15.215  -3.978  0.00  0.00     0.238 C 
ATOM      2  O   UNL d   1      24.889 -14.458  -4.438  0.00  0.00    -0.272 OA
ATOM      3  N   UNL d   1      27.027 -15.286  -4.542  0.00  0.00    -0.268 N 
ATOM      4  H   UNL d   1      27.746 -15.930  -4.215  0.00  0.00     0.190 HD
ENDROOT
BRANCH   3   5
ATOM      5  N   UNL d   1      27.390 -14.414  -5.630  0.00  0.00    -0.274 N 
ATOM      6  H   UNL d   1      26.670 -13.747  -5.908  0.00  0.00     0.189 HD
BRANCH   5   7
ATOM      7  C   UNL d   1      28.679 -14.440  -6.209  0.00  0.00     0.191 C 
ATOM      8  S   UNL d   1      29.979 -15.227  -5.474  0.00  0.00    -0.039 SA
BRANCH   7   9
ATOM      9  N   UNL d   1      28.684 -13.888  -7.508  0.00  0.00    -0.330 N 
ATOM     10  H   UNL d   1      28.906 -14.525  -8.265  0.00  0.00     0.168 HD
BRANCH   9  11
ATOM     11  C   UNL d   1      28.154 -12.618  -7.938  0.00  0.00     0.068 A 
ATOM     12  C   UNL d   1      28.440 -12.218  -9.264  0.00  0.00     0.032 A 
ATOM     13  C   UNL d   1      28.043 -10.966  -9.771  0.00  0.00     0.002 A 
ATOM     14  C   UNL d   1      27.323 -10.090  -8.971  0.00  0.00     0.003 A 
ATOM     15  C   UNL d   1      27.068 -10.443  -7.650  0.00  0.00     0.039 A 
ATOM     16  C   UNL d   1      27.510 -11.671  -7.104  0.00  0.00     0.095 A 
BRANCH  16  17
ATOM     17  O   UNL d   1      27.310 -11.672  -5.745  0.00  0.00    -0.354 OA
ATOM     18  C   UNL d   1      25.988 -11.691  -5.264  0.00  0.00     0.210 C 
ENDBRANCH  16  17
ENDBRANCH   9  11
ENDBRANCH   7   9
ENDBRANCH   5   7
ENDBRANCH   3   5
BRANCH   1  19
ATOM     19  C   UNL d   1      25.510 -16.117  -2.764  0.00  0.00     0.131 C 
BRANCH  19  20
ATOM     20  C   UNL d   1      25.530 -15.311  -1.450  0.00  0.00     0.185 C 
BRANCH  20  21
ATOM     21  O   UNL d   1      25.175 -16.125  -0.314  0.00  0.00    -0.351 OA
BRANCH  21  22
ATOM     22  C   UNL d   1      24.185 -17.064  -0.518  0.00  0.00     0.068 A 
ATOM     23  C   UNL d   1      22.893 -16.569  -0.734  0.00  0.00     0.039 A 
ATOM     24  C   UNL d   1      21.805 -17.444  -0.896  0.00  0.00     0.039 A 
ATOM     25  C   UNL d   1      21.997 -18.827  -0.908  0.00  0.00     0.068 A 
ATOM     26  C   UNL d   1      23.282 -19.326  -0.715  0.00  0.00     0.039 A 
ATOM     27  C   UNL d   1      24.365 -18.449  -0.521  0.00  0.00     0.039 A 
BRANCH  25  28
ATOM     28  O   UNL d   1      20.894 -19.570  -1.224  0.00  0.00    -0.356 OA
ATOM     29  C   UNL d   1      19.630 -19.083  -0.785  0.00  0.00     0.210 C 
ENDBRANCH  25  28
ENDBRANCH  21  22
ENDBRANCH  20  21
ENDBRANCH  19  20
ENDBRANCH   1  19
TORSDOF 10
ENDMDL
MODEL 2
REMARK VINA RESULT:    -6.986      2.645      4.328
REMARK INTER + INTRA:         -12.164
REMARK INTER:                  -9.969
REMARK INTRA:                  -2.195
REMARK CONF_INDEPENDENT:        2.983
REMARK UNBOUND:                -2.195
REMARK  10 active torsions:
REMARK  status: ('A' for Active; 'I' for Inactive)
REMARK    1  A    between atoms: O_2  and  C_3 
REMARK    2  A    between atoms: C_6  and  O_7 
REMARK    3  A    between atoms: O_7  and  C_8 
REMARK    4  A    between atoms: C_8  and  C_9 
REMARK    5  A    between atoms: C_9  and  C_10 
REMARK       I    between atoms: C_10  and  N_12 
REMARK    6  A    between atoms: N_12  and  N_13 
REMARK    7  A    between atoms: N_13  and  C_14 
REMARK    8  A    between atoms: C_14  and  N_16 
REMARK    9  A    between atoms: N_16  and  C_17 
REMARK   10  A    between atoms: C_22  and  O_23 
ROOT
ATOM      1  C   UNL d   1      26.209 -15.124  -3.872  0.00  0.00     0.238 C 
ATOM      2  O   UNL d   1      25.234 -15.170  -4.643  0.00  0.00    -0.272 OA
ATOM      3  N   UNL d   1      27.501 -14.965  -4.350  0.00  0.00    -0.268 N 
ATOM      4  H   UNL d   1      28.322 -14.971  -3.746  0.00  0.00     0.190 HD
ENDROOT
BRANCH   3   5
ATOM      5  N   UNL d   1      27.738 -14.763  -5.757  0.00  0.00    -0.274 N 
ATOM      6  H   UNL d   1      26.902 -14.765  -6.340  0.00  0.00     0.189 HD
BRANCH   5   7
ATOM      7  C   UNL d   1      29.031 -14.505  -6.266  0.00  0.00     0.191 C 
ATOM      8  S   UNL d   1      29.879 -13.094  -5.895  0.00  0.00    -0.039 SA
BRANCH   7   9
ATOM      9  N   UNL d   1      29.556 -15.619  -6.956  0.00  0.00    -0.330 N 
ATOM     10  H   UNL d   1      29.626 -15.531  -7.963  0.00  0.00     0.168 HD
BRANCH   9  11
ATOM     11  C   UNL d   1      30.259 -16.754  -6.411  0.00  0.00     0.068 A 
ATOM     12  C   UNL d   1      30.956 -17.577  -7.325  0.00  0.00     0.032 A 
ATOM     13  C   UNL d   1      31.613 -18.756  -6.920  0.00  0.00     0.002 A 
ATOM     14  C   UNL d   1      31.616 -19.125  -5.583  0.00  0.00     0.003 A 
ATOM     15  C   UNL d   1      30.901 -18.354  -4.673  0.00  0.00     0.039 A 
ATOM     16  C   UNL d   1      30.185 -17.200  -5.069  0.00  0.00     0.095 A 
BRANCH  16  17
ATOM     17  O   UNL d   1      29.409 -16.756  -4.025  0.00  0.00    -0.354 OA
ATOM     18  C   UNL d   1      29.894 -16.921  -2.714  0.00  0.00     0.210 C 
ENDBRANCH  16  17
ENDBRANCH   9  11
ENDBRANCH   7   9
ENDBRANCH   5   7
ENDBRANCH   3   5
BRANCH   1  19
ATOM     19  C   UNL d   1      26.059 -15.235  -2.350  0.00  0.00     0.131 C 
BRANCH  19  20
ATOM     20  C   UNL d   1      26.435 -16.643  -1.848  0.00  0.00     0.185 C 
BRANCH  20  21
ATOM     21  O   UNL d   1      25.805 -16.951  -0.588  0.00  0.00    -0.351 OA
BRANCH  21  22
ATOM     22  C   UNL d   1      24.490 -17.366  -0.645  0.00  0.00     0.068 A 
ATOM     23  C   UNL d   1      23.532 -16.370  -0.864  0.00  0.00     0.039 A 
ATOM     24  C   UNL d   1      22.162 -16.681  -0.883  0.00  0.00     0.039 A 
ATOM     25  C   UNL d   1      21.727 -18.001  -0.747  0.00  0.00     0.068 A 
ATOM     26  C   UNL d   1      22.676 -19.000  -0.550  0.00  0.00     0.039 A 
ATOM     27  C   UNL d   1      24.046 -18.683  -0.499  0.00  0.00     0.039 A 
BRANCH  25  28
ATOM     28  O   UNL d   1      20.388 -18.201  -0.933  0.00  0.00    -0.356 OA
ATOM     29  C   UNL d   1      19.927 -19.547  -0.970  0.00  0.00     0.210 C 
ENDBRANCH  25  28
ENDBRANCH  21  22
ENDBRANCH  20  21
ENDBRANCH  19  20
ENDBRANCH   1  19
TORSDOF 10
ENDMDL
MODEL 3
REMARK VINA RESULT:    -6.747      2.221      3.119
REMARK INTER + INTRA:         -12.642
REMARK INTER:                  -9.730
REMARK INTRA:                  -2.911
REMARK CONF_INDEPENDENT:        2.983
REMARK UNBOUND:                -2.911
REMARK  10 active torsions:
REMARK  status: ('A' for Active; 'I' for Inactive)
REMARK    1  A    between atoms: O_2  and  C_3 
REMARK    2  A    between atoms: C_6  and  O_7 
REMARK    3  A    between atoms: O_7  and  C_8 
REMARK    4  A    between atoms: C_8  and  C_9 
REMARK    5  A    between atoms: C_9  and  C_10 
REMARK       I    between atoms: C_10  and  N_12 
REMARK    6  A    between atoms: N_12  and  N_13 
REMARK    7  A    between atoms: N_13  and  C_14 
REMARK    8  A    between atoms: C_14  and  N_16 
REMARK    9  A    between atoms: N_16  and  C_17 
REMARK   10  A    between atoms: C_22  and  O_23 
ROOT
ATOM      1  C   UNL d   1      28.105 -16.648  -1.692  0.00  0.00     0.238 C 
ATOM      2  O   UNL d   1      29.072 -16.723  -2.471  0.00  0.00    -0.272 OA
ATOM      3  N   UNL d   1      26.936 -15.997  -2.052  0.00  0.00    -0.268 N 
ATOM      4  H   UNL d   1      26.147 -15.880  -1.417  0.00  0.00     0.190 HD
ENDROOT
BRANCH   3   5
ATOM      5  N   UNL d   1      26.779 -15.461  -3.380  0.00  0.00    -0.274 N 
ATOM      6  H   UNL d   1      27.194 -16.022  -4.124  0.00  0.00     0.189 HD
BRANCH   5   7
ATOM      7  C   UNL d   1      26.035 -14.286  -3.628  0.00  0.00     0.191 C 
ATOM      8  S   UNL d   1      24.406 -14.147  -3.208  0.00  0.00    -0.039 SA
BRANCH   7   9
ATOM      9  N   UNL d   1      26.852 -13.234  -4.097  0.00  0.00    -0.330 N 
ATOM     10  H   UNL d   1      27.196 -12.587  -3.397  0.00  0.00     0.168 HD
BRANCH   9  11
ATOM     11  C   UNL d   1      27.487 -13.108  -5.385  0.00  0.00     0.068 A 
ATOM     12  C   UNL d   1      27.301 -11.887  -6.076  0.00  0.00     0.032 A 
ATOM     13  C   UNL d   1      27.806 -11.677  -7.373  0.00  0.00     0.002 A 
ATOM     14  C   UNL d   1      28.537 -12.673  -8.004  0.00  0.00     0.003 A 
ATOM     15  C   UNL d   1      28.696 -13.896  -7.362  0.00  0.00     0.039 A 
ATOM     16  C   UNL d   1      28.146 -14.149  -6.084  0.00  0.00     0.095 A 
BRANCH  16  17
ATOM     17  O   UNL d   1      28.270 -15.484  -5.782  0.00  0.00    -0.354 OA
ATOM     18  C   UNL d   1      29.545 -15.977  -5.446  0.00  0.00     0.210 C 
ENDBRANCH  16  17
ENDBRANCH   9  11
ENDBRANCH   7   9
ENDBRANCH   5   7
ENDBRANCH   3   5
BRANCH   1  19
ATOM     19  C   UNL d   1      28.133 -17.266  -0.288  0.00  0.00     0.131 C 
BRANCH  19  20
ATOM     20  C   UNL d   1      26.773 -17.893   0.078  0.00  0.00     0.185 C 
BRANCH  20  21
ATOM     21  O   UNL d   1      25.724 -16.907   0.140  0.00  0.00    -0.351 OA
BRANCH  21  22
ATOM     22  C   UNL d   1      24.454 -17.341  -0.182  0.00  0.00     0.068 A 
ATOM     23  C   UNL d   1      23.525 -16.350  -0.520  0.00  0.00     0.039 A 
ATOM     24  C   UNL d   1      22.191 -16.684  -0.809  0.00  0.00     0.039 A 
ATOM     25  C   UNL d   1      21.776 -18.017  -0.829  0.00  0.00     0.068 A 
ATOM     26  C   UNL d   1      22.700 -19.009  -0.514  0.00  0.00     0.039 A 
ATOM     27  C   UNL d   1      24.028 -18.671  -0.193  0.00  0.00     0.039 A 
BRANCH  25  28
ATOM     28  O   UNL d   1      20.499 -18.228  -1.270  0.00  0.00    -0.356 OA
ATOM     29  C   UNL d   1      19.788 -19.327  -0.709  0.00  0.00     0.210 C 
ENDBRANCH  25  28
ENDBRANCH  21  22
ENDBRANCH  20  21
ENDBRANCH  19  20
ENDBRANCH   1  19
TORSDOF 10
ENDMDL
MODEL 4
REMARK VINA RESULT:    -6.491      3.465      4.734
REMARK INTER + INTRA:         -11.660
REMARK INTER:                  -9.474
REMARK INTRA:                  -2.187
REMARK CONF_INDEPENDENT:        2.983
REMARK UNBOUND:                -2.187
REMARK  10 active torsions:
REMARK  status: ('A' for Active; 'I' for Inactive)
REMARK    1  A    between atoms: O_2  and  C_3 
REMARK    2  A    between atoms: C_6  and  O_7 
REMARK    3  A    between atoms: O_7  and  C_8 
REMARK    4  A    between atoms: C_8  and  C_9 
REMARK    5  A    between atoms: C_9  and  C_10 
REMARK       I    between atoms: C_10  and  N_12 
REMARK    6  A    between atoms: N_12  and  N_13 
REMARK    7  A    between atoms: N_13  and  C_14 
REMARK    8  A    between atoms: C_14  and  N_16 
REMARK    9  A    between atoms: N_16  and  C_17 
REMARK   10  A    between atoms: C_22  and  O_23 
ROOT
ATOM      1  C   UNL d   1      26.209 -17.729  -0.298  0.00  0.00     0.238 C 
ATOM      2  O   UNL d   1      26.322 -18.643   0.538  0.00  0.00    -0.272 OA
ATOM      3  N   UNL d   1      27.322 -17.113  -0.849  0.00  0.00    -0.268 N 
ATOM      4  H   UNL d   1      27.259 -16.331  -1.501  0.00  0.00     0.190 HD
ENDROOT
BRANCH   3   5
ATOM      5  N   UNL d   1      28.647 -17.578  -0.528  0.00  0.00    -0.274 N 
ATOM      6  H   UNL d   1      28.686 -18.326   0.165  0.00  0.00     0.189 HD
BRANCH   5   7
ATOM      7  C   UNL d   1      29.793 -17.081  -1.188  0.00  0.00     0.191 C 
ATOM      8  S   UNL d   1      31.217 -17.977  -1.316  0.00  0.00    -0.039 SA
BRANCH   7   9
ATOM      9  N   UNL d   1      29.534 -15.857  -1.842  0.00  0.00    -0.330 N 
ATOM     10  H   UNL d   1      29.946 -15.030  -1.427  0.00  0.00     0.168 HD
BRANCH   9  11
ATOM     11  C   UNL d   1      28.997 -15.652  -3.165  0.00  0.00     0.068 A 
ATOM     12  C   UNL d   1      29.887 -15.813  -4.252  0.00  0.00     0.032 A 
ATOM     13  C   UNL d   1      29.498 -15.562  -5.582  0.00  0.00     0.002 A 
ATOM     14  C   UNL d   1      28.196 -15.172  -5.863  0.00  0.00     0.003 A 
ATOM     15  C   UNL d   1      27.315 -14.966  -4.806  0.00  0.00     0.039 A 
ATOM     16  C   UNL d   1      27.704 -15.154  -3.459  0.00  0.00     0.095 A 
BRANCH  16  17
ATOM     17  O   UNL d   1      26.719 -14.684  -2.624  0.00  0.00    -0.354 OA
ATOM     18  C   UNL d   1      25.398 -14.640  -3.107  0.00  0.00     0.210 C 
ENDBRANCH  16  17
ENDBRANCH   9  11
ENDBRANCH   7   9
ENDBRANCH   5   7
ENDBRANCH   3   5
BRANCH   1  19
ATOM     19  C   UNL d   1      24.845 -17.222  -0.781  0.00  0.00     0.131 C 
BRANCH  19  20
ATOM     20  C   UNL d   1      23.781 -18.336  -0.737  0.00  0.00     0.185 C 
BRANCH  20  21
ATOM     21  O   UNL d   1      22.723 -18.035   0.194  0.00  0.00    -0.351 OA
BRANCH  21  22
ATOM     22  C   UNL d   1      21.540 -18.725   0.022  0.00  0.00     0.068 A 
ATOM     23  C   UNL d   1      20.953 -19.253   1.178  0.00  0.00     0.039 A 
ATOM     24  C   UNL d   1      19.778 -20.019   1.103  0.00  0.00     0.039 A 
ATOM     25  C   UNL d   1      19.131 -20.218  -0.119  0.00  0.00     0.068 A 
ATOM     26  C   UNL d   1      19.698 -19.678  -1.270  0.00  0.00     0.039 A 
ATOM     27  C   UNL d   1      20.893 -18.939  -1.197  0.00  0.00     0.039 A 
BRANCH  25  28
ATOM     28  O   UNL d   1      17.921 -20.848  -0.047  0.00  0.00    -0.356 OA
ATOM     29  C   UNL d   1      17.648 -21.609   1.124  0.00  0.00     0.210 C 
ENDBRANCH  25  28
ENDBRANCH  21  22
ENDBRANCH  20  21
ENDBRANCH  19  20
ENDBRANCH   1  19
TORSDOF 10
ENDMDL
MODEL 5
REMARK VINA RESULT:    -6.351      2.562      3.123
REMARK INTER + INTRA:         -12.325
REMARK INTER:                  -9.334
REMARK INTRA:                  -2.990
REMARK CONF_INDEPENDENT:        2.983
REMARK UNBOUND:                -2.990
REMARK  10 active torsions:
REMARK  status: ('A' for Active; 'I' for Inactive)
REMARK    1  A    between atoms: O_2  and  C_3 
REMARK    2  A    between atoms: C_6  and  O_7 
REMARK    3  A    between atoms: O_7  and  C_8 
REMARK    4  A    between atoms: C_8  and  C_9 
REMARK    5  A    between atoms: C_9  and  C_10 
REMARK       I    between atoms: C_10  and  N_12 
REMARK    6  A    between atoms: N_12  and  N_13 
REMARK    7  A    between atoms: N_13  and  C_14 
REMARK    8  A    between atoms: C_14  and  N_16 
REMARK    9  A    between atoms: N_16  and  C_17 
REMARK   10  A    between atoms: C_22  and  O_23 
ROOT
ATOM      1  C   UNL d   1      26.647 -14.606  -0.523  0.00  0.00     0.238 C 
ATOM      2  O   UNL d   1      26.338 -13.507  -0.029  0.00  0.00    -0.272 OA
ATOM      3  N   UNL d   1      26.348 -14.916  -1.841  0.00  0.00    -0.268 N 
ATOM      4  H   UNL d   1      26.547 -15.825  -2.257  0.00  0.00     0.190 HD
ENDROOT
BRANCH   3   5
ATOM      5  N   UNL d   1      25.743 -13.932  -2.702  0.00  0.00    -0.274 N 
ATOM      6  H   UNL d   1      25.413 -13.090  -2.230  0.00  0.00     0.189 HD
BRANCH   5   7
ATOM      7  C   UNL d   1      25.687 -14.100  -4.104  0.00  0.00     0.191 C 
ATOM      8  S   UNL d   1      26.034 -15.576  -4.847  0.00  0.00    -0.039 SA
BRANCH   7   9
ATOM      9  N   UNL d   1      25.159 -12.962  -4.750  0.00  0.00    -0.330 N 
ATOM     10  H   UNL d   1      24.186 -13.013  -5.026  0.00  0.00     0.168 HD
BRANCH   9  11
ATOM     11  C   UNL d   1      25.730 -11.640  -4.831  0.00  0.00     0.068 A 
ATOM     12  C   UNL d   1      25.822 -11.057  -6.117  0.00  0.00     0.032 A 
ATOM     13  C   UNL d   1      26.431  -9.806  -6.329  0.00  0.00     0.002 A 
ATOM     14  C   UNL d   1      26.938  -9.089  -5.255  0.00  0.00     0.003 A 
ATOM     15  C   UNL d   1      26.898  -9.660  -3.988  0.00  0.00     0.039 A 
ATOM     16  C   UNL d   1      26.344 -10.942  -3.762  0.00  0.00     0.095 A 
BRANCH  16  17
ATOM     17  O   UNL d   1      26.620 -11.346  -2.478  0.00  0.00    -0.354 OA
ATOM     18  C   UNL d   1      27.470 -10.544  -1.694  0.00  0.00     0.210 C 
ENDBRANCH  16  17
ENDBRANCH   9  11
ENDBRANCH   7   9
ENDBRANCH   5   7
ENDBRANCH   3   5
BRANCH   1  19
ATOM     19  C   UNL d   1      27.377 -15.690   0.279  0.00  0.00     0.131 C 
BRANCH  19  20
ATOM     20  C   UNL d   1      26.534 -16.976   0.386  0.00  0.00     0.185 C 
BRANCH  20  21
ATOM     21  O   UNL d   1      25.907 -17.315  -0.867  0.00  0.00    -0.351 OA
BRANCH  21  22
ATOM     22  C   UNL d   1      24.573 -17.664  -0.810  0.00  0.00     0.068 A 
ATOM     23  C   UNL d   1      23.650 -16.627  -0.992  0.00  0.00     0.039 A 
ATOM     24  C   UNL d   1      22.269 -16.868  -0.897  0.00  0.00     0.039 A 
ATOM     25  C   UNL d   1      21.782 -18.158  -0.681  0.00  0.00     0.068 A 
ATOM     26  C   UNL d   1      22.693 -19.198  -0.519  0.00  0.00     0.039 A 
ATOM     27  C   UNL d   1      24.077 -18.950  -0.583  0.00  0.00     0.039 A 
BRANCH  25  28
ATOM     28  O   UNL d   1      20.424 -18.295  -0.759  0.00  0.00    -0.356 OA
ATOM     29  C   UNL d   1      19.827 -19.333   0.010  0.00  0.00     0.210 C 
ENDBRANCH  25  28
ENDBRANCH  21  22
ENDBRANCH  20  21
ENDBRANCH  19  20
ENDBRANCH   1  19
TORSDOF 10
ENDMDL
MODEL 6
REMARK VINA RESULT:    -6.016      3.429      4.948
REMARK INTER + INTRA:         -11.795
REMARK INTER:                  -8.999
REMARK INTRA:                  -2.796
REMARK CONF_INDEPENDENT:        2.983
REMARK UNBOUND:                -2.796
REMARK  10 active torsions:
REMARK  status: ('A' for Active; 'I' for Inactive)
REMARK    1  A    between atoms: O_2  and  C_3 
REMARK    2  A    between atoms: C_6  and  O_7 
REMARK    3  A    between atoms: O_7  and  C_8 
REMARK    4  A    between atoms: C_8  and  C_9 
REMARK    5  A    between atoms: C_9  and  C_10 
REMARK       I    between atoms: C_10  and  N_12 
REMARK    6  A    between atoms: N_12  and  N_13 
REMARK    7  A    between atoms: N_13  and  C_14 
REMARK    8  A    between atoms: C_14  and  N_16 
REMARK    9  A    between atoms: N_16  and  C_17 
REMARK   10  A    between atoms: C_22  and  O_23 
ROOT
ATOM      1  C   UNL d   1      26.804 -15.357  -4.512  0.00  0.00     0.238 C 
ATOM      2  O   UNL d   1      26.996 -15.405  -5.740  0.00  0.00    -0.272 OA
ATOM      3  N   UNL d   1      27.756 -15.814  -3.614  0.00  0.00    -0.268 N 
ATOM      4  H   UNL d   1      27.607 -15.831  -2.606  0.00  0.00     0.190 HD
ENDROOT
BRANCH   3   5
ATOM      5  N   UNL d   1      29.037 -16.280  -4.082  0.00  0.00    -0.274 N 
ATOM      6  H   UNL d   1      29.217 -16.123  -5.074  0.00  0.00     0.189 HD
BRANCH   5   7
ATOM      7  C   UNL d   1      29.994 -16.839  -3.206  0.00  0.00     0.191 C 
ATOM      8  S   UNL d   1      30.175 -16.308  -1.614  0.00  0.00    -0.039 SA
BRANCH   7   9
ATOM      9  N   UNL d   1      30.629 -17.967  -3.770  0.00  0.00    -0.330 N 
ATOM     10  H   UNL d   1      30.956 -18.670  -3.118  0.00  0.00     0.168 HD
BRANCH   9  11
ATOM     11  C   UNL d   1      30.633 -18.388  -5.149  0.00  0.00     0.068 A 
ATOM     12  C   UNL d   1      30.672 -19.781  -5.395  0.00  0.00     0.032 A 
ATOM     13  C   UNL d   1      30.759 -20.309  -6.698  0.00  0.00     0.002 A 
ATOM     14  C   UNL d   1      30.779 -19.457  -7.792  0.00  0.00     0.003 A 
ATOM     15  C   UNL d   1      30.786 -18.083  -7.573  0.00  0.00     0.039 A 
ATOM     16  C   UNL d   1      30.760 -17.532  -6.271  0.00  0.00     0.095 A 
BRANCH  16  17
ATOM     17  O   UNL d   1      30.984 -16.178  -6.336  0.00  0.00    -0.354 OA
ATOM     18  C   UNL d   1      31.923 -15.613  -5.453  0.00  0.00     0.210 C 
ENDBRANCH  16  17
ENDBRANCH   9  11
ENDBRANCH   7   9
ENDBRANCH   5   7
ENDBRANCH   3   5
BRANCH   1  19
ATOM     19  C   UNL d   1      25.514 -14.794  -3.904  0.00  0.00     0.131 C 
BRANCH  19  20
ATOM     20  C   UNL d   1      25.639 -14.622  -2.378  0.00  0.00     0.185 C 
BRANCH  20  21
ATOM     21  O   UNL d   1      25.991 -15.858  -1.723  0.00  0.00    -0.351 OA
BRANCH  21  22
ATOM     22  C   UNL d   1      24.944 -16.611  -1.231  0.00  0.00     0.068 A 
ATOM     23  C   UNL d   1      23.678 -16.015  -1.265  0.00  0.00     0.039 A 
ATOM     24  C   UNL d   1      22.557 -16.677  -0.737  0.00  0.00     0.039 A 
ATOM     25  C   UNL d   1      22.667 -17.970  -0.224  0.00  0.00     0.068 A 
ATOM     26  C   UNL d   1      23.919 -18.577  -0.205  0.00  0.00     0.039 A 
ATOM     27  C   UNL d   1      25.047 -17.901  -0.705  0.00  0.00     0.039 A 
BRANCH  25  28
ATOM     28  O   UNL d   1      21.487 -18.568   0.121  0.00  0.00    -0.356 OA
ATOM     29  C   UNL d   1      20.667 -19.053  -0.937  0.00  0.00     0.210 C 
ENDBRANCH  25  28
ENDBRANCH  21  22
ENDBRANCH  20  21
ENDBRANCH  19  20
ENDBRANCH   1  19
TORSDOF 10
ENDMDL
MODEL 7
REMARK VINA RESULT:    -5.993      2.502      3.484
REMARK INTER + INTRA:         -11.601
REMARK INTER:                  -8.976
REMARK INTRA:                  -2.626
REMARK CONF_INDEPENDENT:        2.983
REMARK UNBOUND:                -2.626
REMARK  10 active torsions:
REMARK  status: ('A' for Active; 'I' for Inactive)
REMARK    1  A    between atoms: O_2  and  C_3 
REMARK    2  A    between atoms: C_6  and  O_7 
REMARK    3  A    between atoms: O_7  and  C_8 
REMARK    4  A    between atoms: C_8  and  C_9 
REMARK    5  A    between atoms: C_9  and  C_10 
REMARK       I    between atoms: C_10  and  N_12 
REMARK    6  A    between atoms: N_12  and  N_13 
REMARK    7  A    between atoms: N_13  and  C_14 
REMARK    8  A    between atoms: C_14  and  N_16 
REMARK    9  A    between atoms: N_16  and  C_17 
REMARK   10  A    between atoms: C_22  and  O_23 
ROOT
ATOM      1  C   UNL d   1      29.136 -16.050  -1.016  0.00  0.00     0.238 C 
ATOM      2  O   UNL d   1      29.994 -15.164  -1.173  0.00  0.00    -0.272 OA
ATOM      3  N   UNL d   1      28.713 -16.842  -2.072  0.00  0.00    -0.268 N 
ATOM      4  H   UNL d   1      27.978 -17.543  -1.982  0.00  0.00     0.190 HD
ENDROOT
BRANCH   3   5
ATOM      5  N   UNL d   1      29.324 -16.714  -3.370  0.00  0.00    -0.274 N 
ATOM      6  H   UNL d   1      29.917 -17.497  -3.647  0.00  0.00     0.189 HD
BRANCH   5   7
ATOM      7  C   UNL d   1      29.054 -15.617  -4.218  0.00  0.00     0.191 C 
ATOM      8  S   UNL d   1      29.302 -15.687  -5.886  0.00  0.00    -0.039 SA
BRANCH   7   9
ATOM      9  N   UNL d   1      28.416 -14.563  -3.529  0.00  0.00    -0.330 N 
ATOM     10  H   UNL d   1      28.726 -14.395  -2.579  0.00  0.00     0.168 HD
BRANCH   9  11
ATOM     11  C   UNL d   1      27.580 -13.521  -4.073  0.00  0.00     0.068 A 
ATOM     12  C   UNL d   1      28.072 -12.198  -3.996  0.00  0.00     0.032 A 
ATOM     13  C   UNL d   1      27.313 -11.091  -4.422  0.00  0.00     0.002 A 
ATOM     14  C   UNL d   1      26.051 -11.282  -4.965  0.00  0.00     0.003 A 
ATOM     15  C   UNL d   1      25.529 -12.571  -5.011  0.00  0.00     0.039 A 
ATOM     16  C   UNL d   1      26.251 -13.689  -4.533  0.00  0.00     0.095 A 
BRANCH  16  17
ATOM     17  O   UNL d   1      25.431 -14.792  -4.504  0.00  0.00    -0.354 OA
ATOM     18  C   UNL d   1      25.566 -15.696  -3.435  0.00  0.00     0.210 C 
ENDBRANCH  16  17
ENDBRANCH   9  11
ENDBRANCH   7   9
ENDBRANCH   5   7
ENDBRANCH   3   5
BRANCH   1  19
ATOM     19  C   UNL d   1      28.488 -16.333   0.345  0.00  0.00     0.131 C 
BRANCH  19  20
ATOM     20  C   UNL d   1      26.950 -16.262   0.263  0.00  0.00     0.185 C 
BRANCH  20  21
ATOM     21  O   UNL d   1      26.391 -17.422  -0.383  0.00  0.00    -0.351 OA
BRANCH  21  22
ATOM     22  C   UNL d   1      25.019 -17.439  -0.532  0.00  0.00     0.068 A 
ATOM     23  C   UNL d   1      24.403 -18.696  -0.483  0.00  0.00     0.039 A 
ATOM     24  C   UNL d   1      23.018 -18.826  -0.680  0.00  0.00     0.039 A 
ATOM     25  C   UNL d   1      22.213 -17.700  -0.866  0.00  0.00     0.068 A 
ATOM     26  C   UNL d   1      22.816 -16.446  -0.895  0.00  0.00     0.039 A 
ATOM     27  C   UNL d   1      24.208 -16.319  -0.730  0.00  0.00     0.039 A 
BRANCH  25  28
ATOM     28  O   UNL d   1      20.868 -17.938  -0.895  0.00  0.00    -0.356 OA
ATOM     29  C   UNL d   1      20.442 -19.294  -0.827  0.00  0.00     0.210 C 
ENDBRANCH  25  28
ENDBRANCH  21  22
ENDBRANCH  20  21
ENDBRANCH  19  20
ENDBRANCH   1  19
TORSDOF 10
ENDMDL
MODEL 8
REMARK VINA RESULT:    -5.671      4.274      8.701
REMARK INTER + INTRA:         -11.533
REMARK INTER:                  -8.654
REMARK INTRA:                  -2.878
REMARK CONF_INDEPENDENT:        2.983
REMARK UNBOUND:                -2.878
REMARK  10 active torsions:
REMARK  status: ('A' for Active; 'I' for Inactive)
REMARK    1  A    between atoms: O_2  and  C_3 
REMARK    2  A    between atoms: C_6  and  O_7 
REMARK    3  A    between atoms: O_7  and  C_8 
REMARK    4  A    between atoms: C_8  and  C_9 
REMARK    5  A    between atoms: C_9  and  C_10 
REMARK       I    between atoms: C_10  and  N_12 
REMARK    6  A    between atoms: N_12  and  N_13 
REMARK    7  A    between atoms: N_13  and  C_14 
REMARK    8  A    between atoms: C_14  and  N_16 
REMARK    9  A    between atoms: N_16  and  C_17 
REMARK   10  A    between atoms: C_22  and  O_23 
ROOT
ATOM      1  C   UNL d   1      28.233 -15.206  -5.547  0.00  0.00     0.238 C 
ATOM      2  O   UNL d   1      27.012 -15.307  -5.766  0.00  0.00    -0.272 OA
ATOM      3  N   UNL d   1      28.766 -15.471  -4.295  0.00  0.00    -0.268 N 
ATOM      4  H   UNL d   1      29.755 -15.351  -4.075  0.00  0.00     0.190 HD
ENDROOT
BRANCH   3   5
ATOM      5  N   UNL d   1      27.924 -15.957  -3.231  0.00  0.00    -0.274 N 
ATOM      6  H   UNL d   1      26.928 -15.985  -3.448  0.00  0.00     0.189 HD
BRANCH   5   7
ATOM      7  C   UNL d   1      28.460 -16.427  -2.012  0.00  0.00     0.191 C 
ATOM      8  S   UNL d   1      30.048 -16.986  -1.882  0.00  0.00    -0.039 SA
BRANCH   7   9
ATOM      9  N   UNL d   1      27.577 -16.213  -0.931  0.00  0.00    -0.330 N 
ATOM     10  H   UNL d   1      27.848 -15.501  -0.264  0.00  0.00     0.168 HD
BRANCH   9  11
ATOM     11  C   UNL d   1      26.217 -16.672  -0.789  0.00  0.00     0.068 A 
ATOM     12  C   UNL d   1      25.962 -17.622   0.227  0.00  0.00     0.032 A 
ATOM     13  C   UNL d   1      24.691 -18.200   0.410  0.00  0.00     0.002 A 
ATOM     14  C   UNL d   1      23.632 -17.820  -0.402  0.00  0.00     0.003 A 
ATOM     15  C   UNL d   1      23.869 -16.920  -1.436  0.00  0.00     0.039 A 
ATOM     16  C   UNL d   1      25.152 -16.373  -1.674  0.00  0.00     0.095 A 
BRANCH  16  17
ATOM     17  O   UNL d   1      25.149 -15.688  -2.865  0.00  0.00    -0.354 OA
ATOM     18  C   UNL d   1      25.252 -14.285  -2.830  0.00  0.00     0.210 C 
ENDBRANCH  16  17
ENDBRANCH   9  11
ENDBRANCH   7   9
ENDBRANCH   5   7
ENDBRANCH   3   5
BRANCH   1  19
ATOM     19  C   UNL d   1      29.230 -14.787  -6.634  0.00  0.00     0.131 C 
BRANCH  19  20
ATOM     20  C   UNL d   1      30.581 -15.510  -6.467  0.00  0.00     0.185 C 
BRANCH  20  21
ATOM     21  O   UNL d   1      30.469 -16.676  -5.627  0.00  0.00    -0.351 OA
BRANCH  21  22
ATOM     22  C   UNL d   1      30.705 -17.893  -6.233  0.00  0.00     0.068 A 
ATOM     23  C   UNL d   1      31.157 -17.852  -7.557  0.00  0.00     0.039 A 
ATOM     24  C   UNL d   1      31.373 -19.037  -8.281  0.00  0.00     0.039 A 
ATOM     25  C   UNL d   1      31.203 -20.284  -7.677  0.00  0.00     0.068 A 
ATOM     26  C   UNL d   1      30.773 -20.332  -6.354  0.00  0.00     0.039 A 
ATOM     27  C   UNL d   1      30.526 -19.145  -5.640  0.00  0.00     0.039 A 
BRANCH  25  28
ATOM     28  O   UNL d   1      31.587 -21.359  -8.429  0.00  0.00    -0.356 OA
ATOM     29  C   UNL d   1      32.208 -22.444  -7.749  0.00  0.00     0.210 C 
ENDBRANCH  25  28
ENDBRANCH  21  22
ENDBRANCH  20  21
ENDBRANCH  19  20
ENDBRANCH   1  19
TORSDOF 10
ENDMDL
MODEL 9
REMARK VINA RESULT:    -5.274      3.495      7.585
REMARK INTER + INTRA:         -11.699
REMARK INTER:                  -8.257
REMARK INTRA:                  -3.442
REMARK CONF_INDEPENDENT:        2.983
REMARK UNBOUND:                -3.442
REMARK  10 active torsions:
REMARK  status: ('A' for Active; 'I' for Inactive)
REMARK    1  A    between atoms: O_2  and  C_3 
REMARK    2  A    between atoms: C_6  and  O_7 
REMARK    3  A    between atoms: O_7  and  C_8 
REMARK    4  A    between atoms: C_8  and  C_9 
REMARK    5  A    between atoms: C_9  and  C_10 
REMARK       I    between atoms: C_10  and  N_12 
REMARK    6  A    between atoms: N_12  and  N_13 
REMARK    7  A    between atoms: N_13  and  C_14 
REMARK    8  A    between atoms: C_14  and  N_16 
REMARK    9  A    between atoms: N_16  and  C_17 
REMARK   10  A    between atoms: C_22  and  O_23 
ROOT
ATOM      1  C   UNL d   1      30.296 -16.473  -4.364  0.00  0.00     0.238 C 
ATOM      2  O   UNL d   1      31.455 -16.670  -3.959  0.00  0.00    -0.272 OA
ATOM      3  N   UNL d   1      29.245 -16.278  -3.481  0.00  0.00    -0.268 N 
ATOM      4  H   UNL d   1      28.279 -16.161  -3.783  0.00  0.00     0.190 HD
ENDROOT
BRANCH   3   5
ATOM      5  N   UNL d   1      29.488 -16.212  -2.062  0.00  0.00    -0.274 N 
ATOM      6  H   UNL d   1      29.488 -15.272  -1.667  0.00  0.00     0.189 HD
BRANCH   5   7
ATOM      7  C   UNL d   1      29.636 -17.376  -1.275  0.00  0.00     0.191 C 
ATOM      8  S   UNL d   1      31.018 -18.342  -1.349  0.00  0.00    -0.039 SA
BRANCH   7   9
ATOM      9  N   UNL d   1      28.588 -17.516  -0.339  0.00  0.00    -0.330 N 
ATOM     10  H   UNL d   1      28.864 -17.647   0.627  0.00  0.00     0.168 HD
BRANCH   9  11
ATOM     11  C   UNL d   1      27.187 -17.228  -0.522  0.00  0.00     0.068 A 
ATOM     12  C   UNL d   1      26.266 -18.196  -0.057  0.00  0.00     0.032 A 
ATOM     13  C   UNL d   1      24.878 -18.062  -0.250  0.00  0.00     0.002 A 
ATOM     14  C   UNL d   1      24.371 -16.939  -0.888  0.00  0.00     0.003 A 
ATOM     15  C   UNL d   1      25.259 -15.995  -1.391  0.00  0.00     0.039 A 
ATOM     16  C   UNL d   1      26.660 -16.140  -1.261  0.00  0.00     0.095 A 
BRANCH  16  17
ATOM     17  O   UNL d   1      27.297 -15.188  -2.021  0.00  0.00    -0.354 OA
ATOM     18  C   UNL d   1      27.420 -13.888  -1.497  0.00  0.00     0.210 C 
ENDBRANCH  16  17
ENDBRANCH   9  11
ENDBRANCH   7   9
ENDBRANCH   5   7
ENDBRANCH   3   5
BRANCH   1  19
ATOM     19  C   UNL d   1      29.944 -16.429  -5.856  0.00  0.00     0.131 C 
BRANCH  19  20
ATOM     20  C   UNL d   1      28.973 -15.275  -6.172  0.00  0.00     0.185 C 
BRANCH  20  21
ATOM     21  O   UNL d   1      27.626 -15.575  -5.755  0.00  0.00    -0.351 OA
BRANCH  21  22
ATOM     22  C   UNL d   1      26.928 -14.549  -5.151  0.00  0.00     0.068 A 
ATOM     23  C   UNL d   1      27.590 -13.320  -5.051  0.00  0.00     0.039 A 
ATOM     24  C   UNL d   1      26.988 -12.228  -4.404  0.00  0.00     0.039 A 
ATOM     25  C   UNL d   1      25.689 -12.324  -3.899  0.00  0.00     0.068 A 
ATOM     26  C   UNL d   1      25.016 -13.538  -4.013  0.00  0.00     0.039 A 
ATOM     27  C   UNL d   1      25.633 -14.640  -4.634  0.00  0.00     0.039 A 
BRANCH  25  28
ATOM     28  O   UNL d   1      25.154 -11.158  -3.428  0.00  0.00    -0.356 OA
ATOM     29  C   UNL d   1      25.720  -9.941  -3.901  0.00  0.00     0.210 C 
ENDBRANCH  25  28
ENDBRANCH  21  22
ENDBRANCH  20  21
ENDBRANCH  19  20
ENDBRANCH   1  19
TORSDOF 10
ENDMDL
