MODEL 1
REMARK VINA RESULT:   -10.886      0.000      0.000
REMARK INTER + INTRA:         -14.311
REMARK INTER:                 -12.676
REMARK INTRA:                  -1.635
REMARK CONF_INDEPENDENT:        1.790
REMARK UNBOUND:                -1.635
REMARK  6 active torsions:
REMARK  status: ('A' for Active; 'I' for Inactive)
REMARK       I    between atoms: C_2  and  N_4 
REMARK    1  A    between atoms: N_4  and  C_5 
REMARK    2  A    between atoms: C_8  and  N_9 
REMARK       I    between atoms: N_9  and  C_10 
REMARK    3  A    between atoms: C_10  and  C_12 
REMARK    4  A    between atoms: N_15  and  C_16 
REMARK    5  A    between atoms: C_21  and  S_22 
REMARK    6  A    between atoms: S_22  and  C_23 
ROOT
ATOM      1  C   UNL d   1      26.690 -14.554  -2.513  0.00  0.00     0.081 C 
ATOM      2  C   UNL d   1      26.460 -13.140  -3.081  0.00  0.00     0.034 C 
ATOM      3  C   UNL d   1      26.400 -12.954  -4.555  0.00  0.00     0.125 C 
ATOM      4  N   UNL d   1      27.385 -13.876  -5.048  0.00  0.00    -0.363 N 
ATOM      5  C   UNL d   1      27.192 -15.291  -4.709  0.00  0.00     0.125 C 
ATOM      6  C   UNL d   1      27.603 -15.492  -3.274  0.00  0.00     0.034 C 
ENDROOT
BRANCH   1   7
ATOM      7  C   UNL d   1      25.401 -15.118  -2.235  0.00  0.00     0.226 C 
ATOM      8  N   UNL d   1      25.413 -15.945  -1.160  0.00  0.00    -0.327 N 
ATOM      9  H   UNL d   1      26.202 -16.071  -0.544  0.00  0.00     0.169 HD
ATOM     10  O   UNL d   1      24.486 -14.902  -3.078  0.00  0.00    -0.273 OA
BRANCH   8  11
ATOM     11  C   UNL d   1      24.431 -16.814  -0.857  0.00  0.00     0.034 A 
ATOM     12  C   UNL d   1      24.799 -18.106  -0.526  0.00  0.00     0.032 A 
ATOM     13  C   UNL d   1      23.782 -18.952  -0.152  0.00  0.00     0.032 A 
ATOM     14  C   UNL d   1      22.466 -18.462  -0.130  0.00  0.00     0.034 A 
ATOM     15  C   UNL d   1      22.157 -17.166  -0.521  0.00  0.00     0.032 A 
ATOM     16  C   UNL d   1      23.145 -16.343  -0.911  0.00  0.00     0.032 A 
BRANCH  14  17
ATOM     17  N   UNL d   1      21.414 -19.245   0.336  0.00  0.00    -0.328 N 
ATOM     18  C   UNL d   1      20.424 -19.684  -0.526  0.00  0.00     0.218 C 
ATOM     19  C   UNL d   1      19.309 -20.427   0.133  0.00  0.00     0.117 C 
ATOM     20  O   UNL d   1      20.432 -19.550  -1.749  0.00  0.00    -0.274 OA
ATOM     21  H   UNL d   1      21.416 -19.480   1.318  0.00  0.00     0.169 HD
ENDBRANCH  14  17
ENDBRANCH   8  11
ENDBRANCH   1   7
BRANCH   4  22
ATOM     22  C   UNL d   1      28.083 -13.473  -6.156  0.00  0.00     0.161 A 
ATOM     23  N   UNL d   1      27.473 -12.503  -6.905  0.00  0.00    -0.239 NA
ATOM     24  C   UNL d   1      28.128 -12.061  -7.999  0.00  0.00     0.138 A 
ATOM     25  C   UNL d   1      29.341 -12.587  -8.379  0.00  0.00     0.137 A 
ATOM     26  N   UNL d   1      29.976 -13.540  -7.653  0.00  0.00    -0.248 NA
ATOM     27  C   UNL d   1      29.367 -13.993  -6.505  0.00  0.00     0.143 A 
BRANCH  27  28
ATOM     28  S   UNL d   1      30.473 -15.143  -5.596  0.00  0.00    -0.067 SA
BRANCH  28  29
ATOM     29  C   UNL d   1      30.364 -16.930  -5.963  0.00  0.00     0.007 C 
ATOM     30  C   UNL d   1      30.784 -17.485  -7.259  0.00  0.00     0.019 C 
ATOM     31  C   UNL d   1      31.085 -18.927  -7.509  0.00  0.00     0.008 C 
ATOM     32  C   UNL d   1      30.987 -19.891  -6.467  0.00  0.00    -0.062 C 
ATOM     33  C   UNL d   1      32.036 -21.201  -6.584  0.00  0.00     0.048 C 
ATOM     34  C   UNL d   1      30.401 -19.343  -5.193  0.00  0.00     0.008 C 
ATOM     35  C   UNL d   1      30.182 -17.876  -4.931  0.00  0.00     0.019 C 
ENDBRANCH  28  29
ENDBRANCH  27  28
ENDBRANCH   4  22
TORSDOF 6
ENDMDL
MODEL 2
REMARK VINA RESULT:   -10.562      6.291      8.739
REMARK INTER + INTRA:         -13.933
REMARK INTER:                 -12.352
REMARK INTRA:                  -1.580
REMARK CONF_INDEPENDENT:        1.790
REMARK UNBOUND:                -1.580
REMARK  6 active torsions:
REMARK  status: ('A' for Active; 'I' for Inactive)
REMARK       I    between atoms: C_2  and  N_4 
REMARK    1  A    between atoms: N_4  and  C_5 
REMARK    2  A    between atoms: C_8  and  N_9 
REMARK       I    between atoms: N_9  and  C_10 
REMARK    3  A    between atoms: C_10  and  C_12 
REMARK    4  A    between atoms: N_15  and  C_16 
REMARK    5  A    between atoms: C_21  and  S_22 
REMARK    6  A    between atoms: S_22  and  C_23 
ROOT
ATOM      1  C   UNL d   1      28.978 -14.370   1.141  0.00  0.00     0.081 C 
ATOM      2  C   UNL d   1      29.358 -13.390   0.014  0.00  0.00     0.034 C 
ATOM      3  C   UNL d   1      28.279 -12.692  -0.733  0.00  0.00     0.125 C 
ATOM      4  N   UNL d   1      27.248 -13.687  -0.837  0.00  0.00    -0.363 N 
ATOM      5  C   UNL d   1      26.723 -14.227   0.422  0.00  0.00     0.125 C 
ATOM      6  C   UNL d   1      27.727 -15.207   0.970  0.00  0.00     0.034 C 
ENDROOT
BRANCH   1   7
ATOM      7  C   UNL d   1      29.006 -13.637   2.372  0.00  0.00     0.226 C 
ATOM      8  N   UNL d   1      29.162 -14.439   3.455  0.00  0.00    -0.327 N 
ATOM      9  H   UNL d   1      29.354 -15.428   3.411  0.00  0.00     0.169 HD
ATOM     10  O   UNL d   1      28.743 -12.403   2.312  0.00  0.00    -0.273 OA
BRANCH   8  11
ATOM     11  C   UNL d   1      28.937 -14.055   4.725  0.00  0.00     0.034 A 
ATOM     12  C   UNL d   1      29.836 -14.476   5.689  0.00  0.00     0.032 A 
ATOM     13  C   UNL d   1      29.622 -14.010   6.966  0.00  0.00     0.032 A 
ATOM     14  C   UNL d   1      28.530 -13.159   7.202  0.00  0.00     0.034 A 
ATOM     15  C   UNL d   1      27.636 -12.814   6.199  0.00  0.00     0.032 A 
ATOM     16  C   UNL d   1      27.826 -13.286   4.955  0.00  0.00     0.032 A 
BRANCH  14  17
ATOM     17  N   UNL d   1      28.327 -12.580   8.452  0.00  0.00    -0.328 N 
ATOM     18  C   UNL d   1      28.238 -13.366   9.588  0.00  0.00     0.218 C 
ATOM     19  C   UNL d   1      27.917 -12.618  10.840  0.00  0.00     0.117 C 
ATOM     20  O   UNL d   1      28.445 -14.578   9.635  0.00  0.00    -0.274 OA
ATOM     21  H   UNL d   1      28.259 -11.574   8.487  0.00  0.00     0.169 HD
ENDBRANCH  14  17
ENDBRANCH   8  11
ENDBRANCH   1   7
BRANCH   4  22
ATOM     22  C   UNL d   1      26.514 -13.672  -1.994  0.00  0.00     0.161 A 
ATOM     23  N   UNL d   1      26.482 -12.468  -2.644  0.00  0.00    -0.239 NA
ATOM     24  C   UNL d   1      25.785 -12.406  -3.798  0.00  0.00     0.138 A 
ATOM     25  C   UNL d   1      25.095 -13.491  -4.288  0.00  0.00     0.137 A 
ATOM     26  N   UNL d   1      25.116 -14.699  -3.672  0.00  0.00    -0.248 NA
ATOM     27  C   UNL d   1      25.849 -14.824  -2.514  0.00  0.00     0.143 A 
BRANCH  27  28
ATOM     28  S   UNL d   1      25.878 -16.572  -1.952  0.00  0.00    -0.067 SA
BRANCH  28  29
ATOM     29  C   UNL d   1      24.399 -17.243  -1.114  0.00  0.00     0.007 C 
ATOM     30  C   UNL d   1      23.088 -16.582  -1.201  0.00  0.00     0.019 C 
ATOM     31  C   UNL d   1      21.783 -17.235  -0.882  0.00  0.00     0.008 C 
ATOM     32  C   UNL d   1      21.723 -18.594  -0.465  0.00  0.00    -0.062 C 
ATOM     33  C   UNL d   1      20.325 -19.427  -0.891  0.00  0.00     0.048 C 
ATOM     34  C   UNL d   1      23.075 -19.210  -0.222  0.00  0.00     0.008 C 
ATOM     35  C   UNL d   1      24.376 -18.568  -0.625  0.00  0.00     0.019 C 
ENDBRANCH  28  29
ENDBRANCH  27  28
ENDBRANCH   4  22
TORSDOF 6
ENDMDL
MODEL 3
REMARK VINA RESULT:   -10.443      5.430      8.150
REMARK INTER + INTRA:         -13.796
REMARK INTER:                 -12.233
REMARK INTRA:                  -1.563
REMARK CONF_INDEPENDENT:        1.790
REMARK UNBOUND:                -1.563
REMARK  6 active torsions:
REMARK  status: ('A' for Active; 'I' for Inactive)
REMARK       I    between atoms: C_2  and  N_4 
REMARK    1  A    between atoms: N_4  and  C_5 
REMARK    2  A    between atoms: C_8  and  N_9 
REMARK       I    between atoms: N_9  and  C_10 
REMARK    3  A    between atoms: C_10  and  C_12 
REMARK    4  A    between atoms: N_15  and  C_16 
REMARK    5  A    between atoms: C_21  and  S_22 
REMARK    6  A    between atoms: S_22  and  C_23 
ROOT
ATOM      1  C   UNL d   1      26.933 -14.763  -2.280  0.00  0.00     0.081 C 
ATOM      2  C   UNL d   1      27.973 -15.845  -1.930  0.00  0.00     0.034 C 
ATOM      3  C   UNL d   1      28.457 -15.958  -0.530  0.00  0.00     0.125 C 
ATOM      4  N   UNL d   1      28.530 -14.592  -0.091  0.00  0.00    -0.363 N 
ATOM      5  C   UNL d   1      27.284 -13.819  -0.134  0.00  0.00     0.125 C 
ATOM      6  C   UNL d   1      27.019 -13.430  -1.565  0.00  0.00     0.034 C 
ENDROOT
BRANCH   1   7
ATOM      7  C   UNL d   1      25.638 -15.371  -2.193  0.00  0.00     0.226 C 
ATOM      8  N   UNL d   1      25.431 -15.993  -1.005  0.00  0.00    -0.327 N 
ATOM      9  H   UNL d   1      26.060 -15.945  -0.217  0.00  0.00     0.169 HD
ATOM     10  O   UNL d   1      24.936 -15.381  -3.242  0.00  0.00    -0.273 OA
BRANCH   8  11
ATOM     11  C   UNL d   1      24.440 -16.872  -0.768  0.00  0.00     0.034 A 
ATOM     12  C   UNL d   1      24.797 -18.173  -0.462  0.00  0.00     0.032 A 
ATOM     13  C   UNL d   1      23.767 -19.031  -0.154  0.00  0.00     0.032 A 
ATOM     14  C   UNL d   1      22.451 -18.542  -0.170  0.00  0.00     0.034 A 
ATOM     15  C   UNL d   1      22.155 -17.236  -0.533  0.00  0.00     0.032 A 
ATOM     16  C   UNL d   1      23.156 -16.400  -0.858  0.00  0.00     0.032 A 
BRANCH  14  17
ATOM     17  N   UNL d   1      21.382 -19.340   0.231  0.00  0.00    -0.328 N 
ATOM     18  C   UNL d   1      20.379 -19.677  -0.662  0.00  0.00     0.218 C 
ATOM     19  C   UNL d   1      19.249 -20.451  -0.066  0.00  0.00     0.117 C 
ATOM     20  O   UNL d   1      20.386 -19.433  -1.867  0.00  0.00    -0.274 OA
ATOM     21  H   UNL d   1      21.383 -19.663   1.187  0.00  0.00     0.169 HD
ENDBRANCH  14  17
ENDBRANCH   8  11
ENDBRANCH   1   7
BRANCH   4  22
ATOM     22  C   UNL d   1      29.554 -14.292   0.769  0.00  0.00     0.161 A 
ATOM     23  N   UNL d   1      30.790 -14.205   0.190  0.00  0.00    -0.239 NA
ATOM     24  C   UNL d   1      31.830 -13.895   0.993  0.00  0.00     0.138 A 
ATOM     25  C   UNL d   1      31.671 -13.714   2.347  0.00  0.00     0.137 A 
ATOM     26  N   UNL d   1      30.458 -13.784   2.949  0.00  0.00    -0.248 NA
ATOM     27  C   UNL d   1      29.360 -14.055   2.164  0.00  0.00     0.143 A 
BRANCH  27  28
ATOM     28  S   UNL d   1      27.815 -13.930   3.149  0.00  0.00    -0.067 SA
BRANCH  28  29
ATOM     29  C   UNL d   1      27.947 -13.616   4.944  0.00  0.00     0.007 C 
ATOM     30  C   UNL d   1      28.547 -14.597   5.862  0.00  0.00     0.019 C 
ATOM     31  C   UNL d   1      29.033 -14.284   7.240  0.00  0.00     0.008 C 
ATOM     32  C   UNL d   1      28.950 -12.966   7.769  0.00  0.00    -0.062 C 
ATOM     33  C   UNL d   1      30.149 -12.545   8.871  0.00  0.00     0.048 C 
ATOM     34  C   UNL d   1      28.189 -12.011   6.888  0.00  0.00     0.008 C 
ATOM     35  C   UNL d   1      27.778 -12.318   5.472  0.00  0.00     0.019 C 
ENDBRANCH  28  29
ENDBRANCH  27  28
ENDBRANCH   4  22
TORSDOF 6
ENDMDL
MODEL 4
REMARK VINA RESULT:   -10.291      6.323      9.050
REMARK INTER + INTRA:         -13.398
REMARK INTER:                 -12.081
REMARK INTRA:                  -1.317
REMARK CONF_INDEPENDENT:        1.790
REMARK UNBOUND:                -1.317
REMARK  6 active torsions:
REMARK  status: ('A' for Active; 'I' for Inactive)
REMARK       I    between atoms: C_2  and  N_4 
REMARK    1  A    between atoms: N_4  and  C_5 
REMARK    2  A    between atoms: C_8  and  N_9 
REMARK       I    between atoms: N_9  and  C_10 
REMARK    3  A    between atoms: C_10  and  C_12 
REMARK    4  A    between atoms: N_15  and  C_16 
REMARK    5  A    between atoms: C_21  and  S_22 
REMARK    6  A    between atoms: S_22  and  C_23 
ROOT
ATOM      1  C   UNL d   1      27.574 -15.405  -0.446  0.00  0.00     0.081 C 
ATOM      2  C   UNL d   1      28.504 -15.349   0.782  0.00  0.00     0.034 C 
ATOM      3  C   UNL d   1      28.106 -14.527   1.954  0.00  0.00     0.125 C 
ATOM      4  N   UNL d   1      27.479 -13.380   1.360  0.00  0.00    -0.363 N 
ATOM      5  C   UNL d   1      26.315 -13.634   0.503  0.00  0.00     0.125 C 
ATOM      6  C   UNL d   1      26.809 -14.153  -0.822  0.00  0.00     0.034 C 
ENDROOT
BRANCH   1   7
ATOM      7  C   UNL d   1      26.736 -16.558  -0.294  0.00  0.00     0.226 C 
ATOM      8  N   UNL d   1      25.541 -16.421  -0.923  0.00  0.00    -0.327 N 
ATOM      9  H   UNL d   1      25.298 -15.652  -1.529  0.00  0.00     0.169 HD
ATOM     10  O   UNL d   1      27.135 -17.459   0.495  0.00  0.00    -0.273 OA
BRANCH   8  11
ATOM     11  C   UNL d   1      24.473 -17.212  -0.708  0.00  0.00     0.034 A 
ATOM     12  C   UNL d   1      24.709 -18.553  -0.464  0.00  0.00     0.032 A 
ATOM     13  C   UNL d   1      23.605 -19.323  -0.178  0.00  0.00     0.032 A 
ATOM     14  C   UNL d   1      22.341 -18.711  -0.152  0.00  0.00     0.034 A 
ATOM     15  C   UNL d   1      22.167 -17.368  -0.454  0.00  0.00     0.032 A 
ATOM     16  C   UNL d   1      23.239 -16.617  -0.759  0.00  0.00     0.032 A 
BRANCH  14  17
ATOM     17  N   UNL d   1      21.206 -19.421   0.230  0.00  0.00    -0.328 N 
ATOM     18  C   UNL d   1      20.250 -19.782  -0.705  0.00  0.00     0.218 C 
ATOM     19  C   UNL d   1      19.042 -20.448  -0.135  0.00  0.00     0.117 C 
ATOM     20  O   UNL d   1      20.354 -19.637  -1.922  0.00  0.00    -0.274 OA
ATOM     21  H   UNL d   1      21.123 -19.664   1.205  0.00  0.00     0.169 HD
ENDBRANCH  14  17
ENDBRANCH   8  11
ENDBRANCH   1   7
BRANCH   4  22
ATOM     22  C   UNL d   1      27.668 -12.188   2.010  0.00  0.00     0.161 A 
ATOM     23  N   UNL d   1      27.658 -11.081   1.205  0.00  0.00    -0.239 NA
ATOM     24  C   UNL d   1      27.824  -9.881   1.800  0.00  0.00     0.138 A 
ATOM     25  C   UNL d   1      28.038  -9.767   3.154  0.00  0.00     0.137 A 
ATOM     26  N   UNL d   1      28.043 -10.844   3.979  0.00  0.00    -0.248 NA
ATOM     27  C   UNL d   1      27.835 -12.086   3.425  0.00  0.00     0.143 A 
BRANCH  27  28
ATOM     28  S   UNL d   1      27.709 -13.366   4.735  0.00  0.00    -0.067 SA
BRANCH  28  29
ATOM     29  C   UNL d   1      28.610 -13.102   6.303  0.00  0.00     0.007 C 
ATOM     30  C   UNL d   1      28.188 -12.088   7.281  0.00  0.00     0.019 C 
ATOM     31  C   UNL d   1      28.613 -12.058   8.713  0.00  0.00     0.008 C 
ATOM     32  C   UNL d   1      29.482 -13.052   9.243  0.00  0.00    -0.062 C 
ATOM     33  C   UNL d   1      29.270 -13.412  10.873  0.00  0.00     0.048 C 
ATOM     34  C   UNL d   1      30.036 -13.986   8.200  0.00  0.00     0.008 C 
ATOM     35  C   UNL d   1      29.536 -14.054   6.782  0.00  0.00     0.019 C 
ENDBRANCH  28  29
ENDBRANCH  27  28
ENDBRANCH   4  22
TORSDOF 6
ENDMDL
MODEL 5
REMARK VINA RESULT:   -10.275      1.420      2.215
REMARK INTER + INTRA:         -13.241
REMARK INTER:                 -12.064
REMARK INTRA:                  -1.177
REMARK CONF_INDEPENDENT:        1.790
REMARK UNBOUND:                -1.177
REMARK  6 active torsions:
REMARK  status: ('A' for Active; 'I' for Inactive)
REMARK       I    between atoms: C_2  and  N_4 
REMARK    1  A    between atoms: N_4  and  C_5 
REMARK    2  A    between atoms: C_8  and  N_9 
REMARK       I    between atoms: N_9  and  C_10 
REMARK    3  A    between atoms: C_10  and  C_12 
REMARK    4  A    between atoms: N_15  and  C_16 
REMARK    5  A    between atoms: C_21  and  S_22 
REMARK    6  A    between atoms: S_22  and  C_23 
ROOT
ATOM      1  C   UNL d   1      27.167 -14.272  -3.064  0.00  0.00     0.081 C 
ATOM      2  C   UNL d   1      27.071 -13.604  -4.449  0.00  0.00     0.034 C 
ATOM      3  C   UNL d   1      27.572 -14.336  -5.642  0.00  0.00     0.125 C 
ATOM      4  N   UNL d   1      28.736 -15.018  -5.150  0.00  0.00    -0.363 N 
ATOM      5  C   UNL d   1      28.533 -15.949  -4.034  0.00  0.00     0.125 C 
ATOM      6  C   UNL d   1      28.370 -15.144  -2.771  0.00  0.00     0.034 C 
ENDROOT
BRANCH   1   7
ATOM      7  C   UNL d   1      25.917 -14.929  -2.819  0.00  0.00     0.226 C 
ATOM      8  N   UNL d   1      25.825 -15.426  -1.561  0.00  0.00    -0.327 N 
ATOM      9  H   UNL d   1      26.501 -15.262  -0.829  0.00  0.00     0.169 HD
ATOM     10  O   UNL d   1      25.148 -15.089  -3.809  0.00  0.00    -0.273 OA
BRANCH   8  11
ATOM     11  C   UNL d   1      24.903 -16.322  -1.160  0.00  0.00     0.034 A 
ATOM     12  C   UNL d   1      23.572 -15.950  -1.244  0.00  0.00     0.032 A 
ATOM     13  C   UNL d   1      22.650 -16.909  -0.895  0.00  0.00     0.032 A 
ATOM     14  C   UNL d   1      23.107 -18.173  -0.488  0.00  0.00     0.034 A 
ATOM     15  C   UNL d   1      24.459 -18.466  -0.380  0.00  0.00     0.032 A 
ATOM     16  C   UNL d   1      25.365 -17.525  -0.695  0.00  0.00     0.032 A 
BRANCH  14  17
ATOM     17  N   UNL d   1      22.216 -19.209  -0.222  0.00  0.00    -0.328 N 
ATOM     18  C   UNL d   1      20.886 -19.109  -0.591  0.00  0.00     0.218 C 
ATOM     19  C   UNL d   1      20.030 -20.250  -0.151  0.00  0.00     0.117 C 
ATOM     20  O   UNL d   1      20.400 -18.204  -1.268  0.00  0.00    -0.274 OA
ATOM     21  H   UNL d   1      22.587 -20.028   0.236  0.00  0.00     0.169 HD
ENDBRANCH  14  17
ENDBRANCH   8  11
ENDBRANCH   1   7
BRANCH   4  22
ATOM     22  C   UNL d   1      29.777 -15.143  -6.032  0.00  0.00     0.161 A 
ATOM     23  N   UNL d   1      30.092 -14.005  -6.723  0.00  0.00    -0.239 NA
ATOM     24  C   UNL d   1      31.121 -14.073  -7.593  0.00  0.00     0.138 A 
ATOM     25  C   UNL d   1      31.804 -15.245  -7.818  0.00  0.00     0.137 A 
ATOM     26  N   UNL d   1      31.522 -16.387  -7.143  0.00  0.00    -0.248 NA
ATOM     27  C   UNL d   1      30.509 -16.357  -6.212  0.00  0.00     0.143 A 
BRANCH  27  28
ATOM     28  S   UNL d   1      30.417 -17.950  -5.303  0.00  0.00    -0.067 SA
BRANCH  28  29
ATOM     29  C   UNL d   1      30.702 -19.500  -6.228  0.00  0.00     0.007 C 
ATOM     30  C   UNL d   1      30.930 -19.507  -7.681  0.00  0.00     0.019 C 
ATOM     31  C   UNL d   1      31.533 -20.644  -8.441  0.00  0.00     0.008 C 
ATOM     32  C   UNL d   1      31.948 -21.834  -7.780  0.00  0.00    -0.062 C 
ATOM     33  C   UNL d   1      33.246 -22.642  -8.480  0.00  0.00     0.048 C 
ATOM     34  C   UNL d   1      31.561 -21.881  -6.326  0.00  0.00     0.008 C 
ATOM     35  C   UNL d   1      31.030 -20.699  -5.558  0.00  0.00     0.019 C 
ENDBRANCH  28  29
ENDBRANCH  27  28
ENDBRANCH   4  22
TORSDOF 6
ENDMDL
MODEL 6
REMARK VINA RESULT:   -10.080      1.594      4.631
REMARK INTER + INTRA:         -14.142
REMARK INTER:                 -11.869
REMARK INTRA:                  -2.273
REMARK CONF_INDEPENDENT:        1.790
REMARK UNBOUND:                -2.273
REMARK  6 active torsions:
REMARK  status: ('A' for Active; 'I' for Inactive)
REMARK       I    between atoms: C_2  and  N_4 
REMARK    1  A    between atoms: N_4  and  C_5 
REMARK    2  A    between atoms: C_8  and  N_9 
REMARK       I    between atoms: N_9  and  C_10 
REMARK    3  A    between atoms: C_10  and  C_12 
REMARK    4  A    between atoms: N_15  and  C_16 
REMARK    5  A    between atoms: C_21  and  S_22 
REMARK    6  A    between atoms: S_22  and  C_23 
ROOT
ATOM      1  C   UNL d   1      26.182 -14.081  -3.098  0.00  0.00     0.081 C 
ATOM      2  C   UNL d   1      26.122 -14.089  -4.637  0.00  0.00     0.034 C 
ATOM      3  C   UNL d   1      26.771 -15.200  -5.381  0.00  0.00     0.125 C 
ATOM      4  N   UNL d   1      27.955 -15.468  -4.615  0.00  0.00    -0.363 N 
ATOM      5  C   UNL d   1      27.760 -15.846  -3.210  0.00  0.00     0.125 C 
ATOM      6  C   UNL d   1      27.437 -14.600  -2.427  0.00  0.00     0.034 C 
ENDROOT
BRANCH   1   7
ATOM      7  C   UNL d   1      24.984 -14.706  -2.620  0.00  0.00     0.226 C 
ATOM      8  N   UNL d   1      25.223 -15.619  -1.646  0.00  0.00    -0.327 N 
ATOM      9  H   UNL d   1      26.121 -15.771  -1.212  0.00  0.00     0.169 HD
ATOM     10  O   UNL d   1      23.915 -14.450  -3.242  0.00  0.00    -0.273 OA
BRANCH   8  11
ATOM     11  C   UNL d   1      24.334 -16.541  -1.231  0.00  0.00     0.034 A 
ATOM     12  C   UNL d   1      24.800 -17.825  -1.011  0.00  0.00     0.032 A 
ATOM     13  C   UNL d   1      23.886 -18.728  -0.520  0.00  0.00     0.032 A 
ATOM     14  C   UNL d   1      22.571 -18.298  -0.279  0.00  0.00     0.034 A 
ATOM     15  C   UNL d   1      22.155 -17.006  -0.567  0.00  0.00     0.032 A 
ATOM     16  C   UNL d   1      23.037 -16.127  -1.070  0.00  0.00     0.032 A 
BRANCH  14  17
ATOM     17  N   UNL d   1      21.635 -19.143   0.311  0.00  0.00    -0.328 N 
ATOM     18  C   UNL d   1      20.584 -19.660  -0.428  0.00  0.00     0.218 C 
ATOM     19  C   UNL d   1      19.605 -20.465   0.360  0.00  0.00     0.117 C 
ATOM     20  O   UNL d   1      20.443 -19.542  -1.645  0.00  0.00    -0.274 OA
ATOM     21  H   UNL d   1      21.766 -19.364   1.287  0.00  0.00     0.169 HD
ENDBRANCH  14  17
ENDBRANCH   8  11
ENDBRANCH   1   7
BRANCH   4  22
ATOM     22  C   UNL d   1      29.062 -15.842  -5.331  0.00  0.00     0.161 A 
ATOM     23  N   UNL d   1      29.657 -17.002  -4.914  0.00  0.00    -0.239 NA
ATOM     24  C   UNL d   1      30.742 -17.422  -5.598  0.00  0.00     0.138 A 
ATOM     25  C   UNL d   1      31.263 -16.699  -6.646  0.00  0.00     0.137 A 
ATOM     26  N   UNL d   1      30.690 -15.552  -7.088  0.00  0.00    -0.248 NA
ATOM     27  C   UNL d   1      29.556 -15.106  -6.450  0.00  0.00     0.143 A 
BRANCH  27  28
ATOM     28  S   UNL d   1      28.858 -13.645  -7.318  0.00  0.00    -0.067 SA
BRANCH  28  29
ATOM     29  C   UNL d   1      28.265 -12.237  -6.316  0.00  0.00     0.007 C 
ATOM     30  C   UNL d   1      27.030 -11.510  -6.651  0.00  0.00     0.019 C 
ATOM     31  C   UNL d   1      26.283 -10.624  -5.708  0.00  0.00     0.008 C 
ATOM     32  C   UNL d   1      26.733 -10.424  -4.373  0.00  0.00    -0.062 C 
ATOM     33  C   UNL d   1      25.530 -10.129  -3.234  0.00  0.00     0.048 C 
ATOM     34  C   UNL d   1      28.079 -11.038  -4.093  0.00  0.00     0.008 C 
ATOM     35  C   UNL d   1      28.777 -11.994  -5.024  0.00  0.00     0.019 C 
ENDBRANCH  28  29
ENDBRANCH  27  28
ENDBRANCH   4  22
TORSDOF 6
ENDMDL
MODEL 7
REMARK VINA RESULT:    -9.893      1.762      2.486
REMARK INTER + INTRA:         -13.863
REMARK INTER:                 -11.683
REMARK INTRA:                  -2.180
REMARK CONF_INDEPENDENT:        1.790
REMARK UNBOUND:                -2.180
REMARK  6 active torsions:
REMARK  status: ('A' for Active; 'I' for Inactive)
REMARK       I    between atoms: C_2  and  N_4 
REMARK    1  A    between atoms: N_4  and  C_5 
REMARK    2  A    between atoms: C_8  and  N_9 
REMARK       I    between atoms: N_9  and  C_10 
REMARK    3  A    between atoms: C_10  and  C_12 
REMARK    4  A    between atoms: N_15  and  C_16 
REMARK    5  A    between atoms: C_21  and  S_22 
REMARK    6  A    between atoms: S_22  and  C_23 
ROOT
ATOM      1  C   UNL d   1      26.474 -14.682  -2.703  0.00  0.00     0.081 C 
ATOM      2  C   UNL d   1      26.461 -13.155  -2.492  0.00  0.00     0.034 C 
ATOM      3  C   UNL d   1      26.045 -12.273  -3.614  0.00  0.00     0.125 C 
ATOM      4  N   UNL d   1      26.589 -12.927  -4.772  0.00  0.00    -0.363 N 
ATOM      5  C   UNL d   1      26.146 -14.304  -5.021  0.00  0.00     0.125 C 
ATOM      6  C   UNL d   1      26.873 -15.213  -4.065  0.00  0.00     0.034 C 
ENDROOT
BRANCH   1   7
ATOM      7  C   UNL d   1      25.214 -15.187  -2.244  0.00  0.00     0.226 C 
ATOM      8  N   UNL d   1      25.350 -16.180  -1.330  0.00  0.00    -0.327 N 
ATOM      9  H   UNL d   1      26.228 -16.464  -0.921  0.00  0.00     0.169 HD
ATOM     10  O   UNL d   1      24.178 -14.768  -2.832  0.00  0.00    -0.273 OA
BRANCH   8  11
ATOM     11  C   UNL d   1      24.361 -17.013  -0.956  0.00  0.00     0.034 A 
ATOM     12  C   UNL d   1      24.713 -18.300  -0.590  0.00  0.00     0.032 A 
ATOM     13  C   UNL d   1      23.691 -19.106  -0.145  0.00  0.00     0.032 A 
ATOM     14  C   UNL d   1      22.389 -18.584  -0.092  0.00  0.00     0.034 A 
ATOM     15  C   UNL d   1      22.095 -17.297  -0.520  0.00  0.00     0.032 A 
ATOM     16  C   UNL d   1      23.085 -16.513  -0.979  0.00  0.00     0.032 A 
BRANCH  14  17
ATOM     17  N   UNL d   1      21.338 -19.323   0.444  0.00  0.00    -0.328 N 
ATOM     18  C   UNL d   1      20.311 -19.779  -0.363  0.00  0.00     0.218 C 
ATOM     19  C   UNL d   1      19.205 -20.468   0.365  0.00  0.00     0.117 C 
ATOM     20  O   UNL d   1      20.280 -19.699  -1.591  0.00  0.00    -0.274 OA
ATOM     21  H   UNL d   1      21.369 -19.514   1.435  0.00  0.00     0.169 HD
ENDBRANCH  14  17
ENDBRANCH   8  11
ENDBRANCH   1   7
BRANCH   4  22
ATOM     22  C   UNL d   1      27.031 -12.103  -5.774  0.00  0.00     0.161 A 
ATOM     23  N   UNL d   1      26.572 -10.816  -5.711  0.00  0.00    -0.239 NA
ATOM     24  C   UNL d   1      26.993  -9.961  -6.667  0.00  0.00     0.138 A 
ATOM     25  C   UNL d   1      27.814 -10.367  -7.692  0.00  0.00     0.137 A 
ATOM     26  N   UNL d   1      28.294 -11.633  -7.776  0.00  0.00    -0.248 NA
ATOM     27  C   UNL d   1      27.928 -12.531  -6.800  0.00  0.00     0.143 A 
BRANCH  27  28
ATOM     28  S   UNL d   1      28.823 -14.120  -7.014  0.00  0.00    -0.067 SA
BRANCH  28  29
ATOM     29  C   UNL d   1      29.581 -14.899  -5.545  0.00  0.00     0.007 C 
ATOM     30  C   UNL d   1      29.819 -14.148  -4.302  0.00  0.00     0.019 C 
ATOM     31  C   UNL d   1      30.069 -14.771  -2.967  0.00  0.00     0.008 C 
ATOM     32  C   UNL d   1      30.087 -16.184  -2.806  0.00  0.00    -0.062 C 
ATOM     33  C   UNL d   1      29.586 -16.754  -1.304  0.00  0.00     0.048 C 
ATOM     34  C   UNL d   1      30.007 -16.940  -4.106  0.00  0.00     0.008 C 
ATOM     35  C   UNL d   1      29.673 -16.303  -5.429  0.00  0.00     0.019 C 
ENDBRANCH  28  29
ENDBRANCH  27  28
ENDBRANCH   4  22
TORSDOF 6
ENDMDL
MODEL 8
REMARK VINA RESULT:    -9.707      1.645      4.437
REMARK INTER + INTRA:         -13.240
REMARK INTER:                 -11.497
REMARK INTRA:                  -1.743
REMARK CONF_INDEPENDENT:        1.790
REMARK UNBOUND:                -1.743
REMARK  6 active torsions:
REMARK  status: ('A' for Active; 'I' for Inactive)
REMARK       I    between atoms: C_2  and  N_4 
REMARK    1  A    between atoms: N_4  and  C_5 
REMARK    2  A    between atoms: C_8  and  N_9 
REMARK       I    between atoms: N_9  and  C_10 
REMARK    3  A    between atoms: C_10  and  C_12 
REMARK    4  A    between atoms: N_15  and  C_16 
REMARK    5  A    between atoms: C_21  and  S_22 
REMARK    6  A    between atoms: S_22  and  C_23 
ROOT
ATOM      1  C   UNL d   1      27.102 -14.342  -2.954  0.00  0.00     0.081 C 
ATOM      2  C   UNL d   1      27.079 -13.913  -4.434  0.00  0.00     0.034 C 
ATOM      3  C   UNL d   1      27.629 -14.834  -5.463  0.00  0.00     0.125 C 
ATOM      4  N   UNL d   1      28.761 -15.428  -4.808  0.00  0.00    -0.363 N 
ATOM      5  C   UNL d   1      28.495 -16.160  -3.564  0.00  0.00     0.125 C 
ATOM      6  C   UNL d   1      28.281 -15.156  -2.462  0.00  0.00     0.034 C 
ENDROOT
BRANCH   1   7
ATOM      7  C   UNL d   1      25.835 -14.947  -2.665  0.00  0.00     0.226 C 
ATOM      8  N   UNL d   1      25.803 -15.534  -1.443  0.00  0.00    -0.327 N 
ATOM      9  H   UNL d   1      26.538 -15.464  -0.754  0.00  0.00     0.169 HD
ATOM     10  O   UNL d   1      24.990 -14.986  -3.602  0.00  0.00    -0.273 OA
BRANCH   8  11
ATOM     11  C   UNL d   1      24.859 -16.406  -1.041  0.00  0.00     0.034 A 
ATOM     12  C   UNL d   1      23.553 -15.952  -0.982  0.00  0.00     0.032 A 
ATOM     13  C   UNL d   1      22.600 -16.883  -0.637  0.00  0.00     0.032 A 
ATOM     14  C   UNL d   1      23.005 -18.202  -0.374  0.00  0.00     0.034 A 
ATOM     15  C   UNL d   1      24.340 -18.581  -0.404  0.00  0.00     0.032 A 
ATOM     16  C   UNL d   1      25.277 -17.670  -0.716  0.00  0.00     0.032 A 
BRANCH  14  17
ATOM     17  N   UNL d   1      22.073 -19.204  -0.120  0.00  0.00    -0.328 N 
ATOM     18  C   UNL d   1      20.757 -19.063  -0.526  0.00  0.00     0.218 C 
ATOM     19  C   UNL d   1      19.851 -20.169  -0.096  0.00  0.00     0.117 C 
ATOM     20  O   UNL d   1      20.320 -18.151  -1.227  0.00  0.00    -0.274 OA
ATOM     21  H   UNL d   1      22.403 -20.029   0.357  0.00  0.00     0.169 HD
ENDBRANCH  14  17
ENDBRANCH   8  11
ENDBRANCH   1   7
BRANCH   4  22
ATOM     22  C   UNL d   1      29.841 -15.701  -5.606  0.00  0.00     0.161 A 
ATOM     23  N   UNL d   1      30.024 -17.024  -5.901  0.00  0.00    -0.239 NA
ATOM     24  C   UNL d   1      31.066 -17.344  -6.698  0.00  0.00     0.138 A 
ATOM     25  C   UNL d   1      31.940 -16.389  -7.164  0.00  0.00     0.137 A 
ATOM     26  N   UNL d   1      31.780 -15.070  -6.897  0.00  0.00    -0.248 NA
ATOM     27  C   UNL d   1      30.707 -14.690  -6.124  0.00  0.00     0.143 A 
BRANCH  27  28
ATOM     28  S   UNL d   1      30.588 -12.859  -6.037  0.00  0.00    -0.067 SA
BRANCH  28  29
ATOM     29  C   UNL d   1      29.450 -12.004  -7.183  0.00  0.00     0.007 C 
ATOM     30  C   UNL d   1      29.628 -12.061  -8.642  0.00  0.00     0.019 C 
ATOM     31  C   UNL d   1      28.568 -11.728  -9.642  0.00  0.00     0.008 C 
ATOM     32  C   UNL d   1      27.267 -11.325  -9.229  0.00  0.00    -0.062 C 
ATOM     33  C   UNL d   1      26.011 -11.736 -10.269  0.00  0.00     0.048 C 
ATOM     34  C   UNL d   1      27.147 -11.111  -7.743  0.00  0.00     0.008 C 
ATOM     35  C   UNL d   1      28.194 -11.529  -6.746  0.00  0.00     0.019 C 
ENDBRANCH  28  29
ENDBRANCH  27  28
ENDBRANCH   4  22
TORSDOF 6
ENDMDL
MODEL 9
REMARK VINA RESULT:    -9.544      2.533      3.523
REMARK INTER + INTRA:         -13.917
REMARK INTER:                 -11.334
REMARK INTRA:                  -2.583
REMARK CONF_INDEPENDENT:        1.790
REMARK UNBOUND:                -2.583
REMARK  6 active torsions:
REMARK  status: ('A' for Active; 'I' for Inactive)
REMARK       I    between atoms: C_2  and  N_4 
REMARK    1  A    between atoms: N_4  and  C_5 
REMARK    2  A    between atoms: C_8  and  N_9 
REMARK       I    between atoms: N_9  and  C_10 
REMARK    3  A    between atoms: C_10  and  C_12 
REMARK    4  A    between atoms: N_15  and  C_16 
REMARK    5  A    between atoms: C_21  and  S_22 
REMARK    6  A    between atoms: S_22  and  C_23 
ROOT
ATOM      1  C   UNL d   1      26.729 -14.801  -2.689  0.00  0.00     0.081 C 
ATOM      2  C   UNL d   1      27.366 -13.521  -2.113  0.00  0.00     0.034 C 
ATOM      3  C   UNL d   1      26.655 -12.225  -2.272  0.00  0.00     0.125 C 
ATOM      4  N   UNL d   1      26.071 -12.322  -3.581  0.00  0.00    -0.363 N 
ATOM      5  C   UNL d   1      25.145 -13.438  -3.809  0.00  0.00     0.125 C 
ATOM      6  C   UNL d   1      25.956 -14.695  -3.987  0.00  0.00     0.034 C 
ENDROOT
BRANCH   1   7
ATOM      7  C   UNL d   1      25.982 -15.418  -1.632  0.00  0.00     0.226 C 
ATOM      8  N   UNL d   1      25.332 -16.538  -2.037  0.00  0.00    -0.327 N 
ATOM      9  H   UNL d   1      25.442 -16.968  -2.944  0.00  0.00     0.169 HD
ATOM     10  O   UNL d   1      25.904 -14.789  -0.540  0.00  0.00    -0.273 OA
BRANCH   8  11
ATOM     11  C   UNL d   1      24.348 -17.140  -1.344  0.00  0.00     0.034 A 
ATOM     12  C   UNL d   1      23.166 -16.442  -1.172  0.00  0.00     0.032 A 
ATOM     13  C   UNL d   1      22.155 -17.109  -0.521  0.00  0.00     0.032 A 
ATOM     14  C   UNL d   1      22.381 -18.425  -0.085  0.00  0.00     0.034 A 
ATOM     15  C   UNL d   1      23.608 -19.052  -0.247  0.00  0.00     0.032 A 
ATOM     16  C   UNL d   1      24.608 -18.396  -0.859  0.00  0.00     0.032 A 
BRANCH  14  17
ATOM     17  N   UNL d   1      21.360 -19.179   0.487  0.00  0.00    -0.328 N 
ATOM     18  C   UNL d   1      20.344 -19.701  -0.294  0.00  0.00     0.218 C 
ATOM     19  C   UNL d   1      19.267 -20.399   0.468  0.00  0.00     0.117 C 
ATOM     20  O   UNL d   1      20.302 -19.669  -1.524  0.00  0.00    -0.274 OA
ATOM     21  H   UNL d   1      21.405 -19.331   1.484  0.00  0.00     0.169 HD
ENDBRANCH  14  17
ENDBRANCH   8  11
ENDBRANCH   1   7
BRANCH   4  22
ATOM     22  C   UNL d   1      26.011 -11.158  -4.300  0.00  0.00     0.161 A 
ATOM     23  N   UNL d   1      25.475 -10.091  -3.631  0.00  0.00    -0.239 NA
ATOM     24  C   UNL d   1      25.409  -8.915  -4.291  0.00  0.00     0.138 A 
ATOM     25  C   UNL d   1      25.820  -8.794  -5.598  0.00  0.00     0.137 A 
ATOM     26  N   UNL d   1      26.364  -9.830  -6.284  0.00  0.00    -0.248 NA
ATOM     27  C   UNL d   1      26.493 -11.038  -5.639  0.00  0.00     0.143 A 
BRANCH  27  28
ATOM     28  S   UNL d   1      27.405 -12.238  -6.689  0.00  0.00    -0.067 SA
BRANCH  28  29
ATOM     29  C   UNL d   1      28.518 -13.438  -5.876  0.00  0.00     0.007 C 
ATOM     30  C   UNL d   1      29.363 -13.064  -4.732  0.00  0.00     0.019 C 
ATOM     31  C   UNL d   1      29.996 -14.035  -3.788  0.00  0.00     0.008 C 
ATOM     32  C   UNL d   1      29.808 -15.437  -3.939  0.00  0.00    -0.062 C 
ATOM     33  C   UNL d   1      29.840 -16.334  -2.517  0.00  0.00     0.048 C 
ATOM     34  C   UNL d   1      29.081 -15.814  -5.203  0.00  0.00     0.008 C 
ATOM     35  C   UNL d   1      28.380 -14.826  -6.097  0.00  0.00     0.019 C 
ENDBRANCH  28  29
ENDBRANCH  27  28
ENDBRANCH   4  22
TORSDOF 6
ENDMDL
