MODEL 1
REMARK VINA RESULT:    -9.852      0.000      0.000
REMARK INTER + INTRA:         -14.114
REMARK INTER:                 -12.835
REMARK INTRA:                  -1.280
REMARK CONF_INDEPENDENT:        2.983
REMARK UNBOUND:                -1.280
REMARK  10 active torsions:
REMARK  status: ('A' for Active; 'I' for Inactive)
REMARK    1  A    between atoms: C_2  and  C_3 
REMARK       I    between atoms: C_3  and  N_5 
REMARK    2  A    between atoms: N_5  and  C_6 
REMARK    3  A    between atoms: C_9  and  C_10 
REMARK       I    between atoms: C_10  and  N_12 
REMARK    4  A    between atoms: N_12  and  N_13 
REMARK    5  A    between atoms: N_13  and  C_14 
REMARK    6  A    between atoms: C_14  and  N_16 
REMARK       I    between atoms: N_16  and  C_17 
REMARK    7  A    between atoms: C_17  and  C_19 
REMARK    8  A    between atoms: C_23  and  O_24 
REMARK    9  A    between atoms: O_24  and  C_25 
REMARK   10  A    between atoms: C_25  and  C_27 
ROOT
ATOM      1  N   UNL d   1      28.905 -15.176  -0.060  0.00  0.00    -0.273 N 
ATOM      2  H   UNL d   1      29.187 -14.328  -0.548  0.00  0.00     0.189 HD
ENDROOT
BRANCH   1   3
ATOM      3  N   UNL d   1      28.867 -15.064   1.391  0.00  0.00    -0.264 N 
ATOM      4  C   UNL d   1      28.711 -13.855   2.056  0.00  0.00     0.270 C 
ATOM      5  O   UNL d   1      28.577 -12.791   1.440  0.00  0.00    -0.266 OA
ATOM      6  H   UNL d   1      29.009 -15.950   1.874  0.00  0.00     0.190 HD
BRANCH   4   7
ATOM      7  C   UNL d   1      28.741 -13.858   3.583  0.00  0.00     0.033 A 
ATOM      8  C   UNL d   1      29.534 -12.912   4.267  0.00  0.00     0.019 A 
ATOM      9  C   UNL d   1      29.697 -12.948   5.674  0.00  0.00     0.030 A 
ATOM     10  C   UNL d   1      29.046 -13.919   6.435  0.00  0.00     0.034 A 
ATOM     11  C   UNL d   1      28.217 -14.828   5.770  0.00  0.00     0.030 A 
ATOM     12  C   UNL d   1      28.057 -14.794   4.368  0.00  0.00     0.019 A 
BRANCH  10  13
ATOM     13  N   UNL d   1      29.210 -13.963   7.846  0.00  0.00    -0.327 N 
ATOM     14  C   UNL d   1      28.742 -12.946   8.671  0.00  0.00     0.221 C 
ATOM     15  O   UNL d   1      28.155 -11.949   8.254  0.00  0.00    -0.273 OA
ATOM     16  H   UNL d   1      29.448 -14.853   8.269  0.00  0.00     0.169 HD
BRANCH  14  17
ATOM     17  C   UNL d   1      28.955 -13.161  10.168  0.00  0.00     0.098 C 
ATOM     18  C   UNL d   1      27.738 -13.858  10.776  0.00  0.00     0.014 C 
ENDBRANCH  14  17
ENDBRANCH  10  13
ENDBRANCH   4   7
ENDBRANCH   1   3
BRANCH   1  19
ATOM     19  C   UNL d   1      28.538 -16.405  -0.645  0.00  0.00     0.193 C 
ATOM     20  S   UNL d   1      29.732 -17.563  -0.947  0.00  0.00    -0.039 SA
BRANCH  19  21
ATOM     21  N   UNL d   1      27.161 -16.564  -0.933  0.00  0.00    -0.298 N 
ATOM     22  C   UNL d   1      26.306 -17.548  -0.385  0.00  0.00     0.258 C 
ATOM     23  O   UNL d   1      26.674 -18.475   0.343  0.00  0.00    -0.267 OA
ATOM     24  H   UNL d   1      26.725 -15.865  -1.518  0.00  0.00     0.171 HD
BRANCH  22  25
ATOM     25  C   UNL d   1      24.844 -17.562  -0.680  0.00  0.00     0.035 A 
ATOM     26  C   UNL d   1      24.190 -16.333  -0.880  0.00  0.00     0.017 A 
ATOM     27  C   UNL d   1      22.793 -16.253  -0.895  0.00  0.00     0.004 A 
ATOM     28  C   UNL d   1      22.030 -17.406  -0.711  0.00  0.00     0.037 A 
ATOM     29  C   UNL d   1      22.665 -18.630  -0.481  0.00  0.00     0.070 A 
ATOM     30  C   UNL d   1      24.071 -18.707  -0.518  0.00  0.00     0.053 A 
BRANCH  29  31
ATOM     31  O   UNL d   1      21.830 -19.673  -0.150  0.00  0.00    -0.346 OA
BRANCH  31  32
ATOM     32  C   UNL d   1      20.506 -19.334   0.296  0.00  0.00     0.124 C 
ATOM     33  C   UNL d   1      19.525 -19.186  -0.881  0.00  0.00     0.040 C 
BRANCH  32  34
ATOM     34  C   UNL d   1      19.997 -20.452   1.226  0.00  0.00     0.027 C 
ATOM     35  C   UNL d   1      18.689 -21.052   0.720  0.00  0.00     0.007 C 
ENDBRANCH  32  34
ENDBRANCH  31  32
ENDBRANCH  29  31
ENDBRANCH  22  25
ENDBRANCH  19  21
ENDBRANCH   1  19
TORSDOF 10
ENDMDL
MODEL 2
REMARK VINA RESULT:    -9.809      6.165     10.126
REMARK INTER + INTRA:         -14.098
REMARK INTER:                 -12.792
REMARK INTRA:                  -1.306
REMARK CONF_INDEPENDENT:        2.983
REMARK UNBOUND:                -1.306
REMARK  10 active torsions:
REMARK  status: ('A' for Active; 'I' for Inactive)
REMARK    1  A    between atoms: C_2  and  C_3 
REMARK       I    between atoms: C_3  and  N_5 
REMARK    2  A    between atoms: N_5  and  C_6 
REMARK    3  A    between atoms: C_9  and  C_10 
REMARK       I    between atoms: C_10  and  N_12 
REMARK    4  A    between atoms: N_12  and  N_13 
REMARK    5  A    between atoms: N_13  and  C_14 
REMARK    6  A    between atoms: C_14  and  N_16 
REMARK       I    between atoms: N_16  and  C_17 
REMARK    7  A    between atoms: C_17  and  C_19 
REMARK    8  A    between atoms: C_23  and  O_24 
REMARK    9  A    between atoms: O_24  and  C_25 
REMARK   10  A    between atoms: C_25  and  C_27 
ROOT
ATOM      1  N   UNL d   1      26.574 -13.960  -2.229  0.00  0.00    -0.273 N 
ATOM      2  H   UNL d   1      27.105 -13.519  -1.480  0.00  0.00     0.189 HD
ENDROOT
BRANCH   1   3
ATOM      3  N   UNL d   1      25.528 -14.871  -1.784  0.00  0.00    -0.264 N 
ATOM      4  C   UNL d   1      25.772 -16.189  -1.420  0.00  0.00     0.270 C 
ATOM      5  O   UNL d   1      26.914 -16.664  -1.439  0.00  0.00    -0.266 OA
ATOM      6  H   UNL d   1      24.595 -14.464  -1.805  0.00  0.00     0.190 HD
BRANCH   4   7
ATOM      7  C   UNL d   1      24.585 -17.063  -1.023  0.00  0.00     0.033 A 
ATOM      8  C   UNL d   1      23.287 -16.508  -1.002  0.00  0.00     0.019 A 
ATOM      9  C   UNL d   1      22.169 -17.235  -0.523  0.00  0.00     0.030 A 
ATOM     10  C   UNL d   1      22.320 -18.549  -0.076  0.00  0.00     0.034 A 
ATOM     11  C   UNL d   1      23.594 -19.122  -0.142  0.00  0.00     0.030 A 
ATOM     12  C   UNL d   1      24.708 -18.398  -0.617  0.00  0.00     0.019 A 
BRANCH  10  13
ATOM     13  N   UNL d   1      21.203 -19.280   0.411  0.00  0.00    -0.327 N 
ATOM     14  C   UNL d   1      20.243 -19.808  -0.445  0.00  0.00     0.221 C 
ATOM     15  O   UNL d   1      20.285 -19.690  -1.669  0.00  0.00    -0.273 OA
ATOM     16  H   UNL d   1      21.242 -19.628   1.362  0.00  0.00     0.169 HD
BRANCH  14  17
ATOM     17  C   UNL d   1      19.129 -20.607   0.228  0.00  0.00     0.098 C 
ATOM     18  C   UNL d   1      18.901 -20.095   1.650  0.00  0.00     0.014 C 
ENDBRANCH  14  17
ENDBRANCH  10  13
ENDBRANCH   4   7
ENDBRANCH   1   3
BRANCH   1  19
ATOM     19  C   UNL d   1      26.739 -13.758  -3.613  0.00  0.00     0.193 C 
ATOM     20  S   UNL d   1      25.497 -13.021  -4.492  0.00  0.00    -0.039 SA
BRANCH  19  21
ATOM     21  N   UNL d   1      27.968 -14.199  -4.160  0.00  0.00    -0.298 N 
ATOM     22  C   UNL d   1      28.140 -14.841  -5.407  0.00  0.00     0.258 C 
ATOM     23  O   UNL d   1      27.220 -15.204  -6.146  0.00  0.00    -0.267 OA
ATOM     24  H   UNL d   1      28.812 -13.963  -3.655  0.00  0.00     0.171 HD
BRANCH  22  25
ATOM     25  C   UNL d   1      29.497 -15.173  -5.933  0.00  0.00     0.035 A 
ATOM     26  C   UNL d   1      30.142 -14.236  -6.758  0.00  0.00     0.017 A 
ATOM     27  C   UNL d   1      31.280 -14.584  -7.493  0.00  0.00     0.004 A 
ATOM     28  C   UNL d   1      31.790 -15.880  -7.410  0.00  0.00     0.037 A 
ATOM     29  C   UNL d   1      31.142 -16.832  -6.618  0.00  0.00     0.070 A 
ATOM     30  C   UNL d   1      30.027 -16.456  -5.843  0.00  0.00     0.053 A 
BRANCH  29  31
ATOM     31  O   UNL d   1      31.623 -18.116  -6.729  0.00  0.00    -0.346 OA
BRANCH  31  32
ATOM     32  C   UNL d   1      30.653 -19.176  -6.775  0.00  0.00     0.124 C 
ATOM     33  C   UNL d   1      30.798 -20.033  -8.045  0.00  0.00     0.040 C 
BRANCH  32  34
ATOM     34  C   UNL d   1      30.853 -20.080  -5.543  0.00  0.00     0.027 C 
ATOM     35  C   UNL d   1      32.101 -19.691  -4.758  0.00  0.00     0.007 C 
ENDBRANCH  32  34
ENDBRANCH  31  32
ENDBRANCH  29  31
ENDBRANCH  22  25
ENDBRANCH  19  21
ENDBRANCH   1  19
TORSDOF 10
ENDMDL
MODEL 3
REMARK VINA RESULT:    -9.414      6.524     10.173
REMARK INTER + INTRA:         -13.957
REMARK INTER:                 -12.397
REMARK INTRA:                  -1.560
REMARK CONF_INDEPENDENT:        2.983
REMARK UNBOUND:                -1.560
REMARK  10 active torsions:
REMARK  status: ('A' for Active; 'I' for Inactive)
REMARK    1  A    between atoms: C_2  and  C_3 
REMARK       I    between atoms: C_3  and  N_5 
REMARK    2  A    between atoms: N_5  and  C_6 
REMARK    3  A    between atoms: C_9  and  C_10 
REMARK       I    between atoms: C_10  and  N_12 
REMARK    4  A    between atoms: N_12  and  N_13 
REMARK    5  A    between atoms: N_13  and  C_14 
REMARK    6  A    between atoms: C_14  and  N_16 
REMARK       I    between atoms: N_16  and  C_17 
REMARK    7  A    between atoms: C_17  and  C_19 
REMARK    8  A    between atoms: C_23  and  O_24 
REMARK    9  A    between atoms: O_24  and  C_25 
REMARK   10  A    between atoms: C_25  and  C_27 
ROOT
ATOM      1  N   UNL d   1      26.047 -14.378  -3.913  0.00  0.00    -0.273 N 
ATOM      2  H   UNL d   1      25.740 -14.243  -4.875  0.00  0.00     0.189 HD
ENDROOT
BRANCH   1   3
ATOM      3  N   UNL d   1      25.113 -15.112  -3.070  0.00  0.00    -0.264 N 
ATOM      4  C   UNL d   1      25.509 -16.101  -2.179  0.00  0.00     0.270 C 
ATOM      5  O   UNL d   1      26.700 -16.406  -2.039  0.00  0.00    -0.266 OA
ATOM      6  H   UNL d   1      24.138 -14.863  -3.227  0.00  0.00     0.190 HD
BRANCH   4   7
ATOM      7  C   UNL d   1      24.431 -16.839  -1.389  0.00  0.00     0.033 A 
ATOM      8  C   UNL d   1      24.688 -18.140  -0.906  0.00  0.00     0.019 A 
ATOM      9  C   UNL d   1      23.684 -18.917  -0.276  0.00  0.00     0.030 A 
ATOM     10  C   UNL d   1      22.402 -18.398  -0.090  0.00  0.00     0.034 A 
ATOM     11  C   UNL d   1      22.155 -17.090  -0.520  0.00  0.00     0.030 A 
ATOM     12  C   UNL d   1      23.153 -16.317  -1.149  0.00  0.00     0.019 A 
BRANCH  10  13
ATOM     13  N   UNL d   1      21.391 -19.175   0.536  0.00  0.00    -0.327 N 
ATOM     14  C   UNL d   1      20.375 -19.782  -0.194  0.00  0.00     0.221 C 
ATOM     15  O   UNL d   1      20.276 -19.701  -1.417  0.00  0.00    -0.273 OA
ATOM     16  H   UNL d   1      21.554 -19.490   1.486  0.00  0.00     0.169 HD
BRANCH  14  17
ATOM     17  C   UNL d   1      19.391 -20.621   0.619  0.00  0.00     0.098 C 
ATOM     18  C   UNL d   1      19.287 -20.075   2.043  0.00  0.00     0.014 C 
ENDBRANCH  14  17
ENDBRANCH  10  13
ENDBRANCH   4   7
ENDBRANCH   1   3
BRANCH   1  19
ATOM     19  C   UNL d   1      27.265 -13.953  -3.348  0.00  0.00     0.193 C 
ATOM     20  S   UNL d   1      27.237 -12.923  -2.007  0.00  0.00    -0.039 SA
BRANCH  19  21
ATOM     21  N   UNL d   1      28.439 -14.444  -3.969  0.00  0.00    -0.298 N 
ATOM     22  C   UNL d   1      28.525 -14.986  -5.272  0.00  0.00     0.258 C 
ATOM     23  O   UNL d   1      27.560 -15.206  -6.009  0.00  0.00    -0.267 OA
ATOM     24  H   UNL d   1      29.312 -14.322  -3.473  0.00  0.00     0.171 HD
BRANCH  22  25
ATOM     25  C   UNL d   1      29.835 -15.380  -5.867  0.00  0.00     0.035 A 
ATOM     26  C   UNL d   1      30.809 -14.385  -6.060  0.00  0.00     0.017 A 
ATOM     27  C   UNL d   1      31.942 -14.625  -6.845  0.00  0.00     0.004 A 
ATOM     28  C   UNL d   1      32.115 -15.870  -7.449  0.00  0.00     0.037 A 
ATOM     29  C   UNL d   1      31.141 -16.861  -7.292  0.00  0.00     0.070 A 
ATOM     30  C   UNL d   1      30.031 -16.624  -6.458  0.00  0.00     0.053 A 
BRANCH  29  31
ATOM     31  O   UNL d   1      31.322 -17.990  -8.057  0.00  0.00    -0.346 OA
BRANCH  31  32
ATOM     32  C   UNL d   1      30.872 -19.237  -7.498  0.00  0.00     0.124 C 
ATOM     33  C   UNL d   1      31.423 -20.445  -8.274  0.00  0.00     0.040 C 
BRANCH  32  34
ATOM     34  C   UNL d   1      31.357 -19.325  -6.038  0.00  0.00     0.027 C 
ATOM     35  C   UNL d   1      30.658 -20.450  -5.281  0.00  0.00     0.007 C 
ENDBRANCH  32  34
ENDBRANCH  31  32
ENDBRANCH  29  31
ENDBRANCH  22  25
ENDBRANCH  19  21
ENDBRANCH   1  19
TORSDOF 10
ENDMDL
MODEL 4
REMARK VINA RESULT:    -9.330      2.405      9.793
REMARK INTER + INTRA:         -13.870
REMARK INTER:                 -12.313
REMARK INTRA:                  -1.557
REMARK CONF_INDEPENDENT:        2.983
REMARK UNBOUND:                -1.557
REMARK  10 active torsions:
REMARK  status: ('A' for Active; 'I' for Inactive)
REMARK    1  A    between atoms: C_2  and  C_3 
REMARK       I    between atoms: C_3  and  N_5 
REMARK    2  A    between atoms: N_5  and  C_6 
REMARK    3  A    between atoms: C_9  and  C_10 
REMARK       I    between atoms: C_10  and  N_12 
REMARK    4  A    between atoms: N_12  and  N_13 
REMARK    5  A    between atoms: N_13  and  C_14 
REMARK    6  A    between atoms: C_14  and  N_16 
REMARK       I    between atoms: N_16  and  C_17 
REMARK    7  A    between atoms: C_17  and  C_19 
REMARK    8  A    between atoms: C_23  and  O_24 
REMARK    9  A    between atoms: O_24  and  C_25 
REMARK   10  A    between atoms: C_25  and  C_27 
ROOT
ATOM      1  N   UNL d   1      28.182 -15.645  -1.035  0.00  0.00    -0.273 N 
ATOM      2  H   UNL d   1      28.102 -14.988  -1.810  0.00  0.00     0.189 HD
ENDROOT
BRANCH   1   3
ATOM      3  N   UNL d   1      26.989 -16.440  -0.781  0.00  0.00    -0.264 N 
ATOM      4  C   UNL d   1      25.770 -16.203  -1.402  0.00  0.00     0.270 C 
ATOM      5  O   UNL d   1      25.633 -15.297  -2.233  0.00  0.00    -0.266 OA
ATOM      6  H   UNL d   1      27.121 -17.160  -0.072  0.00  0.00     0.190 HD
BRANCH   4   7
ATOM      7  C   UNL d   1      24.577 -17.072  -1.012  0.00  0.00     0.033 A 
ATOM      8  C   UNL d   1      23.282 -16.510  -0.991  0.00  0.00     0.019 A 
ATOM      9  C   UNL d   1      22.159 -17.233  -0.519  0.00  0.00     0.030 A 
ATOM     10  C   UNL d   1      22.301 -18.550  -0.080  0.00  0.00     0.034 A 
ATOM     11  C   UNL d   1      23.571 -19.130  -0.145  0.00  0.00     0.030 A 
ATOM     12  C   UNL d   1      24.691 -18.410  -0.613  0.00  0.00     0.019 A 
BRANCH  10  13
ATOM     13  N   UNL d   1      21.178 -19.277   0.400  0.00  0.00    -0.327 N 
ATOM     14  C   UNL d   1      20.226 -19.809  -0.462  0.00  0.00     0.221 C 
ATOM     15  O   UNL d   1      20.280 -19.699  -1.686  0.00  0.00    -0.273 OA
ATOM     16  H   UNL d   1      21.206 -19.620   1.354  0.00  0.00     0.169 HD
BRANCH  14  17
ATOM     17  C   UNL d   1      19.104 -20.603   0.204  0.00  0.00     0.098 C 
ATOM     18  C   UNL d   1      19.164 -20.424   1.721  0.00  0.00     0.014 C 
ENDBRANCH  14  17
ENDBRANCH  10  13
ENDBRANCH   4   7
ENDBRANCH   1   3
BRANCH   1  19
ATOM     19  C   UNL d   1      29.315 -15.862  -0.227  0.00  0.00     0.193 C 
ATOM     20  S   UNL d   1      30.593 -16.789  -0.830  0.00  0.00    -0.039 SA
BRANCH  19  21
ATOM     21  N   UNL d   1      29.283 -15.262   1.055  0.00  0.00    -0.298 N 
ATOM     22  C   UNL d   1      28.290 -14.377   1.534  0.00  0.00     0.258 C 
ATOM     23  O   UNL d   1      27.366 -13.919   0.854  0.00  0.00    -0.267 OA
ATOM     24  H   UNL d   1      29.985 -15.554   1.722  0.00  0.00     0.171 HD
BRANCH  22  25
ATOM     25  C   UNL d   1      28.299 -13.883   2.942  0.00  0.00     0.035 A 
ATOM     26  C   UNL d   1      28.252 -14.827   3.983  0.00  0.00     0.017 A 
ATOM     27  C   UNL d   1      27.991 -14.436   5.301  0.00  0.00     0.004 A 
ATOM     28  C   UNL d   1      27.775 -13.090   5.596  0.00  0.00     0.037 A 
ATOM     29  C   UNL d   1      27.788 -12.143   4.567  0.00  0.00     0.070 A 
ATOM     30  C   UNL d   1      28.102 -12.542   3.253  0.00  0.00     0.053 A 
BRANCH  29  31
ATOM     31  O   UNL d   1      27.403 -10.873   4.932  0.00  0.00    -0.346 OA
BRANCH  31  32
ATOM     32  C   UNL d   1      27.636  -9.821   3.980  0.00  0.00     0.124 C 
ATOM     33  C   UNL d   1      26.341  -9.398   3.264  0.00  0.00     0.040 C 
BRANCH  32  34
ATOM     34  C   UNL d   1      28.210  -8.601   4.725  0.00  0.00     0.027 C 
ATOM     35  C   UNL d   1      29.405  -8.984   5.593  0.00  0.00     0.007 C 
ENDBRANCH  32  34
ENDBRANCH  31  32
ENDBRANCH  29  31
ENDBRANCH  22  25
ENDBRANCH  19  21
ENDBRANCH   1  19
TORSDOF 10
ENDMDL
MODEL 5
REMARK VINA RESULT:    -9.292      6.666     10.771
REMARK INTER + INTRA:         -13.717
REMARK INTER:                 -12.275
REMARK INTRA:                  -1.442
REMARK CONF_INDEPENDENT:        2.983
REMARK UNBOUND:                -1.442
REMARK  10 active torsions:
REMARK  status: ('A' for Active; 'I' for Inactive)
REMARK    1  A    between atoms: C_2  and  C_3 
REMARK       I    between atoms: C_3  and  N_5 
REMARK    2  A    between atoms: N_5  and  C_6 
REMARK    3  A    between atoms: C_9  and  C_10 
REMARK       I    between atoms: C_10  and  N_12 
REMARK    4  A    between atoms: N_12  and  N_13 
REMARK    5  A    between atoms: N_13  and  C_14 
REMARK    6  A    between atoms: C_14  and  N_16 
REMARK       I    between atoms: N_16  and  C_17 
REMARK    7  A    between atoms: C_17  and  C_19 
REMARK    8  A    between atoms: C_23  and  O_24 
REMARK    9  A    between atoms: O_24  and  C_25 
REMARK   10  A    between atoms: C_25  and  C_27 
ROOT
ATOM      1  N   UNL d   1      26.109 -13.684  -2.650  0.00  0.00    -0.273 N 
ATOM      2  H   UNL d   1      26.753 -13.309  -1.956  0.00  0.00     0.189 HD
ENDROOT
BRANCH   1   3
ATOM      3  N   UNL d   1      25.158 -14.661  -2.138  0.00  0.00    -0.264 N 
ATOM      4  C   UNL d   1      25.541 -15.865  -1.561  0.00  0.00     0.270 C 
ATOM      5  O   UNL d   1      26.733 -16.170  -1.433  0.00  0.00    -0.266 OA
ATOM      6  H   UNL d   1      24.185 -14.399  -2.282  0.00  0.00     0.190 HD
BRANCH   4   7
ATOM      7  C   UNL d   1      24.450 -16.833  -1.110  0.00  0.00     0.033 A 
ATOM      8  C   UNL d   1      23.109 -16.396  -1.058  0.00  0.00     0.019 A 
ATOM      9  C   UNL d   1      22.076 -17.210  -0.531  0.00  0.00     0.030 A 
ATOM     10  C   UNL d   1      22.357 -18.495  -0.066  0.00  0.00     0.034 A 
ATOM     11  C   UNL d   1      23.674 -18.954  -0.162  0.00  0.00     0.030 A 
ATOM     12  C   UNL d   1      24.704 -18.143  -0.684  0.00  0.00     0.019 A 
BRANCH  10  13
ATOM     13  N   UNL d   1      21.325 -19.313   0.469  0.00  0.00    -0.327 N 
ATOM     14  C   UNL d   1      20.335 -19.865  -0.336  0.00  0.00     0.221 C 
ATOM     15  O   UNL d   1      20.277 -19.696  -1.553  0.00  0.00    -0.273 OA
ATOM     16  H   UNL d   1      21.457 -19.695   1.399  0.00  0.00     0.169 HD
BRANCH  14  17
ATOM     17  C   UNL d   1      19.325 -20.758   0.381  0.00  0.00     0.098 C 
ATOM     18  C   UNL d   1      19.288 -20.417   1.871  0.00  0.00     0.014 C 
ENDBRANCH  14  17
ENDBRANCH  10  13
ENDBRANCH   4   7
ENDBRANCH   1   3
BRANCH   1  19
ATOM     19  C   UNL d   1      26.041 -13.338  -4.014  0.00  0.00     0.193 C 
ATOM     20  S   UNL d   1      26.383 -14.513  -5.181  0.00  0.00    -0.039 SA
BRANCH  19  21
ATOM     21  N   UNL d   1      25.679 -11.998  -4.294  0.00  0.00    -0.298 N 
ATOM     22  C   UNL d   1      26.062 -10.861  -3.547  0.00  0.00     0.258 C 
ATOM     23  O   UNL d   1      26.681 -10.894  -2.479  0.00  0.00    -0.267 OA
ATOM     24  H   UNL d   1      25.170 -11.824  -5.149  0.00  0.00     0.171 HD
BRANCH  22  25
ATOM     25  C   UNL d   1      25.707  -9.481  -3.991  0.00  0.00     0.035 A 
ATOM     26  C   UNL d   1      26.047  -8.402  -3.156  0.00  0.00     0.017 A 
ATOM     27  C   UNL d   1      25.517  -7.125  -3.375  0.00  0.00     0.004 A 
ATOM     28  C   UNL d   1      24.638  -6.911  -4.436  0.00  0.00     0.037 A 
ATOM     29  C   UNL d   1      24.266  -7.981  -5.257  0.00  0.00     0.070 A 
ATOM     30  C   UNL d   1      24.846  -9.249  -5.058  0.00  0.00     0.053 A 
BRANCH  29  31
ATOM     31  O   UNL d   1      23.274  -7.705  -6.169  0.00  0.00    -0.346 OA
BRANCH  31  32
ATOM     32  C   UNL d   1      22.942  -6.321  -6.375  0.00  0.00     0.124 C 
ATOM     33  C   UNL d   1      22.718  -6.000  -7.863  0.00  0.00     0.040 C 
BRANCH  32  34
ATOM     34  C   UNL d   1      21.647  -6.005  -5.602  0.00  0.00     0.027 C 
ATOM     35  C   UNL d   1      20.458  -5.837  -6.542  0.00  0.00     0.007 C 
ENDBRANCH  32  34
ENDBRANCH  31  32
ENDBRANCH  29  31
ENDBRANCH  22  25
ENDBRANCH  19  21
ENDBRANCH   1  19
TORSDOF 10
ENDMDL
MODEL 6
REMARK VINA RESULT:    -9.267      1.931      9.829
REMARK INTER + INTRA:         -14.090
REMARK INTER:                 -12.250
REMARK INTRA:                  -1.841
REMARK CONF_INDEPENDENT:        2.983
REMARK UNBOUND:                -1.841
REMARK  10 active torsions:
REMARK  status: ('A' for Active; 'I' for Inactive)
REMARK    1  A    between atoms: C_2  and  C_3 
REMARK       I    between atoms: C_3  and  N_5 
REMARK    2  A    between atoms: N_5  and  C_6 
REMARK    3  A    between atoms: C_9  and  C_10 
REMARK       I    between atoms: C_10  and  N_12 
REMARK    4  A    between atoms: N_12  and  N_13 
REMARK    5  A    between atoms: N_13  and  C_14 
REMARK    6  A    between atoms: C_14  and  N_16 
REMARK       I    between atoms: N_16  and  C_17 
REMARK    7  A    between atoms: C_17  and  C_19 
REMARK    8  A    between atoms: C_23  and  O_24 
REMARK    9  A    between atoms: O_24  and  C_25 
REMARK   10  A    between atoms: C_25  and  C_27 
ROOT
ATOM      1  N   UNL d   1      28.526 -15.304  -0.406  0.00  0.00    -0.273 N 
ATOM      2  H   UNL d   1      28.553 -14.721  -1.241  0.00  0.00     0.189 HD
ENDROOT
BRANCH   1   3
ATOM      3  N   UNL d   1      27.295 -16.060  -0.227  0.00  0.00    -0.264 N 
ATOM      4  C   UNL d   1      26.351 -16.227  -1.232  0.00  0.00     0.270 C 
ATOM      5  O   UNL d   1      26.517 -15.746  -2.360  0.00  0.00    -0.266 OA
ATOM      6  H   UNL d   1      27.169 -16.420   0.718  0.00  0.00     0.190 HD
BRANCH   4   7
ATOM      7  C   UNL d   1      25.073 -16.996  -0.907  0.00  0.00     0.033 A 
ATOM      8  C   UNL d   1      23.831 -16.327  -0.932  0.00  0.00     0.019 A 
ATOM      9  C   UNL d   1      22.631 -16.958  -0.520  0.00  0.00     0.030 A 
ATOM     10  C   UNL d   1      22.643 -18.288  -0.096  0.00  0.00     0.034 A 
ATOM     11  C   UNL d   1      23.861 -18.973  -0.117  0.00  0.00     0.030 A 
ATOM     12  C   UNL d   1      25.057 -18.344  -0.526  0.00  0.00     0.019 A 
BRANCH  10  13
ATOM     13  N   UNL d   1      21.443 -18.924   0.324  0.00  0.00    -0.327 N 
ATOM     14  C   UNL d   1      20.510 -19.405  -0.587  0.00  0.00     0.221 C 
ATOM     15  O   UNL d   1      20.649 -19.326  -1.807  0.00  0.00    -0.273 OA
ATOM     16  H   UNL d   1      21.388 -19.246   1.284  0.00  0.00     0.169 HD
BRANCH  14  17
ATOM     17  C   UNL d   1      19.296 -20.104   0.020  0.00  0.00     0.098 C 
ATOM     18  C   UNL d   1      19.441 -20.183   1.539  0.00  0.00     0.014 C 
ENDBRANCH  14  17
ENDBRANCH  10  13
ENDBRANCH   4   7
ENDBRANCH   1   3
BRANCH   1  19
ATOM     19  C   UNL d   1      29.549 -15.457   0.550  0.00  0.00     0.193 C 
ATOM     20  S   UNL d   1      30.916 -16.370   0.155  0.00  0.00    -0.039 SA
BRANCH  19  21
ATOM     21  N   UNL d   1      29.337 -14.810   1.791  0.00  0.00    -0.298 N 
ATOM     22  C   UNL d   1      28.089 -14.391   2.307  0.00  0.00     0.258 C 
ATOM     23  O   UNL d   1      27.020 -14.436   1.691  0.00  0.00    -0.267 OA
ATOM     24  H   UNL d   1      30.133 -14.711   2.406  0.00  0.00     0.171 HD
BRANCH  22  25
ATOM     25  C   UNL d   1      27.966 -13.809   3.676  0.00  0.00     0.035 A 
ATOM     26  C   UNL d   1      27.807 -12.418   3.799  0.00  0.00     0.017 A 
ATOM     27  C   UNL d   1      27.952 -11.781   5.036  0.00  0.00     0.004 A 
ATOM     28  C   UNL d   1      28.259 -12.532   6.171  0.00  0.00     0.037 A 
ATOM     29  C   UNL d   1      28.451 -13.913   6.060  0.00  0.00     0.070 A 
ATOM     30  C   UNL d   1      28.252 -14.549   4.819  0.00  0.00     0.053 A 
BRANCH  29  31
ATOM     31  O   UNL d   1      28.908 -14.536   7.197  0.00  0.00    -0.346 OA
BRANCH  31  32
ATOM     32  C   UNL d   1      29.553 -13.710   8.182  0.00  0.00     0.124 C 
ATOM     33  C   UNL d   1      28.624 -13.403   9.370  0.00  0.00     0.040 C 
BRANCH  32  34
ATOM     34  C   UNL d   1      30.799 -14.449   8.706  0.00  0.00     0.027 C 
ATOM     35  C   UNL d   1      30.623 -14.886  10.158  0.00  0.00     0.007 C 
ENDBRANCH  32  34
ENDBRANCH  31  32
ENDBRANCH  29  31
ENDBRANCH  22  25
ENDBRANCH  19  21
ENDBRANCH   1  19
TORSDOF 10
ENDMDL
MODEL 7
REMARK VINA RESULT:    -9.086      2.455      9.939
REMARK INTER + INTRA:         -14.226
REMARK INTER:                 -12.069
REMARK INTRA:                  -2.158
REMARK CONF_INDEPENDENT:        2.983
REMARK UNBOUND:                -2.158
REMARK  10 active torsions:
REMARK  status: ('A' for Active; 'I' for Inactive)
REMARK    1  A    between atoms: C_2  and  C_3 
REMARK       I    between atoms: C_3  and  N_5 
REMARK    2  A    between atoms: N_5  and  C_6 
REMARK    3  A    between atoms: C_9  and  C_10 
REMARK       I    between atoms: C_10  and  N_12 
REMARK    4  A    between atoms: N_12  and  N_13 
REMARK    5  A    between atoms: N_13  and  C_14 
REMARK    6  A    between atoms: C_14  and  N_16 
REMARK       I    between atoms: N_16  and  C_17 
REMARK    7  A    between atoms: C_17  and  C_19 
REMARK    8  A    between atoms: C_23  and  O_24 
REMARK    9  A    between atoms: O_24  and  C_25 
REMARK   10  A    between atoms: C_25  and  C_27 
ROOT
ATOM      1  N   UNL d   1      27.301 -13.972  -1.470  0.00  0.00    -0.273 N 
ATOM      2  H   UNL d   1      27.764 -14.297  -2.317  0.00  0.00     0.189 HD
ENDROOT
BRANCH   1   3
ATOM      3  N   UNL d   1      26.266 -14.859  -0.958  0.00  0.00    -0.264 N 
ATOM      4  C   UNL d   1      25.603 -15.789  -1.748  0.00  0.00     0.270 C 
ATOM      5  O   UNL d   1      25.872 -15.929  -2.947  0.00  0.00    -0.266 OA
ATOM      6  H   UNL d   1      26.042 -14.704   0.023  0.00  0.00     0.190 HD
BRANCH   4   7
ATOM      7  C   UNL d   1      24.497 -16.626  -1.109  0.00  0.00     0.033 A 
ATOM      8  C   UNL d   1      24.800 -17.904  -0.592  0.00  0.00     0.019 A 
ATOM      9  C   UNL d   1      23.794 -18.773  -0.102  0.00  0.00     0.030 A 
ATOM     10  C   UNL d   1      22.458 -18.371  -0.093  0.00  0.00     0.034 A 
ATOM     11  C   UNL d   1      22.156 -17.086  -0.556  0.00  0.00     0.030 A 
ATOM     12  C   UNL d   1      23.158 -16.222  -1.047  0.00  0.00     0.019 A 
BRANCH  10  13
ATOM     13  N   UNL d   1      21.444 -19.240   0.392  0.00  0.00    -0.327 N 
ATOM     14  C   UNL d   1      20.427 -19.712  -0.430  0.00  0.00     0.221 C 
ATOM     15  O   UNL d   1      20.328 -19.424  -1.622  0.00  0.00    -0.273 OA
ATOM     16  H   UNL d   1      21.606 -19.713   1.274  0.00  0.00     0.169 HD
BRANCH  14  17
ATOM     17  C   UNL d   1      19.440 -20.674   0.229  0.00  0.00     0.098 C 
ATOM     18  C   UNL d   1      19.114 -20.203   1.646  0.00  0.00     0.014 C 
ENDBRANCH  14  17
ENDBRANCH  10  13
ENDBRANCH   4   7
ENDBRANCH   1   3
BRANCH   1  19
ATOM     19  C   UNL d   1      27.578 -12.788  -0.758  0.00  0.00     0.193 C 
ATOM     20  S   UNL d   1      27.408 -11.298  -1.539  0.00  0.00    -0.039 SA
BRANCH  19  21
ATOM     21  N   UNL d   1      27.982 -12.957   0.588  0.00  0.00    -0.298 N 
ATOM     22  C   UNL d   1      27.133 -13.253   1.679  0.00  0.00     0.258 C 
ATOM     23  O   UNL d   1      25.900 -13.296   1.623  0.00  0.00    -0.267 OA
ATOM     24  H   UNL d   1      28.974 -12.950   0.779  0.00  0.00     0.171 HD
BRANCH  22  25
ATOM     25  C   UNL d   1      27.679 -13.512   3.044  0.00  0.00     0.035 A 
ATOM     26  C   UNL d   1      28.021 -14.832   3.387  0.00  0.00     0.017 A 
ATOM     27  C   UNL d   1      28.282 -15.188   4.715  0.00  0.00     0.004 A 
ATOM     28  C   UNL d   1      28.205 -14.223   5.720  0.00  0.00     0.037 A 
ATOM     29  C   UNL d   1      27.836 -12.913   5.399  0.00  0.00     0.070 A 
ATOM     30  C   UNL d   1      27.626 -12.556   4.052  0.00  0.00     0.053 A 
BRANCH  29  31
ATOM     31  O   UNL d   1      27.629 -12.080   6.474  0.00  0.00    -0.346 OA
BRANCH  31  32
ATOM     32  C   UNL d   1      28.785 -11.428   7.027  0.00  0.00     0.124 C 
ATOM     33  C   UNL d   1      29.080 -10.090   6.326  0.00  0.00     0.040 C 
BRANCH  32  34
ATOM     34  C   UNL d   1      28.529 -11.157   8.522  0.00  0.00     0.027 C 
ATOM     35  C   UNL d   1      28.620 -12.436   9.349  0.00  0.00     0.007 C 
ENDBRANCH  32  34
ENDBRANCH  31  32
ENDBRANCH  29  31
ENDBRANCH  22  25
ENDBRANCH  19  21
ENDBRANCH   1  19
TORSDOF 10
ENDMDL
MODEL 8
REMARK VINA RESULT:    -8.869      5.247      8.844
REMARK INTER + INTRA:         -14.253
REMARK INTER:                 -11.852
REMARK INTRA:                  -2.401
REMARK CONF_INDEPENDENT:        2.983
REMARK UNBOUND:                -2.401
REMARK  10 active torsions:
REMARK  status: ('A' for Active; 'I' for Inactive)
REMARK    1  A    between atoms: C_2  and  C_3 
REMARK       I    between atoms: C_3  and  N_5 
REMARK    2  A    between atoms: N_5  and  C_6 
REMARK    3  A    between atoms: C_9  and  C_10 
REMARK       I    between atoms: C_10  and  N_12 
REMARK    4  A    between atoms: N_12  and  N_13 
REMARK    5  A    between atoms: N_13  and  C_14 
REMARK    6  A    between atoms: C_14  and  N_16 
REMARK       I    between atoms: N_16  and  C_17 
REMARK    7  A    between atoms: C_17  and  C_19 
REMARK    8  A    between atoms: C_23  and  O_24 
REMARK    9  A    between atoms: O_24  and  C_25 
REMARK   10  A    between atoms: C_25  and  C_27 
ROOT
ATOM      1  N   UNL d   1      30.006 -16.760   0.114  0.00  0.00    -0.273 N 
ATOM      2  H   UNL d   1      30.284 -16.284   0.969  0.00  0.00     0.189 HD
ENDROOT
BRANCH   1   3
ATOM      3  N   UNL d   1      28.613 -17.181   0.072  0.00  0.00    -0.264 N 
ATOM      4  C   UNL d   1      27.615 -16.445  -0.552  0.00  0.00     0.270 C 
ATOM      5  O   UNL d   1      27.862 -15.380  -1.131  0.00  0.00    -0.266 OA
ATOM      6  H   UNL d   1      28.431 -18.045   0.581  0.00  0.00     0.190 HD
BRANCH   4   7
ATOM      7  C   UNL d   1      26.180 -16.963  -0.482  0.00  0.00     0.033 A 
ATOM      8  C   UNL d   1      25.142 -16.226  -1.092  0.00  0.00     0.019 A 
ATOM      9  C   UNL d   1      23.781 -16.593  -0.952  0.00  0.00     0.030 A 
ATOM     10  C   UNL d   1      23.427 -17.726  -0.218  0.00  0.00     0.034 A 
ATOM     11  C   UNL d   1      24.453 -18.490   0.346  0.00  0.00     0.030 A 
ATOM     12  C   UNL d   1      25.809 -18.123   0.210  0.00  0.00     0.019 A 
BRANCH  10  13
ATOM     13  N   UNL d   1      22.062 -18.095  -0.070  0.00  0.00    -0.327 N 
ATOM     14  C   UNL d   1      21.411 -18.886  -1.010  0.00  0.00     0.221 C 
ATOM     15  O   UNL d   1      21.954 -19.325  -2.022  0.00  0.00    -0.273 OA
ATOM     16  H   UNL d   1      21.638 -17.988   0.844  0.00  0.00     0.169 HD
BRANCH  14  17
ATOM     17  C   UNL d   1      19.959 -19.234  -0.685  0.00  0.00     0.098 C 
ATOM     18  C   UNL d   1      19.861 -19.807   0.728  0.00  0.00     0.014 C 
ENDBRANCH  14  17
ENDBRANCH  10  13
ENDBRANCH   4   7
ENDBRANCH   1   3
BRANCH   1  19
ATOM     19  C   UNL d   1      30.817 -17.022  -1.009  0.00  0.00     0.193 C 
ATOM     20  S   UNL d   1      32.163 -18.030  -0.836  0.00  0.00    -0.039 SA
BRANCH  19  21
ATOM     21  N   UNL d   1      30.418 -16.402  -2.217  0.00  0.00    -0.298 N 
ATOM     22  C   UNL d   1      30.853 -16.753  -3.515  0.00  0.00     0.258 C 
ATOM     23  O   UNL d   1      31.732 -17.584  -3.763  0.00  0.00    -0.267 OA
ATOM     24  H   UNL d   1      29.693 -15.699  -2.161  0.00  0.00     0.171 HD
BRANCH  22  25
ATOM     25  C   UNL d   1      30.288 -16.098  -4.731  0.00  0.00     0.035 A 
ATOM     26  C   UNL d   1      31.127 -15.267  -5.494  0.00  0.00     0.017 A 
ATOM     27  C   UNL d   1      30.604 -14.421  -6.478  0.00  0.00     0.004 A 
ATOM     28  C   UNL d   1      29.230 -14.398  -6.714  0.00  0.00     0.037 A 
ATOM     29  C   UNL d   1      28.379 -15.196  -5.943  0.00  0.00     0.070 A 
ATOM     30  C   UNL d   1      28.922 -16.080  -4.991  0.00  0.00     0.053 A 
BRANCH  29  31
ATOM     31  O   UNL d   1      27.034 -14.982  -6.139  0.00  0.00    -0.346 OA
BRANCH  31  32
ATOM     32  C   UNL d   1      26.286 -14.466  -5.025  0.00  0.00     0.124 C 
ATOM     33  C   UNL d   1      26.009 -15.549  -3.968  0.00  0.00     0.040 C 
BRANCH  32  34
ATOM     34  C   UNL d   1      27.097 -13.331  -4.370  0.00  0.00     0.027 C 
ATOM     35  C   UNL d   1      26.511 -11.961  -4.697  0.00  0.00     0.007 C 
ENDBRANCH  32  34
ENDBRANCH  31  32
ENDBRANCH  29  31
ENDBRANCH  22  25
ENDBRANCH  19  21
ENDBRANCH   1  19
TORSDOF 10
ENDMDL
MODEL 9
REMARK VINA RESULT:    -8.843      4.905      8.352
REMARK INTER + INTRA:         -14.535
REMARK INTER:                 -11.826
REMARK INTRA:                  -2.709
REMARK CONF_INDEPENDENT:        2.983
REMARK UNBOUND:                -2.709
REMARK  10 active torsions:
REMARK  status: ('A' for Active; 'I' for Inactive)
REMARK    1  A    between atoms: C_2  and  C_3 
REMARK       I    between atoms: C_3  and  N_5 
REMARK    2  A    between atoms: N_5  and  C_6 
REMARK    3  A    between atoms: C_9  and  C_10 
REMARK       I    between atoms: C_10  and  N_12 
REMARK    4  A    between atoms: N_12  and  N_13 
REMARK    5  A    between atoms: N_13  and  C_14 
REMARK    6  A    between atoms: C_14  and  N_16 
REMARK       I    between atoms: N_16  and  C_17 
REMARK    7  A    between atoms: C_17  and  C_19 
REMARK    8  A    between atoms: C_23  and  O_24 
REMARK    9  A    between atoms: O_24  and  C_25 
REMARK   10  A    between atoms: C_25  and  C_27 
ROOT
ATOM      1  N   UNL d   1      30.173 -16.489   0.379  0.00  0.00    -0.273 N 
ATOM      2  H   UNL d   1      30.579 -16.644   1.300  0.00  0.00     0.189 HD
ENDROOT
BRANCH   1   3
ATOM      3  N   UNL d   1      28.796 -16.939   0.233  0.00  0.00    -0.264 N 
ATOM      4  C   UNL d   1      27.742 -16.081  -0.051  0.00  0.00     0.270 C 
ATOM      5  O   UNL d   1      27.922 -14.868  -0.215  0.00  0.00    -0.266 OA
ATOM      6  H   UNL d   1      28.671 -17.936   0.402  0.00  0.00     0.190 HD
BRANCH   4   7
ATOM      7  C   UNL d   1      26.333 -16.664  -0.127  0.00  0.00     0.033 A 
ATOM      8  C   UNL d   1      25.338 -15.990  -0.867  0.00  0.00     0.019 A 
ATOM      9  C   UNL d   1      23.987 -16.417  -0.870  0.00  0.00     0.030 A 
ATOM     10  C   UNL d   1      23.603 -17.548  -0.149  0.00  0.00     0.034 A 
ATOM     11  C   UNL d   1      24.592 -18.251   0.545  0.00  0.00     0.030 A 
ATOM     12  C   UNL d   1      25.938 -17.825   0.550  0.00  0.00     0.019 A 
BRANCH  10  13
ATOM     13  N   UNL d   1      22.248 -17.977  -0.144  0.00  0.00    -0.327 N 
ATOM     14  C   UNL d   1      21.753 -18.855  -1.102  0.00  0.00     0.221 C 
ATOM     15  O   UNL d   1      22.437 -19.325  -2.011  0.00  0.00    -0.273 OA
ATOM     16  H   UNL d   1      21.709 -17.838   0.703  0.00  0.00     0.169 HD
BRANCH  14  17
ATOM     17  C   UNL d   1      20.289 -19.257  -0.934  0.00  0.00     0.098 C 
ATOM     18  C   UNL d   1      20.030 -19.701   0.506  0.00  0.00     0.014 C 
ENDBRANCH  14  17
ENDBRANCH  10  13
ENDBRANCH   4   7
ENDBRANCH   1   3
BRANCH   1  19
ATOM     19  C   UNL d   1      30.797 -15.877  -0.726  0.00  0.00     0.193 C 
ATOM     20  S   UNL d   1      32.471 -15.644  -0.703  0.00  0.00    -0.039 SA
BRANCH  19  21
ATOM     21  N   UNL d   1      29.941 -15.505  -1.790  0.00  0.00    -0.298 N 
ATOM     22  C   UNL d   1      29.705 -16.251  -2.967  0.00  0.00     0.258 C 
ATOM     23  O   UNL d   1      30.302 -17.286  -3.277  0.00  0.00    -0.267 OA
ATOM     24  H   UNL d   1      29.382 -14.671  -1.666  0.00  0.00     0.171 HD
BRANCH  22  25
ATOM     25  C   UNL d   1      28.702 -15.812  -3.981  0.00  0.00     0.035 A 
ATOM     26  C   UNL d   1      29.165 -15.373  -5.234  0.00  0.00     0.017 A 
ATOM     27  C   UNL d   1      28.317 -14.705  -6.123  0.00  0.00     0.004 A 
ATOM     28  C   UNL d   1      26.988 -14.469  -5.770  0.00  0.00     0.037 A 
ATOM     29  C   UNL d   1      26.520 -14.872  -4.516  0.00  0.00     0.070 A 
ATOM     30  C   UNL d   1      27.369 -15.588  -3.650  0.00  0.00     0.053 A 
BRANCH  29  31
ATOM     31  O   UNL d   1      25.250 -14.450  -4.198  0.00  0.00    -0.346 OA
BRANCH  31  32
ATOM     32  C   UNL d   1      25.132 -13.203  -3.493  0.00  0.00     0.124 C 
ATOM     33  C   UNL d   1      26.037 -13.160  -2.249  0.00  0.00     0.040 C 
BRANCH  32  34
ATOM     34  C   UNL d   1      25.542 -12.060  -4.442  0.00  0.00     0.027 C 
ATOM     35  C   UNL d   1      26.947 -11.551  -4.135  0.00  0.00     0.007 C 
ENDBRANCH  32  34
ENDBRANCH  31  32
ENDBRANCH  29  31
ENDBRANCH  22  25
ENDBRANCH  19  21
ENDBRANCH   1  19
TORSDOF 10
ENDMDL
