MODEL 1
REMARK VINA RESULT:    -9.860      0.000      0.000
REMARK INTER + INTRA:         -14.851
REMARK INTER:                 -13.440
REMARK INTRA:                  -1.411
REMARK CONF_INDEPENDENT:        3.580
REMARK UNBOUND:                -1.411
REMARK  12 active torsions:
REMARK  status: ('A' for Active; 'I' for Inactive)
REMARK    1  A    between atoms: C_2  and  N_3 
REMARK    2  A    between atoms: N_3  and  C_4 
REMARK    3  A    between atoms: N_3  and  C_6 
REMARK    4  A    between atoms: C_6  and  C_7 
REMARK    5  A    between atoms: C_7  and  N_8 
REMARK       I    between atoms: N_8  and  C_9 
REMARK    6  A    between atoms: C_9  and  C_11 
REMARK    7  A    between atoms: C_14  and  N_15 
REMARK    8  A    between atoms: N_15  and  C_16 
REMARK    9  A    between atoms: C_16  and  N_18 
REMARK       I    between atoms: N_18  and  C_19 
REMARK   10  A    between atoms: C_19  and  C_21 
REMARK   11  A    between atoms: C_22  and  C_23 
REMARK   12  A    between atoms: C_26  and  N_27 
ROOT
ATOM      1  N   UNL d   1      26.850 -14.890  -2.183  0.00  0.00    -0.333 N 
ATOM      2  H   UNL d   1      27.668 -15.121  -2.742  0.00  0.00     0.168 HD
ENDROOT
BRANCH   1   3
ATOM      3  C   UNL d   1      27.148 -14.644  -0.760  0.00  0.00     0.034 A 
ATOM      4  C   UNL d   1      27.933 -15.496   0.037  0.00  0.00     0.030 A 
ATOM      5  C   UNL d   1      28.081 -15.255   1.444  0.00  0.00     0.019 A 
ATOM      6  C   UNL d   1      27.482 -14.146   2.060  0.00  0.00     0.032 A 
ATOM      7  C   UNL d   1      26.759 -13.284   1.283  0.00  0.00     0.019 A 
ATOM      8  C   UNL d   1      26.659 -13.529  -0.076  0.00  0.00     0.030 A 
BRANCH   6   9
ATOM      9  C   UNL d   1      27.725 -13.736   3.466  0.00  0.00     0.251 C 
ATOM     10  N   UNL d   1      28.292 -14.705   4.295  0.00  0.00    -0.355 N 
ATOM     11  H   UNL d   1      28.622 -15.573   3.888  0.00  0.00     0.162 HD
ATOM     12  O   UNL d   1      27.405 -12.633   3.861  0.00  0.00    -0.268 OA
BRANCH  10  13
ATOM     13  C   UNL d   1      28.561 -14.366   5.674  0.00  0.00     0.150 C 
BRANCH  13  14
ATOM     14  C   UNL d   1      30.029 -14.542   6.088  0.00  0.00     0.254 C 
BRANCH  14  15
ATOM     15  N   UNL d   1      30.722 -13.209   6.450  0.00  0.00    -0.070 N 
ATOM     16  H   UNL d   1      31.710 -13.302   6.170  0.00  0.00     0.279 HD
BRANCH  15  17
ATOM     17  C   UNL d   1      30.095 -12.102   5.606  0.00  0.00     0.230 C 
ATOM     18  C   UNL d   1      30.177 -10.728   6.240  0.00  0.00     0.034 C 
ENDBRANCH  15  17
BRANCH  15  19
ATOM     19  C   UNL d   1      30.661 -12.983   7.955  0.00  0.00     0.230 C 
ATOM     20  C   UNL d   1      30.316 -14.213   8.762  0.00  0.00     0.034 C 
ENDBRANCH  15  19
ENDBRANCH  14  15
ENDBRANCH  13  14
ENDBRANCH  10  13
ENDBRANCH   6   9
ENDBRANCH   1   3
BRANCH   1  21
ATOM     21  C   UNL d   1      25.545 -14.957  -2.783  0.00  0.00     0.179 C 
ATOM     22  S   UNL d   1      25.170 -14.443  -4.352  0.00  0.00    -0.040 SA
BRANCH  21  23
ATOM     23  N   UNL d   1      24.499 -15.483  -1.977  0.00  0.00    -0.300 N 
ATOM     24  C   UNL d   1      24.619 -16.708  -1.278  0.00  0.00     0.247 C 
ATOM     25  O   UNL d   1      25.619 -17.426  -1.258  0.00  0.00    -0.268 OA
ATOM     26  H   UNL d   1      23.620 -14.989  -1.912  0.00  0.00     0.171 HD
BRANCH  24  27
ATOM     27  C   UNL d   1      23.485 -17.224  -0.476  0.00  0.00     0.075 C 
ATOM     28  C   UNL d   1      22.767 -18.222  -1.046  0.00  0.00     0.017 C 
BRANCH  28  29
ATOM     29  C   UNL d   1      21.567 -18.830  -0.468  0.00  0.00    -0.036 A 
ATOM     30  C   UNL d   1      20.475 -19.200  -1.269  0.00  0.00     0.014 A 
ATOM     31  C   UNL d   1      19.305 -19.699  -0.682  0.00  0.00     0.037 A 
ATOM     32  C   UNL d   1      19.259 -19.886   0.705  0.00  0.00     0.102 A 
ATOM     33  C   UNL d   1      20.332 -19.492   1.511  0.00  0.00     0.037 A 
ATOM     34  C   UNL d   1      21.471 -18.950   0.920  0.00  0.00     0.014 A 
BRANCH  32  35
ATOM     35  N   UNL d   1      18.108 -20.560   1.321  0.00  0.00    -0.116 N 
ATOM     36  O   UNL d   1      17.655 -20.084   2.369  0.00  0.00    -0.532 OA
ATOM     37  O   UNL d   1      17.641 -21.547   0.733  0.00  0.00    -0.532 OA
ENDBRANCH  32  35
ENDBRANCH  28  29
ENDBRANCH  24  27
ENDBRANCH  21  23
ENDBRANCH   1  21
TORSDOF 12
ENDMDL
MODEL 2
REMARK VINA RESULT:    -8.677      0.885      2.003
REMARK INTER + INTRA:         -14.525
REMARK INTER:                 -12.256
REMARK INTRA:                  -2.269
REMARK CONF_INDEPENDENT:        3.580
REMARK UNBOUND:                -2.269
REMARK  12 active torsions:
REMARK  status: ('A' for Active; 'I' for Inactive)
REMARK    1  A    between atoms: C_2  and  N_3 
REMARK    2  A    between atoms: N_3  and  C_4 
REMARK    3  A    between atoms: N_3  and  C_6 
REMARK    4  A    between atoms: C_6  and  C_7 
REMARK    5  A    between atoms: C_7  and  N_8 
REMARK       I    between atoms: N_8  and  C_9 
REMARK    6  A    between atoms: C_9  and  C_11 
REMARK    7  A    between atoms: C_14  and  N_15 
REMARK    8  A    between atoms: N_15  and  C_16 
REMARK    9  A    between atoms: C_16  and  N_18 
REMARK       I    between atoms: N_18  and  C_19 
REMARK   10  A    between atoms: C_19  and  C_21 
REMARK   11  A    between atoms: C_22  and  C_23 
REMARK   12  A    between atoms: C_26  and  N_27 
ROOT
ATOM      1  N   UNL d   1      26.997 -14.395  -1.855  0.00  0.00    -0.333 N 
ATOM      2  H   UNL d   1      27.846 -14.125  -2.346  0.00  0.00     0.168 HD
ENDROOT
BRANCH   1   3
ATOM      3  C   UNL d   1      27.089 -14.273  -0.389  0.00  0.00     0.034 A 
ATOM      4  C   UNL d   1      26.471 -13.253   0.356  0.00  0.00     0.030 A 
ATOM      5  C   UNL d   1      26.703 -13.129   1.767  0.00  0.00     0.019 A 
ATOM      6  C   UNL d   1      27.519 -14.041   2.453  0.00  0.00     0.032 A 
ATOM      7  C   UNL d   1      28.083 -15.067   1.746  0.00  0.00     0.019 A 
ATOM      8  C   UNL d   1      27.817 -15.174   0.392  0.00  0.00     0.030 A 
BRANCH   6   9
ATOM      9  C   UNL d   1      27.671 -14.082   3.928  0.00  0.00     0.251 C 
ATOM     10  N   UNL d   1      28.548 -15.046   4.426  0.00  0.00    -0.355 N 
ATOM     11  H   UNL d   1      29.122 -15.574   3.778  0.00  0.00     0.162 HD
ATOM     12  O   UNL d   1      27.030 -13.339   4.644  0.00  0.00    -0.268 OA
BRANCH  10  13
ATOM     13  C   UNL d   1      28.745 -15.132   5.855  0.00  0.00     0.150 C 
BRANCH  13  14
ATOM     14  C   UNL d   1      29.575 -13.982   6.444  0.00  0.00     0.254 C 
BRANCH  14  15
ATOM     15  N   UNL d   1      28.733 -12.726   6.763  0.00  0.00    -0.070 N 
ATOM     16  H   UNL d   1      27.855 -12.813   6.227  0.00  0.00     0.279 HD
BRANCH  15  17
ATOM     17  C   UNL d   1      28.383 -12.755   8.248  0.00  0.00     0.230 C 
ATOM     18  C   UNL d   1      29.001 -13.917   9.000  0.00  0.00     0.034 C 
ENDBRANCH  15  17
BRANCH  15  19
ATOM     19  C   UNL d   1      29.467 -11.475   6.298  0.00  0.00     0.230 C 
ATOM     20  C   UNL d   1      28.573 -10.399   5.726  0.00  0.00     0.034 C 
ENDBRANCH  15  19
ENDBRANCH  14  15
ENDBRANCH  13  14
ENDBRANCH  10  13
ENDBRANCH   6   9
ENDBRANCH   1   3
BRANCH   1  21
ATOM     21  C   UNL d   1      25.904 -14.963  -2.597  0.00  0.00     0.179 C 
ATOM     22  S   UNL d   1      25.655 -14.768  -4.261  0.00  0.00    -0.040 SA
BRANCH  21  23
ATOM     23  N   UNL d   1      24.964 -15.732  -1.860  0.00  0.00    -0.300 N 
ATOM     24  C   UNL d   1      25.325 -16.907  -1.157  0.00  0.00     0.247 C 
ATOM     25  O   UNL d   1      26.462 -17.372  -1.076  0.00  0.00    -0.268 OA
ATOM     26  H   UNL d   1      23.991 -15.459  -1.849  0.00  0.00     0.171 HD
BRANCH  24  27
ATOM     27  C   UNL d   1      24.297 -17.687  -0.428  0.00  0.00     0.075 C 
ATOM     28  C   UNL d   1      23.095 -17.798  -1.045  0.00  0.00     0.017 C 
BRANCH  28  29
ATOM     29  C   UNL d   1      21.918 -18.458  -0.478  0.00  0.00    -0.036 A 
ATOM     30  C   UNL d   1      21.762 -18.613   0.909  0.00  0.00     0.014 A 
ATOM     31  C   UNL d   1      20.670 -19.325   1.422  0.00  0.00     0.037 A 
ATOM     32  C   UNL d   1      19.701 -19.824   0.541  0.00  0.00     0.102 A 
ATOM     33  C   UNL d   1      19.867 -19.699  -0.841  0.00  0.00     0.037 A 
ATOM     34  C   UNL d   1      20.982 -19.032  -1.341  0.00  0.00     0.014 A 
BRANCH  32  35
ATOM     35  N   UNL d   1      18.469 -20.427   1.066  0.00  0.00    -0.116 N 
ATOM     36  O   UNL d   1      17.846 -21.202   0.328  0.00  0.00    -0.532 OA
ATOM     37  O   UNL d   1      18.146 -20.148   2.230  0.00  0.00    -0.532 OA
ENDBRANCH  32  35
ENDBRANCH  28  29
ENDBRANCH  24  27
ENDBRANCH  21  23
ENDBRANCH   1  21
TORSDOF 12
ENDMDL
MODEL 3
REMARK VINA RESULT:    -8.374      2.705      3.964
REMARK INTER + INTRA:         -13.310
REMARK INTER:                 -11.953
REMARK INTRA:                  -1.357
REMARK CONF_INDEPENDENT:        3.580
REMARK UNBOUND:                -1.357
REMARK  12 active torsions:
REMARK  status: ('A' for Active; 'I' for Inactive)
REMARK    1  A    between atoms: C_2  and  N_3 
REMARK    2  A    between atoms: N_3  and  C_4 
REMARK    3  A    between atoms: N_3  and  C_6 
REMARK    4  A    between atoms: C_6  and  C_7 
REMARK    5  A    between atoms: C_7  and  N_8 
REMARK       I    between atoms: N_8  and  C_9 
REMARK    6  A    between atoms: C_9  and  C_11 
REMARK    7  A    between atoms: C_14  and  N_15 
REMARK    8  A    between atoms: N_15  and  C_16 
REMARK    9  A    between atoms: C_16  and  N_18 
REMARK       I    between atoms: N_18  and  C_19 
REMARK   10  A    between atoms: C_19  and  C_21 
REMARK   11  A    between atoms: C_22  and  C_23 
REMARK   12  A    between atoms: C_26  and  N_27 
ROOT
ATOM      1  N   UNL d   1      29.591 -14.275   1.153  0.00  0.00    -0.333 N 
ATOM      2  H   UNL d   1      29.974 -13.457   0.685  0.00  0.00     0.168 HD
ENDROOT
BRANCH   1   3
ATOM      3  C   UNL d   1      29.338 -14.077   2.592  0.00  0.00     0.034 A 
ATOM      4  C   UNL d   1      28.221 -14.594   3.273  0.00  0.00     0.030 A 
ATOM      5  C   UNL d   1      27.979 -14.261   4.648  0.00  0.00     0.019 A 
ATOM      6  C   UNL d   1      28.866 -13.444   5.365  0.00  0.00     0.032 A 
ATOM      7  C   UNL d   1      29.981 -12.979   4.727  0.00  0.00     0.019 A 
ATOM      8  C   UNL d   1      30.200 -13.341   3.408  0.00  0.00     0.030 A 
BRANCH   6   9
ATOM      9  C   UNL d   1      28.777 -13.194   6.825  0.00  0.00     0.251 C 
ATOM     10  N   UNL d   1      28.643 -14.324   7.632  0.00  0.00    -0.355 N 
ATOM     11  H   UNL d   1      28.738 -15.243   7.215  0.00  0.00     0.162 HD
ATOM     12  O   UNL d   1      28.781 -12.062   7.268  0.00  0.00    -0.268 OA
BRANCH  10  13
ATOM     13  C   UNL d   1      28.558 -14.148   9.064  0.00  0.00     0.150 C 
BRANCH  13  14
ATOM     14  C   UNL d   1      29.904 -13.845   9.739  0.00  0.00     0.254 C 
BRANCH  14  15
ATOM     15  N   UNL d   1      30.906 -15.018   9.648  0.00  0.00    -0.070 N 
ATOM     16  H   UNL d   1      30.624 -15.588   8.836  0.00  0.00     0.279 HD
BRANCH  15  17
ATOM     17  C   UNL d   1      32.289 -14.439   9.360  0.00  0.00     0.230 C 
ATOM     18  C   UNL d   1      32.262 -13.188   8.505  0.00  0.00     0.034 C 
ENDBRANCH  15  17
BRANCH  15  19
ATOM     19  C   UNL d   1      30.816 -15.878  10.902  0.00  0.00     0.230 C 
ATOM     20  C   UNL d   1      32.091 -15.944  11.711  0.00  0.00     0.034 C 
ENDBRANCH  15  19
ENDBRANCH  14  15
ENDBRANCH  13  14
ENDBRANCH  10  13
ENDBRANCH   6   9
ENDBRANCH   1   3
BRANCH   1  21
ATOM     21  C   UNL d   1      29.471 -15.510   0.428  0.00  0.00     0.179 C 
ATOM     22  S   UNL d   1      30.768 -16.501  -0.025  0.00  0.00    -0.040 SA
BRANCH  21  23
ATOM     23  N   UNL d   1      28.157 -15.907   0.056  0.00  0.00    -0.300 N 
ATOM     24  C   UNL d   1      27.498 -15.386  -1.083  0.00  0.00     0.247 C 
ATOM     25  O   UNL d   1      27.976 -14.579  -1.880  0.00  0.00    -0.268 OA
ATOM     26  H   UNL d   1      27.650 -16.564   0.633  0.00  0.00     0.171 HD
BRANCH  24  27
ATOM     27  C   UNL d   1      26.116 -15.813  -1.407  0.00  0.00     0.075 C 
ATOM     28  C   UNL d   1      25.521 -16.621  -0.496  0.00  0.00     0.017 C 
BRANCH  28  29
ATOM     29  C   UNL d   1      24.192 -17.218  -0.644  0.00  0.00    -0.036 A 
ATOM     30  C   UNL d   1      23.051 -16.424  -0.842  0.00  0.00     0.014 A 
ATOM     31  C   UNL d   1      21.781 -17.014  -0.894  0.00  0.00     0.037 A 
ATOM     32  C   UNL d   1      21.668 -18.408  -0.812  0.00  0.00     0.102 A 
ATOM     33  C   UNL d   1      22.797 -19.200  -0.586  0.00  0.00     0.037 A 
ATOM     34  C   UNL d   1      24.049 -18.598  -0.486  0.00  0.00     0.014 A 
BRANCH  32  35
ATOM     35  N   UNL d   1      20.368 -19.056  -1.029  0.00  0.00    -0.116 N 
ATOM     36  O   UNL d   1      19.382 -18.577  -0.454  0.00  0.00    -0.532 OA
ATOM     37  O   UNL d   1      20.333 -20.025  -1.802  0.00  0.00    -0.532 OA
ENDBRANCH  32  35
ENDBRANCH  28  29
ENDBRANCH  24  27
ENDBRANCH  21  23
ENDBRANCH   1  21
TORSDOF 12
ENDMDL
MODEL 4
REMARK VINA RESULT:    -8.302      2.616      4.392
REMARK INTER + INTRA:         -13.809
REMARK INTER:                 -11.882
REMARK INTRA:                  -1.927
REMARK CONF_INDEPENDENT:        3.580
REMARK UNBOUND:                -1.927
REMARK  12 active torsions:
REMARK  status: ('A' for Active; 'I' for Inactive)
REMARK    1  A    between atoms: C_2  and  N_3 
REMARK    2  A    between atoms: N_3  and  C_4 
REMARK    3  A    between atoms: N_3  and  C_6 
REMARK    4  A    between atoms: C_6  and  C_7 
REMARK    5  A    between atoms: C_7  and  N_8 
REMARK       I    between atoms: N_8  and  C_9 
REMARK    6  A    between atoms: C_9  and  C_11 
REMARK    7  A    between atoms: C_14  and  N_15 
REMARK    8  A    between atoms: N_15  and  C_16 
REMARK    9  A    between atoms: C_16  and  N_18 
REMARK       I    between atoms: N_18  and  C_19 
REMARK   10  A    between atoms: C_19  and  C_21 
REMARK   11  A    between atoms: C_22  and  C_23 
REMARK   12  A    between atoms: C_26  and  N_27 
ROOT
ATOM      1  N   UNL d   1      29.581 -14.818   1.817  0.00  0.00    -0.333 N 
ATOM      2  H   UNL d   1      29.943 -15.756   1.671  0.00  0.00     0.168 HD
ENDROOT
BRANCH   1   3
ATOM      3  C   UNL d   1      29.626 -14.371   3.221  0.00  0.00     0.034 A 
ATOM      4  C   UNL d   1      28.747 -14.825   4.220  0.00  0.00     0.030 A 
ATOM      5  C   UNL d   1      28.775 -14.257   5.538  0.00  0.00     0.019 A 
ATOM      6  C   UNL d   1      29.701 -13.260   5.881  0.00  0.00     0.032 A 
ATOM      7  C   UNL d   1      30.593 -12.848   4.931  0.00  0.00     0.019 A 
ATOM      8  C   UNL d   1      30.559 -13.436   3.678  0.00  0.00     0.030 A 
BRANCH   6   9
ATOM      9  C   UNL d   1      29.904 -12.746   7.258  0.00  0.00     0.251 C 
ATOM     10  N   UNL d   1      31.176 -12.935   7.800  0.00  0.00    -0.355 N 
ATOM     11  H   UNL d   1      31.919 -13.285   7.206  0.00  0.00     0.162 HD
ATOM     12  O   UNL d   1      28.993 -12.233   7.876  0.00  0.00    -0.268 OA
BRANCH  10  13
ATOM     13  C   UNL d   1      31.440 -12.450   9.135  0.00  0.00     0.150 C 
BRANCH  13  14
ATOM     14  C   UNL d   1      30.438 -12.941  10.190  0.00  0.00     0.254 C 
BRANCH  14  15
ATOM     15  N   UNL d   1      29.729 -14.254   9.788  0.00  0.00    -0.070 N 
ATOM     16  H   UNL d   1      29.516 -14.181   8.781  0.00  0.00     0.279 HD
BRANCH  15  17
ATOM     17  C   UNL d   1      30.715 -15.404   9.979  0.00  0.00     0.230 C 
ATOM     18  C   UNL d   1      30.798 -15.908  11.406  0.00  0.00     0.034 C 
ENDBRANCH  15  17
BRANCH  15  19
ATOM     19  C   UNL d   1      28.420 -14.395  10.555  0.00  0.00     0.230 C 
ATOM     20  C   UNL d   1      27.765 -13.084  10.924  0.00  0.00     0.034 C 
ENDBRANCH  15  19
ENDBRANCH  14  15
ENDBRANCH  13  14
ENDBRANCH  10  13
ENDBRANCH   6   9
ENDBRANCH   1   3
BRANCH   1  21
ATOM     21  C   UNL d   1      28.971 -14.119   0.718  0.00  0.00     0.179 C 
ATOM     22  S   UNL d   1      29.603 -12.731  -0.020  0.00  0.00    -0.040 SA
BRANCH  21  23
ATOM     23  N   UNL d   1      27.737 -14.637   0.238  0.00  0.00    -0.300 N 
ATOM     24  C   UNL d   1      27.670 -15.682  -0.713  0.00  0.00     0.247 C 
ATOM     25  O   UNL d   1      28.635 -16.271  -1.200  0.00  0.00    -0.268 OA
ATOM     26  H   UNL d   1      26.867 -14.235   0.558  0.00  0.00     0.171 HD
BRANCH  24  27
ATOM     27  C   UNL d   1      26.356 -16.164  -1.201  0.00  0.00     0.075 C 
ATOM     28  C   UNL d   1      25.493 -16.592  -0.247  0.00  0.00     0.017 C 
BRANCH  28  29
ATOM     29  C   UNL d   1      24.175 -17.173  -0.507  0.00  0.00    -0.036 A 
ATOM     30  C   UNL d   1      23.050 -16.364  -0.737  0.00  0.00     0.014 A 
ATOM     31  C   UNL d   1      21.785 -16.943  -0.896  0.00  0.00     0.037 A 
ATOM     32  C   UNL d   1      21.663 -18.339  -0.889  0.00  0.00     0.102 A 
ATOM     33  C   UNL d   1      22.774 -19.148  -0.631  0.00  0.00     0.037 A 
ATOM     34  C   UNL d   1      24.018 -18.558  -0.424  0.00  0.00     0.014 A 
BRANCH  32  35
ATOM     35  N   UNL d   1      20.377 -18.968  -1.217  0.00  0.00    -0.116 N 
ATOM     36  O   UNL d   1      20.400 -20.069  -1.782  0.00  0.00    -0.532 OA
ATOM     37  O   UNL d   1      19.345 -18.370  -0.879  0.00  0.00    -0.532 OA
ENDBRANCH  32  35
ENDBRANCH  28  29
ENDBRANCH  24  27
ENDBRANCH  21  23
ENDBRANCH   1  21
TORSDOF 12
ENDMDL
MODEL 5
REMARK VINA RESULT:    -8.075      1.746      2.498
REMARK INTER + INTRA:         -13.733
REMARK INTER:                 -11.654
REMARK INTRA:                  -2.079
REMARK CONF_INDEPENDENT:        3.580
REMARK UNBOUND:                -2.079
REMARK  12 active torsions:
REMARK  status: ('A' for Active; 'I' for Inactive)
REMARK    1  A    between atoms: C_2  and  N_3 
REMARK    2  A    between atoms: N_3  and  C_4 
REMARK    3  A    between atoms: N_3  and  C_6 
REMARK    4  A    between atoms: C_6  and  C_7 
REMARK    5  A    between atoms: C_7  and  N_8 
REMARK       I    between atoms: N_8  and  C_9 
REMARK    6  A    between atoms: C_9  and  C_11 
REMARK    7  A    between atoms: C_14  and  N_15 
REMARK    8  A    between atoms: N_15  and  C_16 
REMARK    9  A    between atoms: C_16  and  N_18 
REMARK       I    between atoms: N_18  and  C_19 
REMARK   10  A    between atoms: C_19  and  C_21 
REMARK   11  A    between atoms: C_22  and  C_23 
REMARK   12  A    between atoms: C_26  and  N_27 
ROOT
ATOM      1  N   UNL d   1      27.204 -14.886   0.009  0.00  0.00    -0.333 N 
ATOM      2  H   UNL d   1      26.758 -14.131  -0.506  0.00  0.00     0.168 HD
ENDROOT
BRANCH   1   3
ATOM      3  C   UNL d   1      27.750 -14.478   1.316  0.00  0.00     0.034 A 
ATOM      4  C   UNL d   1      29.054 -14.775   1.750  0.00  0.00     0.030 A 
ATOM      5  C   UNL d   1      29.477 -14.449   3.083  0.00  0.00     0.019 A 
ATOM      6  C   UNL d   1      28.620 -13.792   3.978  0.00  0.00     0.032 A 
ATOM      7  C   UNL d   1      27.368 -13.453   3.547  0.00  0.00     0.019 A 
ATOM      8  C   UNL d   1      27.000 -13.757   2.248  0.00  0.00     0.030 A 
BRANCH   6   9
ATOM      9  C   UNL d   1      29.035 -13.273   5.305  0.00  0.00     0.251 C 
ATOM     10  N   UNL d   1      30.383 -13.430   5.629  0.00  0.00    -0.355 N 
ATOM     11  H   UNL d   1      31.026 -13.764   4.919  0.00  0.00     0.162 HD
ATOM     12  O   UNL d   1      28.226 -12.780   6.065  0.00  0.00    -0.268 OA
BRANCH  10  13
ATOM     13  C   UNL d   1      30.852 -12.939   6.904  0.00  0.00     0.150 C 
BRANCH  13  14
ATOM     14  C   UNL d   1      30.256 -13.671   8.115  0.00  0.00     0.254 C 
BRANCH  14  15
ATOM     15  N   UNL d   1      29.051 -12.932   8.739  0.00  0.00    -0.070 N 
ATOM     16  H   UNL d   1      28.321 -12.888   8.012  0.00  0.00     0.279 HD
BRANCH  15  17
ATOM     17  C   UNL d   1      28.519 -13.781   9.891  0.00  0.00     0.230 C 
ATOM     18  C   UNL d   1      27.848 -12.975  10.986  0.00  0.00     0.034 C 
ENDBRANCH  15  17
BRANCH  15  19
ATOM     19  C   UNL d   1      29.450 -11.512   9.117  0.00  0.00     0.230 C 
ATOM     20  C   UNL d   1      28.907 -10.441   8.199  0.00  0.00     0.034 C 
ENDBRANCH  15  19
ENDBRANCH  14  15
ENDBRANCH  13  14
ENDBRANCH  10  13
ENDBRANCH   6   9
ENDBRANCH   1   3
BRANCH   1  21
ATOM     21  C   UNL d   1      27.363 -16.170  -0.620  0.00  0.00     0.179 C 
ATOM     22  S   UNL d   1      28.616 -16.581  -1.682  0.00  0.00    -0.040 SA
BRANCH  21  23
ATOM     23  N   UNL d   1      26.376 -17.150  -0.327  0.00  0.00    -0.300 N 
ATOM     24  C   UNL d   1      25.004 -16.957  -0.613  0.00  0.00     0.247 C 
ATOM     25  O   UNL d   1      24.518 -15.965  -1.157  0.00  0.00    -0.268 OA
ATOM     26  H   UNL d   1      26.645 -18.011   0.127  0.00  0.00     0.171 HD
BRANCH  24  27
ATOM     27  C   UNL d   1      24.013 -18.001  -0.259  0.00  0.00     0.075 C 
ATOM     28  C   UNL d   1      22.729 -17.734  -0.599  0.00  0.00     0.017 C 
BRANCH  28  29
ATOM     29  C   UNL d   1      21.581 -18.586  -0.283  0.00  0.00    -0.036 A 
ATOM     30  C   UNL d   1      20.651 -18.956  -1.268  0.00  0.00     0.014 A 
ATOM     31  C   UNL d   1      19.516 -19.700  -0.923  0.00  0.00     0.037 A 
ATOM     32  C   UNL d   1      19.351 -20.127   0.401  0.00  0.00     0.102 A 
ATOM     33  C   UNL d   1      20.258 -19.737   1.391  0.00  0.00     0.037 A 
ATOM     34  C   UNL d   1      21.357 -18.955   1.045  0.00  0.00     0.014 A 
BRANCH  32  35
ATOM     35  N   UNL d   1      18.258 -21.044   0.750  0.00  0.00    -0.116 N 
ATOM     36  O   UNL d   1      18.138 -21.375   1.936  0.00  0.00    -0.532 OA
ATOM     37  O   UNL d   1      17.501 -21.405  -0.164  0.00  0.00    -0.532 OA
ENDBRANCH  32  35
ENDBRANCH  28  29
ENDBRANCH  24  27
ENDBRANCH  21  23
ENDBRANCH   1  21
TORSDOF 12
ENDMDL
MODEL 6
REMARK VINA RESULT:    -8.012      2.707      4.079
REMARK INTER + INTRA:         -13.802
REMARK INTER:                 -11.591
REMARK INTRA:                  -2.211
REMARK CONF_INDEPENDENT:        3.580
REMARK UNBOUND:                -2.211
REMARK  12 active torsions:
REMARK  status: ('A' for Active; 'I' for Inactive)
REMARK    1  A    between atoms: C_2  and  N_3 
REMARK    2  A    between atoms: N_3  and  C_4 
REMARK    3  A    between atoms: N_3  and  C_6 
REMARK    4  A    between atoms: C_6  and  C_7 
REMARK    5  A    between atoms: C_7  and  N_8 
REMARK       I    between atoms: N_8  and  C_9 
REMARK    6  A    between atoms: C_9  and  C_11 
REMARK    7  A    between atoms: C_14  and  N_15 
REMARK    8  A    between atoms: N_15  and  C_16 
REMARK    9  A    between atoms: C_16  and  N_18 
REMARK       I    between atoms: N_18  and  C_19 
REMARK   10  A    between atoms: C_19  and  C_21 
REMARK   11  A    between atoms: C_22  and  C_23 
REMARK   12  A    between atoms: C_26  and  N_27 
ROOT
ATOM      1  N   UNL d   1      29.544 -14.583   1.871  0.00  0.00    -0.333 N 
ATOM      2  H   UNL d   1      30.030 -15.457   1.687  0.00  0.00     0.168 HD
ENDROOT
BRANCH   1   3
ATOM      3  C   UNL d   1      29.412 -14.262   3.304  0.00  0.00     0.034 A 
ATOM      4  C   UNL d   1      30.206 -14.834   4.314  0.00  0.00     0.030 A 
ATOM      5  C   UNL d   1      29.940 -14.563   5.699  0.00  0.00     0.019 A 
ATOM      6  C   UNL d   1      28.911 -13.692   6.086  0.00  0.00     0.032 A 
ATOM      7  C   UNL d   1      28.167 -13.091   5.109  0.00  0.00     0.019 A 
ATOM      8  C   UNL d   1      28.466 -13.352   3.782  0.00  0.00     0.030 A 
BRANCH   6   9
ATOM      9  C   UNL d   1      28.684 -13.232   7.478  0.00  0.00     0.251 C 
ATOM     10  N   UNL d   1      28.724 -14.219   8.463  0.00  0.00    -0.355 N 
ATOM     11  H   UNL d   1      29.023 -15.155   8.213  0.00  0.00     0.162 HD
ATOM     12  O   UNL d   1      28.439 -12.067   7.720  0.00  0.00    -0.268 OA
BRANCH  10  13
ATOM     13  C   UNL d   1      28.518 -13.834   9.840  0.00  0.00     0.150 C 
BRANCH  13  14
ATOM     14  C   UNL d   1      29.767 -13.257  10.524  0.00  0.00     0.254 C 
BRANCH  14  15
ATOM     15  N   UNL d   1      30.850 -12.799   9.522  0.00  0.00    -0.070 N 
ATOM     16  H   UNL d   1      30.355 -12.375   8.722  0.00  0.00     0.279 HD
BRANCH  15  17
ATOM     17  C   UNL d   1      31.684 -11.708  10.191  0.00  0.00     0.230 C 
ATOM     18  C   UNL d   1      30.967 -10.997  11.321  0.00  0.00     0.034 C 
ENDBRANCH  15  17
BRANCH  15  19
ATOM     19  C   UNL d   1      31.642 -14.001   9.024  0.00  0.00     0.230 C 
ATOM     20  C   UNL d   1      32.267 -14.837  10.117  0.00  0.00     0.034 C 
ENDBRANCH  15  19
ENDBRANCH  14  15
ENDBRANCH  13  14
ENDBRANCH  10  13
ENDBRANCH   6   9
ENDBRANCH   1   3
BRANCH   1  21
ATOM     21  C   UNL d   1      28.950 -13.863   0.777  0.00  0.00     0.179 C 
ATOM     22  S   UNL d   1      29.574 -12.442   0.098  0.00  0.00    -0.040 SA
BRANCH  21  23
ATOM     23  N   UNL d   1      27.740 -14.389   0.249  0.00  0.00    -0.300 N 
ATOM     24  C   UNL d   1      27.612 -15.738  -0.162  0.00  0.00     0.247 C 
ATOM     25  O   UNL d   1      28.491 -16.596  -0.085  0.00  0.00    -0.268 OA
ATOM     26  H   UNL d   1      26.941 -13.784   0.129  0.00  0.00     0.171 HD
BRANCH  24  27
ATOM     27  C   UNL d   1      26.335 -16.226  -0.735  0.00  0.00     0.075 C 
ATOM     28  C   UNL d   1      25.451 -16.743   0.153  0.00  0.00     0.017 C 
BRANCH  28  29
ATOM     29  C   UNL d   1      24.164 -17.346  -0.198  0.00  0.00    -0.036 A 
ATOM     30  C   UNL d   1      24.015 -18.738  -0.311  0.00  0.00     0.014 A 
ATOM     31  C   UNL d   1      22.797 -19.286  -0.732  0.00  0.00     0.037 A 
ATOM     32  C   UNL d   1      21.710 -18.436  -0.977  0.00  0.00     0.102 A 
ATOM     33  C   UNL d   1      21.862 -17.048  -0.895  0.00  0.00     0.037 A 
ATOM     34  C   UNL d   1      23.092 -16.513  -0.524  0.00  0.00     0.014 A 
BRANCH  32  35
ATOM     35  N   UNL d   1      20.383 -18.999  -1.259  0.00  0.00    -0.116 N 
ATOM     36  O   UNL d   1      19.393 -18.352  -0.895  0.00  0.00    -0.532 OA
ATOM     37  O   UNL d   1      20.337 -20.075  -1.873  0.00  0.00    -0.532 OA
ENDBRANCH  32  35
ENDBRANCH  28  29
ENDBRANCH  24  27
ENDBRANCH  21  23
ENDBRANCH   1  21
TORSDOF 12
ENDMDL
MODEL 7
REMARK VINA RESULT:    -7.919      1.557      2.323
REMARK INTER + INTRA:         -13.587
REMARK INTER:                 -11.499
REMARK INTRA:                  -2.089
REMARK CONF_INDEPENDENT:        3.580
REMARK UNBOUND:                -2.089
REMARK  12 active torsions:
REMARK  status: ('A' for Active; 'I' for Inactive)
REMARK    1  A    between atoms: C_2  and  N_3 
REMARK    2  A    between atoms: N_3  and  C_4 
REMARK    3  A    between atoms: N_3  and  C_6 
REMARK    4  A    between atoms: C_6  and  C_7 
REMARK    5  A    between atoms: C_7  and  N_8 
REMARK       I    between atoms: N_8  and  C_9 
REMARK    6  A    between atoms: C_9  and  C_11 
REMARK    7  A    between atoms: C_14  and  N_15 
REMARK    8  A    between atoms: N_15  and  C_16 
REMARK    9  A    between atoms: C_16  and  N_18 
REMARK       I    between atoms: N_18  and  C_19 
REMARK   10  A    between atoms: C_19  and  C_21 
REMARK   11  A    between atoms: C_22  and  C_23 
REMARK   12  A    between atoms: C_26  and  N_27 
ROOT
ATOM      1  N   UNL d   1      27.640 -16.272  -2.251  0.00  0.00    -0.333 N 
ATOM      2  H   UNL d   1      28.130 -16.980  -2.792  0.00  0.00     0.168 HD
ENDROOT
BRANCH   1   3
ATOM      3  C   UNL d   1      28.414 -15.749  -1.111  0.00  0.00     0.034 A 
ATOM      4  C   UNL d   1      29.813 -15.834  -1.004  0.00  0.00     0.030 A 
ATOM      5  C   UNL d   1      30.487 -15.409   0.190  0.00  0.00     0.019 A 
ATOM      6  C   UNL d   1      29.778 -14.862   1.270  0.00  0.00     0.032 A 
ATOM      7  C   UNL d   1      28.423 -14.728   1.155  0.00  0.00     0.019 A 
ATOM      8  C   UNL d   1      27.807 -15.121  -0.020  0.00  0.00     0.030 A 
BRANCH   6   9
ATOM      9  C   UNL d   1      30.414 -14.248   2.462  0.00  0.00     0.251 C 
ATOM     10  N   UNL d   1      30.037 -12.935   2.747  0.00  0.00    -0.355 N 
ATOM     11  H   UNL d   1      29.277 -12.514   2.224  0.00  0.00     0.162 HD
ATOM     12  O   UNL d   1      31.240 -14.854   3.113  0.00  0.00    -0.268 OA
BRANCH  10  13
ATOM     13  C   UNL d   1      30.615 -12.282   3.900  0.00  0.00     0.150 C 
BRANCH  13  14
ATOM     14  C   UNL d   1      29.909 -12.608   5.224  0.00  0.00     0.254 C 
BRANCH  14  15
ATOM     15  N   UNL d   1      30.111 -14.072   5.676  0.00  0.00    -0.070 N 
ATOM     16  H   UNL d   1      30.991 -14.397   5.245  0.00  0.00     0.279 HD
BRANCH  15  17
ATOM     17  C   UNL d   1      30.298 -14.079   7.191  0.00  0.00     0.230 C 
ATOM     18  C   UNL d   1      31.070 -12.885   7.718  0.00  0.00     0.034 C 
ENDBRANCH  15  17
BRANCH  15  19
ATOM     19  C   UNL d   1      28.968 -14.938   5.165  0.00  0.00     0.230 C 
ATOM     20  C   UNL d   1      27.763 -14.165   4.680  0.00  0.00     0.034 C 
ENDBRANCH  15  19
ENDBRANCH  14  15
ENDBRANCH  13  14
ENDBRANCH  10  13
ENDBRANCH   6   9
ENDBRANCH   1   3
BRANCH   1  21
ATOM     21  C   UNL d   1      26.269 -15.972  -2.561  0.00  0.00     0.179 C 
ATOM     22  S   UNL d   1      25.754 -14.704  -3.559  0.00  0.00    -0.040 SA
BRANCH  21  23
ATOM     23  N   UNL d   1      25.283 -16.804  -1.964  0.00  0.00    -0.300 N 
ATOM     24  C   UNL d   1      24.809 -16.597  -0.647  0.00  0.00     0.247 C 
ATOM     25  O   UNL d   1      25.157 -15.686   0.105  0.00  0.00    -0.268 OA
ATOM     26  H   UNL d   1      24.917 -17.594  -2.476  0.00  0.00     0.171 HD
BRANCH  24  27
ATOM     27  C   UNL d   1      23.802 -17.514  -0.062  0.00  0.00     0.075 C 
ATOM     28  C   UNL d   1      22.690 -17.721  -0.810  0.00  0.00     0.017 C 
BRANCH  28  29
ATOM     29  C   UNL d   1      21.539 -18.526  -0.398  0.00  0.00    -0.036 A 
ATOM     30  C   UNL d   1      21.388 -18.963   0.928  0.00  0.00     0.014 A 
ATOM     31  C   UNL d   1      20.324 -19.805   1.277  0.00  0.00     0.037 A 
ATOM     32  C   UNL d   1      19.377 -20.153   0.305  0.00  0.00     0.102 A 
ATOM     33  C   UNL d   1      19.540 -19.747  -1.022  0.00  0.00     0.037 A 
ATOM     34  C   UNL d   1      20.629 -18.951  -1.368  0.00  0.00     0.014 A 
BRANCH  32  35
ATOM     35  N   UNL d   1      18.170 -20.897   0.687  0.00  0.00    -0.116 N 
ATOM     36  O   UNL d   1      18.008 -21.159   1.885  0.00  0.00    -0.532 OA
ATOM     37  O   UNL d   1      17.370 -21.190  -0.214  0.00  0.00    -0.532 OA
ENDBRANCH  32  35
ENDBRANCH  28  29
ENDBRANCH  24  27
ENDBRANCH  21  23
ENDBRANCH   1  21
TORSDOF 12
ENDMDL
MODEL 8
REMARK VINA RESULT:    -7.635      2.897      4.041
REMARK INTER + INTRA:         -13.497
REMARK INTER:                 -11.214
REMARK INTRA:                  -2.283
REMARK CONF_INDEPENDENT:        3.580
REMARK UNBOUND:                -2.283
REMARK  12 active torsions:
REMARK  status: ('A' for Active; 'I' for Inactive)
REMARK    1  A    between atoms: C_2  and  N_3 
REMARK    2  A    between atoms: N_3  and  C_4 
REMARK    3  A    between atoms: N_3  and  C_6 
REMARK    4  A    between atoms: C_6  and  C_7 
REMARK    5  A    between atoms: C_7  and  N_8 
REMARK       I    between atoms: N_8  and  C_9 
REMARK    6  A    between atoms: C_9  and  C_11 
REMARK    7  A    between atoms: C_14  and  N_15 
REMARK    8  A    between atoms: N_15  and  C_16 
REMARK    9  A    between atoms: C_16  and  N_18 
REMARK       I    between atoms: N_18  and  C_19 
REMARK   10  A    between atoms: C_19  and  C_21 
REMARK   11  A    between atoms: C_22  and  C_23 
REMARK   12  A    between atoms: C_26  and  N_27 
ROOT
ATOM      1  N   UNL d   1      30.570 -14.776   0.504  0.00  0.00    -0.333 N 
ATOM      2  H   UNL d   1      30.864 -13.930   0.023  0.00  0.00     0.168 HD
ENDROOT
BRANCH   1   3
ATOM      3  C   UNL d   1      30.199 -14.565   1.915  0.00  0.00     0.034 A 
ATOM      4  C   UNL d   1      31.119 -14.569   2.979  0.00  0.00     0.030 A 
ATOM      5  C   UNL d   1      30.670 -14.476   4.339  0.00  0.00     0.019 A 
ATOM      6  C   UNL d   1      29.308 -14.340   4.648  0.00  0.00     0.032 A 
ATOM      7  C   UNL d   1      28.411 -14.284   3.618  0.00  0.00     0.019 A 
ATOM      8  C   UNL d   1      28.879 -14.348   2.316  0.00  0.00     0.030 A 
BRANCH   6   9
ATOM      9  C   UNL d   1      28.782 -14.069   6.009  0.00  0.00     0.251 C 
ATOM     10  N   UNL d   1      28.647 -12.724   6.355  0.00  0.00    -0.355 N 
ATOM     11  H   UNL d   1      28.786 -12.014   5.645  0.00  0.00     0.162 HD
ATOM     12  O   UNL d   1      28.530 -14.977   6.775  0.00  0.00    -0.268 OA
BRANCH  10  13
ATOM     13  C   UNL d   1      28.133 -12.394   7.665  0.00  0.00     0.150 C 
BRANCH  13  14
ATOM     14  C   UNL d   1      29.142 -12.599   8.804  0.00  0.00     0.254 C 
BRANCH  14  15
ATOM     15  N   UNL d   1      29.200 -14.059   9.309  0.00  0.00    -0.070 N 
ATOM     16  H   UNL d   1      29.078 -14.664   8.482  0.00  0.00     0.279 HD
BRANCH  15  17
ATOM     17  C   UNL d   1      30.596 -14.310   9.874  0.00  0.00     0.230 C 
ATOM     18  C   UNL d   1      31.560 -14.918   8.875  0.00  0.00     0.034 C 
ENDBRANCH  15  17
BRANCH  15  19
ATOM     19  C   UNL d   1      28.056 -14.321  10.279  0.00  0.00     0.230 C 
ATOM     20  C   UNL d   1      27.984 -13.357  11.441  0.00  0.00     0.034 C 
ENDBRANCH  15  19
ENDBRANCH  14  15
ENDBRANCH  13  14
ENDBRANCH  10  13
ENDBRANCH   6   9
ENDBRANCH   1   3
BRANCH   1  21
ATOM     21  C   UNL d   1      30.674 -16.042  -0.171  0.00  0.00     0.179 C 
ATOM     22  S   UNL d   1      32.082 -16.644  -0.895  0.00  0.00    -0.040 SA
BRANCH  21  23
ATOM     23  N   UNL d   1      29.490 -16.826  -0.240  0.00  0.00    -0.300 N 
ATOM     24  C   UNL d   1      28.302 -16.360  -0.852  0.00  0.00     0.247 C 
ATOM     25  O   UNL d   1      28.162 -15.269  -1.405  0.00  0.00    -0.268 OA
ATOM     26  H   UNL d   1      29.472 -17.743   0.183  0.00  0.00     0.171 HD
BRANCH  24  27
ATOM     27  C   UNL d   1      27.088 -17.209  -0.869  0.00  0.00     0.075 C 
ATOM     28  C   UNL d   1      25.906 -16.548  -0.812  0.00  0.00     0.017 C 
BRANCH  28  29
ATOM     29  C   UNL d   1      24.590 -17.185  -0.743  0.00  0.00    -0.036 A 
ATOM     30  C   UNL d   1      23.416 -16.476  -1.050  0.00  0.00     0.014 A 
ATOM     31  C   UNL d   1      22.164 -17.083  -0.893  0.00  0.00     0.037 A 
ATOM     32  C   UNL d   1      22.096 -18.423  -0.491  0.00  0.00     0.102 A 
ATOM     33  C   UNL d   1      23.258 -19.124  -0.156  0.00  0.00     0.037 A 
ATOM     34  C   UNL d   1      24.495 -18.494  -0.268  0.00  0.00     0.014 A 
BRANCH  32  35
ATOM     35  N   UNL d   1      20.806 -19.124  -0.480  0.00  0.00    -0.116 N 
ATOM     36  O   UNL d   1      20.147 -19.104   0.568  0.00  0.00    -0.532 OA
ATOM     37  O   UNL d   1      20.441 -19.669  -1.532  0.00  0.00    -0.532 OA
ENDBRANCH  32  35
ENDBRANCH  28  29
ENDBRANCH  24  27
ENDBRANCH  21  23
ENDBRANCH   1  21
TORSDOF 12
ENDMDL
MODEL 9
REMARK VINA RESULT:    -7.114      1.796      2.412
REMARK INTER + INTRA:         -13.379
REMARK INTER:                 -10.693
REMARK INTRA:                  -2.685
REMARK CONF_INDEPENDENT:        3.580
REMARK UNBOUND:                -2.685
REMARK  12 active torsions:
REMARK  status: ('A' for Active; 'I' for Inactive)
REMARK    1  A    between atoms: C_2  and  N_3 
REMARK    2  A    between atoms: N_3  and  C_4 
REMARK    3  A    between atoms: N_3  and  C_6 
REMARK    4  A    between atoms: C_6  and  C_7 
REMARK    5  A    between atoms: C_7  and  N_8 
REMARK       I    between atoms: N_8  and  C_9 
REMARK    6  A    between atoms: C_9  and  C_11 
REMARK    7  A    between atoms: C_14  and  N_15 
REMARK    8  A    between atoms: N_15  and  C_16 
REMARK    9  A    between atoms: C_16  and  N_18 
REMARK       I    between atoms: N_18  and  C_19 
REMARK   10  A    between atoms: C_19  and  C_21 
REMARK   11  A    between atoms: C_22  and  C_23 
REMARK   12  A    between atoms: C_26  and  N_27 
ROOT
ATOM      1  N   UNL d   1      26.763 -15.222  -0.342  0.00  0.00    -0.333 N 
ATOM      2  H   UNL d   1      26.332 -14.715  -1.111  0.00  0.00     0.168 HD
ENDROOT
BRANCH   1   3
ATOM      3  C   UNL d   1      27.279 -14.355   0.733  0.00  0.00     0.034 A 
ATOM      4  C   UNL d   1      27.295 -12.950   0.670  0.00  0.00     0.030 A 
ATOM      5  C   UNL d   1      27.923 -12.176   1.703  0.00  0.00     0.019 A 
ATOM      6  C   UNL d   1      28.504 -12.791   2.822  0.00  0.00     0.032 A 
ATOM      7  C   UNL d   1      28.448 -14.154   2.917  0.00  0.00     0.019 A 
ATOM      8  C   UNL d   1      27.811 -14.869   1.918  0.00  0.00     0.030 A 
BRANCH   6   9
ATOM      9  C   UNL d   1      29.018 -12.058   4.006  0.00  0.00     0.251 C 
ATOM     10  N   UNL d   1      28.075 -11.329   4.731  0.00  0.00    -0.355 N 
ATOM     11  H   UNL d   1      27.092 -11.430   4.504  0.00  0.00     0.162 HD
ATOM     12  O   UNL d   1      30.200 -12.072   4.286  0.00  0.00    -0.268 OA
BRANCH  10  13
ATOM     13  C   UNL d   1      28.511 -10.600   5.900  0.00  0.00     0.150 C 
BRANCH  13  14
ATOM     14  C   UNL d   1      28.591 -11.450   7.176  0.00  0.00     0.254 C 
BRANCH  14  15
ATOM     15  N   UNL d   1      29.620 -12.598   7.077  0.00  0.00    -0.070 N 
ATOM     16  H   UNL d   1      30.235 -12.379   6.278  0.00  0.00     0.279 HD
BRANCH  15  17
ATOM     17  C   UNL d   1      30.473 -12.582   8.344  0.00  0.00     0.230 C 
ATOM     18  C   UNL d   1      31.924 -12.952   8.110  0.00  0.00     0.034 C 
ENDBRANCH  15  17
BRANCH  15  19
ATOM     19  C   UNL d   1      28.907 -13.915   6.798  0.00  0.00     0.230 C 
ATOM     20  C   UNL d   1      29.622 -14.822   5.823  0.00  0.00     0.034 C 
ENDBRANCH  15  19
ENDBRANCH  14  15
ENDBRANCH  13  14
ENDBRANCH  10  13
ENDBRANCH   6   9
ENDBRANCH   1   3
BRANCH   1  21
ATOM     21  C   UNL d   1      26.932 -16.646  -0.445  0.00  0.00     0.179 C 
ATOM     22  S   UNL d   1      28.423 -17.450  -0.426  0.00  0.00    -0.040 SA
BRANCH  21  23
ATOM     23  N   UNL d   1      25.749 -17.421  -0.588  0.00  0.00    -0.300 N 
ATOM     24  C   UNL d   1      24.565 -16.902  -1.166  0.00  0.00     0.247 C 
ATOM     25  O   UNL d   1      24.430 -15.768  -1.626  0.00  0.00    -0.268 OA
ATOM     26  H   UNL d   1      25.727 -18.370  -0.245  0.00  0.00     0.171 HD
BRANCH  24  27
ATOM     27  C   UNL d   1      23.350 -17.745  -1.263  0.00  0.00     0.075 C 
ATOM     28  C   UNL d   1      22.597 -17.825  -0.140  0.00  0.00     0.017 C 
BRANCH  28  29
ATOM     29  C   UNL d   1      21.400 -18.654   0.012  0.00  0.00    -0.036 A 
ATOM     30  C   UNL d   1      20.567 -18.945  -1.081  0.00  0.00     0.014 A 
ATOM     31  C   UNL d   1      19.382 -19.667  -0.893  0.00  0.00     0.037 A 
ATOM     32  C   UNL d   1      19.069 -20.152   0.384  0.00  0.00     0.102 A 
ATOM     33  C   UNL d   1      19.878 -19.840   1.480  0.00  0.00     0.037 A 
ATOM     34  C   UNL d   1      21.028 -19.079   1.289  0.00  0.00     0.014 A 
BRANCH  32  35
ATOM     35  N   UNL d   1      17.921 -21.048   0.570  0.00  0.00    -0.116 N 
ATOM     36  O   UNL d   1      17.638 -21.392   1.725  0.00  0.00    -0.532 OA
ATOM     37  O   UNL d   1      17.284 -21.382  -0.440  0.00  0.00    -0.532 OA
ENDBRANCH  32  35
ENDBRANCH  28  29
ENDBRANCH  24  27
ENDBRANCH  21  23
ENDBRANCH   1  21
TORSDOF 12
ENDMDL
