MODEL 1
REMARK VINA RESULT:    -8.569      0.000      0.000
REMARK INTER + INTRA:         -13.732
REMARK INTER:                 -11.254
REMARK INTRA:                  -2.478
REMARK CONF_INDEPENDENT:        2.685
REMARK UNBOUND:                -2.478
REMARK  9 active torsions:
REMARK  status: ('A' for Active; 'I' for Inactive)
REMARK    1  A    between atoms: C_2  and  O_3 
REMARK    2  A    between atoms: C_2  and  C_11 
REMARK    3  A    between atoms: O_3  and  C_4 
REMARK       I    between atoms: C_11  and  N_13 
REMARK    4  A    between atoms: N_13  and  C_14 
REMARK    5  A    between atoms: C_17  and  N_18 
REMARK    6  A    between atoms: N_18  and  C_19 
REMARK    7  A    between atoms: C_19  and  N_21 
REMARK       I    between atoms: N_21  and  C_22 
REMARK    8  A    between atoms: C_22  and  C_24 
REMARK    9  A    between atoms: C_29  and  N_30 
ROOT
ATOM      1  C   UNL d   1      28.170 -14.187   3.155  0.00  0.00     0.034 A 
ATOM      2  C   UNL d   1      27.939 -14.696   4.437  0.00  0.00     0.032 A 
ATOM      3  C   UNL d   1      27.780 -13.820   5.566  0.00  0.00     0.032 A 
ATOM      4  C   UNL d   1      27.855 -12.424   5.409  0.00  0.00     0.034 A 
ATOM      5  C   UNL d   1      27.994 -12.006   4.097  0.00  0.00     0.032 A 
ATOM      6  C   UNL d   1      28.199 -12.825   3.009  0.00  0.00     0.032 A 
ENDROOT
BRANCH   4   7
ATOM      7  N   UNL d   1      27.788 -11.461   6.500  0.00  0.00    -0.333 N 
ATOM      8  H   UNL d   1      26.858 -11.338   6.892  0.00  0.00     0.168 HD
BRANCH   7   9
ATOM      9  C   UNL d   1      28.905 -10.845   7.165  0.00  0.00     0.179 C 
ATOM     10  S   UNL d   1      29.627  -9.362   6.789  0.00  0.00    -0.040 SA
BRANCH   9  11
ATOM     11  N   UNL d   1      29.415 -11.579   8.255  0.00  0.00    -0.299 N 
ATOM     12  C   UNL d   1      30.033 -12.839   8.112  0.00  0.00     0.260 C 
ATOM     13  O   UNL d   1      30.498 -13.323   7.075  0.00  0.00    -0.267 OA
ATOM     14  H   UNL d   1      28.966 -11.402   9.144  0.00  0.00     0.171 HD
BRANCH  12  15
ATOM     15  C   UNL d   1      30.268 -13.741   9.244  0.00  0.00     0.065 A 
ATOM     16  C   UNL d   1      31.469 -14.499   9.127  0.00  0.00     0.020 A 
ATOM     17  C   UNL d   1      31.740 -15.574   9.966  0.00  0.00     0.001 A 
ATOM     18  C   UNL d   1      30.850 -15.873  10.985  0.00  0.00     0.002 A 
ATOM     19  C   UNL d   1      29.660 -15.150  11.109  0.00  0.00     0.037 A 
ATOM     20  C   UNL d   1      29.347 -14.096  10.229  0.00  0.00     0.118 A 
BRANCH  20  21
ATOM     21  N   UNL d   1      28.042 -13.444  10.387  0.00  0.00    -0.115 N 
ATOM     22  O   UNL d   1      28.020 -12.200  10.327  0.00  0.00    -0.532 OA
ATOM     23  O   UNL d   1      27.030 -14.124  10.501  0.00  0.00    -0.532 OA
ENDBRANCH  20  21
ENDBRANCH  12  15
ENDBRANCH   9  11
ENDBRANCH   7   9
ENDBRANCH   4   7
BRANCH   1  24
ATOM     24  N   UNL d   1      28.308 -14.976   1.991  0.00  0.00    -0.325 N 
ATOM     25  C   UNL d   1      27.471 -14.777   0.898  0.00  0.00     0.251 C 
ATOM     26  O   UNL d   1      26.655 -13.852   0.843  0.00  0.00    -0.270 OA
ATOM     27  H   UNL d   1      29.069 -15.634   1.933  0.00  0.00     0.169 HD
BRANCH  25  28
ATOM     28  C   UNL d   1      27.593 -15.783  -0.271  0.00  0.00     0.217 C 
ATOM     29  C   UNL d   1      29.095 -15.934  -0.473  0.00  0.00     0.050 C 
BRANCH  28  30
ATOM     30  O   UNL d   1      26.946 -17.033   0.064  0.00  0.00    -0.335 OA
BRANCH  30  31
ATOM     31  C   UNL d   1      25.599 -17.151  -0.206  0.00  0.00     0.091 C 
ATOM     32  C   UNL d   1      24.931 -18.200   0.451  0.00  0.00     0.038 C 
ATOM     33  C   UNL d   1      23.564 -18.439   0.230  0.00  0.00     0.003 C 
ATOM     34  C   UNL d   1      22.827 -17.592  -0.589  0.00  0.00     0.002 C 
ATOM     35  C   UNL d   1      23.476 -16.577  -1.269  0.00  0.00     0.026 C 
ATOM     36  C   UNL d   1      24.864 -16.443  -1.179  0.00  0.00     0.067 C 
ATOM     37 CL   UNL d   1      25.513 -15.597  -2.550  0.00  0.00    -0.081 Cl
ENDBRANCH  30  31
ENDBRANCH  28  30
ENDBRANCH  25  28
ENDBRANCH   1  24
TORSDOF 9
ENDMDL
MODEL 2
REMARK VINA RESULT:    -8.471      9.148     14.067
REMARK INTER + INTRA:         -13.436
REMARK INTER:                 -11.156
REMARK INTRA:                  -2.280
REMARK CONF_INDEPENDENT:        2.685
REMARK UNBOUND:                -2.280
REMARK  9 active torsions:
REMARK  status: ('A' for Active; 'I' for Inactive)
REMARK    1  A    between atoms: C_2  and  O_3 
REMARK    2  A    between atoms: C_2  and  C_11 
REMARK    3  A    between atoms: O_3  and  C_4 
REMARK       I    between atoms: C_11  and  N_13 
REMARK    4  A    between atoms: N_13  and  C_14 
REMARK    5  A    between atoms: C_17  and  N_18 
REMARK    6  A    between atoms: N_18  and  C_19 
REMARK    7  A    between atoms: C_19  and  N_21 
REMARK       I    between atoms: N_21  and  C_22 
REMARK    8  A    between atoms: C_22  and  C_24 
REMARK    9  A    between atoms: C_29  and  N_30 
ROOT
ATOM      1  C   UNL d   1      26.113 -11.914  -4.231  0.00  0.00     0.034 A 
ATOM      2  C   UNL d   1      25.795 -10.764  -3.502  0.00  0.00     0.032 A 
ATOM      3  C   UNL d   1      25.477  -9.529  -4.165  0.00  0.00     0.032 A 
ATOM      4  C   UNL d   1      25.476  -9.446  -5.569  0.00  0.00     0.034 A 
ATOM      5  C   UNL d   1      25.711 -10.650  -6.210  0.00  0.00     0.032 A 
ATOM      6  C   UNL d   1      26.068 -11.831  -5.598  0.00  0.00     0.032 A 
ENDROOT
BRANCH   4   7
ATOM      7  N   UNL d   1      25.246  -8.224  -6.329  0.00  0.00    -0.333 N 
ATOM      8  H   UNL d   1      25.428  -8.312  -7.326  0.00  0.00     0.168 HD
BRANCH   7   9
ATOM      9  C   UNL d   1      24.628  -7.020  -5.843  0.00  0.00     0.179 C 
ATOM     10  S   UNL d   1      24.981  -6.198  -4.406  0.00  0.00    -0.040 SA
BRANCH   9  11
ATOM     11  N   UNL d   1      23.637  -6.487  -6.691  0.00  0.00    -0.299 N 
ATOM     12  C   UNL d   1      22.271  -6.434  -6.341  0.00  0.00     0.260 C 
ATOM     13  O   UNL d   1      21.794  -6.525  -5.205  0.00  0.00    -0.267 OA
ATOM     14  H   UNL d   1      23.840  -6.537  -7.681  0.00  0.00     0.171 HD
BRANCH  12  15
ATOM     15  C   UNL d   1      21.209  -6.189  -7.321  0.00  0.00     0.065 A 
ATOM     16  C   UNL d   1      19.898  -6.401  -6.804  0.00  0.00     0.020 A 
ATOM     17  C   UNL d   1      18.784  -6.459  -7.634  0.00  0.00     0.001 A 
ATOM     18  C   UNL d   1      18.947  -6.237  -8.993  0.00  0.00     0.002 A 
ATOM     19  C   UNL d   1      20.225  -6.040  -9.522  0.00  0.00     0.037 A 
ATOM     20  C   UNL d   1      21.367  -6.037  -8.699  0.00  0.00     0.118 A 
BRANCH  20  21
ATOM     21  N   UNL d   1      22.674  -5.899  -9.350  0.00  0.00    -0.115 N 
ATOM     22  O   UNL d   1      22.959  -4.780  -9.817  0.00  0.00    -0.532 OA
ATOM     23  O   UNL d   1      23.456  -6.842  -9.355  0.00  0.00    -0.532 OA
ENDBRANCH  20  21
ENDBRANCH  12  15
ENDBRANCH   9  11
ENDBRANCH   7   9
ENDBRANCH   4   7
BRANCH   1  24
ATOM     24  N   UNL d   1      26.408 -13.171  -3.659  0.00  0.00    -0.325 N 
ATOM     25  C   UNL d   1      25.471 -14.199  -3.682  0.00  0.00     0.251 C 
ATOM     26  O   UNL d   1      24.396 -14.107  -4.285  0.00  0.00    -0.270 OA
ATOM     27  H   UNL d   1      27.335 -13.340  -3.300  0.00  0.00     0.169 HD
BRANCH  25  28
ATOM     28  C   UNL d   1      25.822 -15.487  -2.902  0.00  0.00     0.217 C 
ATOM     29  C   UNL d   1      27.342 -15.553  -2.962  0.00  0.00     0.050 C 
BRANCH  28  30
ATOM     30  O   UNL d   1      25.319 -15.414  -1.547  0.00  0.00    -0.335 OA
BRANCH  30  31
ATOM     31  C   UNL d   1      24.603 -16.491  -1.069  0.00  0.00     0.091 C 
ATOM     32  C   UNL d   1      23.207 -16.327  -1.021  0.00  0.00     0.038 C 
ATOM     33  C   UNL d   1      22.375 -17.344  -0.523  0.00  0.00     0.003 C 
ATOM     34  C   UNL d   1      22.914 -18.565  -0.135  0.00  0.00     0.002 C 
ATOM     35  C   UNL d   1      24.288 -18.729  -0.143  0.00  0.00     0.026 C 
ATOM     36  C   UNL d   1      25.124 -17.662  -0.481  0.00  0.00     0.067 C 
ATOM     37 CL   UNL d   1      26.714 -17.862   0.188  0.00  0.00    -0.081 Cl
ENDBRANCH  30  31
ENDBRANCH  28  30
ENDBRANCH  25  28
ENDBRANCH   1  24
TORSDOF 9
ENDMDL
MODEL 3
REMARK VINA RESULT:    -8.333      4.322      6.653
REMARK INTER + INTRA:         -13.807
REMARK INTER:                 -11.017
REMARK INTRA:                  -2.790
REMARK CONF_INDEPENDENT:        2.685
REMARK UNBOUND:                -2.790
REMARK  9 active torsions:
REMARK  status: ('A' for Active; 'I' for Inactive)
REMARK    1  A    between atoms: C_2  and  O_3 
REMARK    2  A    between atoms: C_2  and  C_11 
REMARK    3  A    between atoms: O_3  and  C_4 
REMARK       I    between atoms: C_11  and  N_13 
REMARK    4  A    between atoms: N_13  and  C_14 
REMARK    5  A    between atoms: C_17  and  N_18 
REMARK    6  A    between atoms: N_18  and  C_19 
REMARK    7  A    between atoms: C_19  and  N_21 
REMARK       I    between atoms: N_21  and  C_22 
REMARK    8  A    between atoms: C_22  and  C_24 
REMARK    9  A    between atoms: C_29  and  N_30 
ROOT
ATOM      1  C   UNL d   1      27.330 -14.214   1.013  0.00  0.00     0.034 A 
ATOM      2  C   UNL d   1      28.605 -14.463   1.531  0.00  0.00     0.032 A 
ATOM      3  C   UNL d   1      29.067 -13.794   2.717  0.00  0.00     0.032 A 
ATOM      4  C   UNL d   1      28.247 -12.869   3.388  0.00  0.00     0.034 A 
ATOM      5  C   UNL d   1      26.972 -12.754   2.861  0.00  0.00     0.032 A 
ATOM      6  C   UNL d   1      26.525 -13.343   1.700  0.00  0.00     0.032 A 
ENDROOT
BRANCH   4   7
ATOM      7  N   UNL d   1      28.654 -12.084   4.546  0.00  0.00    -0.333 N 
ATOM      8  H   UNL d   1      29.109 -12.624   5.277  0.00  0.00     0.168 HD
BRANCH   7   9
ATOM      9  C   UNL d   1      28.642 -10.650   4.651  0.00  0.00     0.179 C 
ATOM     10  S   UNL d   1      28.903  -9.724   6.043  0.00  0.00    -0.040 SA
BRANCH   9  11
ATOM     11  N   UNL d   1      28.402  -9.975   3.436  0.00  0.00    -0.299 N 
ATOM     12  C   UNL d   1      27.107  -9.663   2.973  0.00  0.00     0.260 C 
ATOM     13  O   UNL d   1      26.070  -9.624   3.643  0.00  0.00    -0.267 OA
ATOM     14  H   UNL d   1      29.111 -10.098   2.725  0.00  0.00     0.171 HD
BRANCH  12  15
ATOM     15  C   UNL d   1      26.833  -9.263   1.589  0.00  0.00     0.065 A 
ATOM     16  C   UNL d   1      27.350 -10.173   0.622  0.00  0.00     0.020 A 
ATOM     17  C   UNL d   1      27.409  -9.850  -0.729  0.00  0.00     0.001 A 
ATOM     18  C   UNL d   1      26.888  -8.637  -1.153  0.00  0.00     0.002 A 
ATOM     19  C   UNL d   1      26.388  -7.725  -0.219  0.00  0.00     0.037 A 
ATOM     20  C   UNL d   1      26.377  -8.018   1.158  0.00  0.00     0.118 A 
BRANCH  20  21
ATOM     21  N   UNL d   1      25.904  -6.971   2.071  0.00  0.00    -0.115 N 
ATOM     22  O   UNL d   1      25.030  -6.196   1.639  0.00  0.00    -0.532 OA
ATOM     23  O   UNL d   1      26.319  -6.933   3.223  0.00  0.00    -0.532 OA
ENDBRANCH  20  21
ENDBRANCH  12  15
ENDBRANCH   9  11
ENDBRANCH   7   9
ENDBRANCH   4   7
BRANCH   1  24
ATOM     24  N   UNL d   1      26.789 -14.849  -0.126  0.00  0.00    -0.325 N 
ATOM     25  C   UNL d   1      26.425 -14.108  -1.246  0.00  0.00     0.251 C 
ATOM     26  O   UNL d   1      26.651 -12.897  -1.345  0.00  0.00    -0.270 OA
ATOM     27  H   UNL d   1      26.739 -15.856  -0.149  0.00  0.00     0.169 HD
BRANCH  25  28
ATOM     28  C   UNL d   1      25.704 -14.865  -2.386  0.00  0.00     0.217 C 
ATOM     29  C   UNL d   1      26.397 -14.375  -3.650  0.00  0.00     0.050 C 
BRANCH  28  30
ATOM     30  O   UNL d   1      25.824 -16.295  -2.201  0.00  0.00    -0.335 OA
BRANCH  30  31
ATOM     31  C   UNL d   1      24.909 -16.914  -1.376  0.00  0.00     0.091 C 
ATOM     32  C   UNL d   1      23.620 -16.351  -1.357  0.00  0.00     0.038 C 
ATOM     33  C   UNL d   1      22.613 -16.877  -0.531  0.00  0.00     0.003 C 
ATOM     34  C   UNL d   1      22.852 -18.015   0.231  0.00  0.00     0.002 C 
ATOM     35  C   UNL d   1      24.123 -18.560   0.250  0.00  0.00     0.026 C 
ATOM     36  C   UNL d   1      25.166 -17.939  -0.442  0.00  0.00     0.067 C 
ATOM     37 CL   UNL d   1      26.714 -18.365   0.222  0.00  0.00    -0.081 Cl
ENDBRANCH  30  31
ENDBRANCH  28  30
ENDBRANCH  25  28
ENDBRANCH   1  24
TORSDOF 9
ENDMDL
MODEL 4
REMARK VINA RESULT:    -8.152      6.731      8.650
REMARK INTER + INTRA:         -13.467
REMARK INTER:                 -10.836
REMARK INTRA:                  -2.630
REMARK CONF_INDEPENDENT:        2.685
REMARK UNBOUND:                -2.630
REMARK  9 active torsions:
REMARK  status: ('A' for Active; 'I' for Inactive)
REMARK    1  A    between atoms: C_2  and  O_3 
REMARK    2  A    between atoms: C_2  and  C_11 
REMARK    3  A    between atoms: O_3  and  C_4 
REMARK       I    between atoms: C_11  and  N_13 
REMARK    4  A    between atoms: N_13  and  C_14 
REMARK    5  A    between atoms: C_17  and  N_18 
REMARK    6  A    between atoms: N_18  and  C_19 
REMARK    7  A    between atoms: C_19  and  N_21 
REMARK       I    between atoms: N_21  and  C_22 
REMARK    8  A    between atoms: C_22  and  C_24 
REMARK    9  A    between atoms: C_29  and  N_30 
ROOT
ATOM      1  C   UNL d   1      25.136 -16.009  -1.222  0.00  0.00     0.034 A 
ATOM      2  C   UNL d   1      25.132 -15.135  -2.313  0.00  0.00     0.032 A 
ATOM      3  C   UNL d   1      25.898 -13.918  -2.292  0.00  0.00     0.032 A 
ATOM      4  C   UNL d   1      26.673 -13.576  -1.170  0.00  0.00     0.034 A 
ATOM      5  C   UNL d   1      26.692 -14.540  -0.176  0.00  0.00     0.032 A 
ATOM      6  C   UNL d   1      25.928 -15.685  -0.152  0.00  0.00     0.032 A 
ENDROOT
BRANCH   4   7
ATOM      7  N   UNL d   1      27.417 -12.332  -1.022  0.00  0.00    -0.333 N 
ATOM      8  H   UNL d   1      27.511 -11.797  -1.882  0.00  0.00     0.168 HD
BRANCH   7   9
ATOM      9  C   UNL d   1      27.839 -11.732   0.215  0.00  0.00     0.179 C 
ATOM     10  S   UNL d   1      28.931 -12.368   1.340  0.00  0.00    -0.040 SA
BRANCH   9  11
ATOM     11  N   UNL d   1      27.273 -10.468   0.476  0.00  0.00    -0.299 N 
ATOM     12  C   UNL d   1      27.058  -9.499  -0.527  0.00  0.00     0.260 C 
ATOM     13  O   UNL d   1      27.016  -9.692  -1.746  0.00  0.00    -0.267 OA
ATOM     14  H   UNL d   1      27.416 -10.113   1.413  0.00  0.00     0.171 HD
BRANCH  12  15
ATOM     15  C   UNL d   1      26.780  -8.091  -0.225  0.00  0.00     0.065 A 
ATOM     16  C   UNL d   1      27.255  -7.192  -1.223  0.00  0.00     0.020 A 
ATOM     17  C   UNL d   1      27.308  -5.819  -1.006  0.00  0.00     0.001 A 
ATOM     18  C   UNL d   1      26.822  -5.309   0.188  0.00  0.00     0.002 A 
ATOM     19  C   UNL d   1      26.365  -6.175   1.185  0.00  0.00     0.037 A 
ATOM     20  C   UNL d   1      26.361  -7.570   0.999  0.00  0.00     0.118 A 
BRANCH  20  21
ATOM     21  N   UNL d   1      25.935  -8.405   2.128  0.00  0.00    -0.115 N 
ATOM     22  O   UNL d   1      24.770  -8.846   2.098  0.00  0.00    -0.532 OA
ATOM     23  O   UNL d   1      26.736  -8.695   3.008  0.00  0.00    -0.532 OA
ENDBRANCH  20  21
ENDBRANCH  12  15
ENDBRANCH   9  11
ENDBRANCH   7   9
ENDBRANCH   4   7
BRANCH   1  24
ATOM     24  N   UNL d   1      24.437 -17.235  -1.173  0.00  0.00    -0.325 N 
ATOM     25  C   UNL d   1      23.101 -17.275  -0.786  0.00  0.00     0.251 C 
ATOM     26  O   UNL d   1      22.438 -16.255  -0.574  0.00  0.00    -0.270 OA
ATOM     27  H   UNL d   1      24.895 -18.074  -1.495  0.00  0.00     0.169 HD
BRANCH  25  28
ATOM     28  C   UNL d   1      22.461 -18.673  -0.617  0.00  0.00     0.217 C 
ATOM     29  C   UNL d   1      23.652 -19.616  -0.523  0.00  0.00     0.050 C 
BRANCH  28  30
ATOM     30  O   UNL d   1      21.624 -18.709   0.563  0.00  0.00    -0.335 OA
BRANCH  30  31
ATOM     31  C   UNL d   1      20.483 -19.482   0.518  0.00  0.00     0.091 C 
ATOM     32  C   UNL d   1      19.706 -19.362  -0.648  0.00  0.00     0.038 C 
ATOM     33  C   UNL d   1      18.505 -20.076  -0.795  0.00  0.00     0.003 C 
ATOM     34  C   UNL d   1      18.099 -20.976   0.184  0.00  0.00     0.002 C 
ATOM     35  C   UNL d   1      18.834 -21.080   1.351  0.00  0.00     0.026 C 
ATOM     36  C   UNL d   1      19.936 -20.249   1.567  0.00  0.00     0.067 C 
ATOM     37 CL   UNL d   1      20.280 -20.074   3.261  0.00  0.00    -0.081 Cl
ENDBRANCH  30  31
ENDBRANCH  28  30
ENDBRANCH  25  28
ENDBRANCH   1  24
TORSDOF 9
ENDMDL
MODEL 5
REMARK VINA RESULT:    -8.092      6.244      8.371
REMARK INTER + INTRA:         -13.702
REMARK INTER:                 -10.776
REMARK INTRA:                  -2.926
REMARK CONF_INDEPENDENT:        2.685
REMARK UNBOUND:                -2.926
REMARK  9 active torsions:
REMARK  status: ('A' for Active; 'I' for Inactive)
REMARK    1  A    between atoms: C_2  and  O_3 
REMARK    2  A    between atoms: C_2  and  C_11 
REMARK    3  A    between atoms: O_3  and  C_4 
REMARK       I    between atoms: C_11  and  N_13 
REMARK    4  A    between atoms: N_13  and  C_14 
REMARK    5  A    between atoms: C_17  and  N_18 
REMARK    6  A    between atoms: N_18  and  C_19 
REMARK    7  A    between atoms: C_19  and  N_21 
REMARK       I    between atoms: N_21  and  C_22 
REMARK    8  A    between atoms: C_22  and  C_24 
REMARK    9  A    between atoms: C_29  and  N_30 
ROOT
ATOM      1  C   UNL d   1      26.011 -11.528  -4.602  0.00  0.00     0.034 A 
ATOM      2  C   UNL d   1      25.815 -10.434  -5.452  0.00  0.00     0.032 A 
ATOM      3  C   UNL d   1      25.633  -9.108  -4.925  0.00  0.00     0.032 A 
ATOM      4  C   UNL d   1      25.647  -8.877  -3.538  0.00  0.00     0.034 A 
ATOM      5  C   UNL d   1      25.939  -9.997  -2.778  0.00  0.00     0.032 A 
ATOM      6  C   UNL d   1      26.065 -11.282  -3.255  0.00  0.00     0.032 A 
ENDROOT
BRANCH   4   7
ATOM      7  N   UNL d   1      25.393  -7.589  -2.907  0.00  0.00    -0.333 N 
ATOM      8  H   UNL d   1      24.446  -7.240  -3.037  0.00  0.00     0.168 HD
BRANCH   7   9
ATOM      9  C   UNL d   1      26.266  -6.897  -1.998  0.00  0.00     0.179 C 
ATOM     10  S   UNL d   1      26.990  -5.385  -2.228  0.00  0.00    -0.040 SA
BRANCH   9  11
ATOM     11  N   UNL d   1      26.506  -7.574  -0.786  0.00  0.00    -0.299 N 
ATOM     12  C   UNL d   1      27.453  -8.612  -0.659  0.00  0.00     0.260 C 
ATOM     13  O   UNL d   1      28.390  -8.858  -1.426  0.00  0.00    -0.267 OA
ATOM     14  H   UNL d   1      25.724  -7.605  -0.144  0.00  0.00     0.171 HD
BRANCH  12  15
ATOM     15  C   UNL d   1      27.481  -9.527   0.486  0.00  0.00     0.065 A 
ATOM     16  C   UNL d   1      28.269 -10.693   0.263  0.00  0.00     0.020 A 
ATOM     17  C   UNL d   1      28.222 -11.784   1.125  0.00  0.00     0.001 A 
ATOM     18  C   UNL d   1      27.438 -11.705   2.266  0.00  0.00     0.002 A 
ATOM     19  C   UNL d   1      26.648 -10.576   2.496  0.00  0.00     0.037 A 
ATOM     20  C   UNL d   1      26.643  -9.490   1.600  0.00  0.00     0.118 A 
BRANCH  20  21
ATOM     21  N   UNL d   1      25.725  -8.380   1.883  0.00  0.00    -0.115 N 
ATOM     22  O   UNL d   1      26.002  -7.651   2.855  0.00  0.00    -0.532 OA
ATOM     23  O   UNL d   1      24.779  -8.166   1.136  0.00  0.00    -0.532 OA
ENDBRANCH  20  21
ENDBRANCH  12  15
ENDBRANCH   9  11
ENDBRANCH   7   9
ENDBRANCH   4   7
BRANCH   1  24
ATOM     24  N   UNL d   1      26.227 -12.853  -5.038  0.00  0.00    -0.325 N 
ATOM     25  C   UNL d   1      25.385 -13.881  -4.625  0.00  0.00     0.251 C 
ATOM     26  O   UNL d   1      24.364 -13.679  -3.960  0.00  0.00    -0.270 OA
ATOM     27  H   UNL d   1      26.954 -13.036  -5.712  0.00  0.00     0.169 HD
BRANCH  25  28
ATOM     28  C   UNL d   1      25.784 -15.320  -5.028  0.00  0.00     0.217 C 
ATOM     29  C   UNL d   1      27.255 -15.204  -5.407  0.00  0.00     0.050 C 
BRANCH  28  30
ATOM     30  O   UNL d   1      25.560 -16.236  -3.931  0.00  0.00    -0.335 OA
BRANCH  30  31
ATOM     31  C   UNL d   1      25.880 -15.806  -2.660  0.00  0.00     0.091 C 
ATOM     32  C   UNL d   1      27.140 -15.199  -2.517  0.00  0.00     0.038 C 
ATOM     33  C   UNL d   1      27.588 -14.750  -1.263  0.00  0.00     0.003 C 
ATOM     34  C   UNL d   1      26.760 -14.831  -0.150  0.00  0.00     0.002 C 
ATOM     35  C   UNL d   1      25.531 -15.457  -0.267  0.00  0.00     0.026 C 
ATOM     36  C   UNL d   1      25.156 -16.051  -1.475  0.00  0.00     0.067 C 
ATOM     37 CL   UNL d   1      23.963 -17.290  -1.231  0.00  0.00    -0.081 Cl
ENDBRANCH  30  31
ENDBRANCH  28  30
ENDBRANCH  25  28
ENDBRANCH   1  24
TORSDOF 9
ENDMDL
MODEL 6
REMARK VINA RESULT:    -7.998      3.567      5.185
REMARK INTER + INTRA:         -13.708
REMARK INTER:                 -10.683
REMARK INTRA:                  -3.025
REMARK CONF_INDEPENDENT:        2.685
REMARK UNBOUND:                -3.025
REMARK  9 active torsions:
REMARK  status: ('A' for Active; 'I' for Inactive)
REMARK    1  A    between atoms: C_2  and  O_3 
REMARK    2  A    between atoms: C_2  and  C_11 
REMARK    3  A    between atoms: O_3  and  C_4 
REMARK       I    between atoms: C_11  and  N_13 
REMARK    4  A    between atoms: N_13  and  C_14 
REMARK    5  A    between atoms: C_17  and  N_18 
REMARK    6  A    between atoms: N_18  and  C_19 
REMARK    7  A    between atoms: C_19  and  N_21 
REMARK       I    between atoms: N_21  and  C_22 
REMARK    8  A    between atoms: C_22  and  C_24 
REMARK    9  A    between atoms: C_29  and  N_30 
ROOT
ATOM      1  C   UNL d   1      27.382 -14.283   0.985  0.00  0.00     0.034 A 
ATOM      2  C   UNL d   1      26.738 -13.248   1.672  0.00  0.00     0.032 A 
ATOM      3  C   UNL d   1      27.330 -12.650   2.837  0.00  0.00     0.032 A 
ATOM      4  C   UNL d   1      28.576 -13.091   3.318  0.00  0.00     0.034 A 
ATOM      5  C   UNL d   1      29.183 -14.052   2.527  0.00  0.00     0.032 A 
ATOM      6  C   UNL d   1      28.613 -14.675   1.439  0.00  0.00     0.032 A 
ENDROOT
BRANCH   4   7
ATOM      7  N   UNL d   1      29.218 -12.605   4.532  0.00  0.00    -0.333 N 
ATOM      8  H   UNL d   1      30.230 -12.531   4.469  0.00  0.00     0.168 HD
BRANCH   7   9
ATOM      9  C   UNL d   1      28.556 -12.063   5.688  0.00  0.00     0.179 C 
ATOM     10  S   UNL d   1      28.156 -12.881   7.115  0.00  0.00    -0.040 SA
BRANCH   9  11
ATOM     11  N   UNL d   1      28.239 -10.693   5.593  0.00  0.00    -0.299 N 
ATOM     12  C   UNL d   1      29.207  -9.671   5.683  0.00  0.00     0.260 C 
ATOM     13  O   UNL d   1      30.428  -9.792   5.535  0.00  0.00    -0.267 OA
ATOM     14  H   UNL d   1      27.302 -10.444   5.881  0.00  0.00     0.171 HD
BRANCH  12  15
ATOM     15  C   UNL d   1      28.859  -8.265   5.909  0.00  0.00     0.065 A 
ATOM     16  C   UNL d   1      29.501  -7.697   7.048  0.00  0.00     0.020 A 
ATOM     17  C   UNL d   1      29.116  -6.465   7.566  0.00  0.00     0.001 A 
ATOM     18  C   UNL d   1      28.127  -5.742   6.917  0.00  0.00     0.002 A 
ATOM     19  C   UNL d   1      27.476  -6.287   5.807  0.00  0.00     0.037 A 
ATOM     20  C   UNL d   1      27.818  -7.559   5.308  0.00  0.00     0.118 A 
BRANCH  20  21
ATOM     21  N   UNL d   1      27.030  -8.082   4.187  0.00  0.00    -0.115 N 
ATOM     22  O   UNL d   1      26.828  -7.312   3.228  0.00  0.00    -0.532 OA
ATOM     23  O   UNL d   1      26.663  -9.251   4.192  0.00  0.00    -0.532 OA
ENDBRANCH  20  21
ENDBRANCH  12  15
ENDBRANCH   9  11
ENDBRANCH   7   9
ENDBRANCH   4   7
BRANCH   1  24
ATOM     24  N   UNL d   1      26.883 -14.903  -0.182  0.00  0.00    -0.325 N 
ATOM     25  C   UNL d   1      26.397 -14.140  -1.239  0.00  0.00     0.251 C 
ATOM     26  O   UNL d   1      26.472 -12.907  -1.259  0.00  0.00    -0.270 OA
ATOM     27  H   UNL d   1      26.954 -15.905  -0.273  0.00  0.00     0.169 HD
BRANCH  25  28
ATOM     28  C   UNL d   1      25.735 -14.903  -2.409  0.00  0.00     0.217 C 
ATOM     29  C   UNL d   1      26.489 -14.418  -3.640  0.00  0.00     0.050 C 
BRANCH  28  30
ATOM     30  O   UNL d   1      25.846 -16.332  -2.212  0.00  0.00    -0.335 OA
BRANCH  30  31
ATOM     31  C   UNL d   1      24.926 -16.939  -1.383  0.00  0.00     0.091 C 
ATOM     32  C   UNL d   1      23.641 -16.369  -1.370  0.00  0.00     0.038 C 
ATOM     33  C   UNL d   1      22.630 -16.882  -0.541  0.00  0.00     0.003 C 
ATOM     34  C   UNL d   1      22.861 -18.015   0.230  0.00  0.00     0.002 C 
ATOM     35  C   UNL d   1      24.129 -18.567   0.255  0.00  0.00     0.026 C 
ATOM     36  C   UNL d   1      25.177 -17.957  -0.440  0.00  0.00     0.067 C 
ATOM     37 CL   UNL d   1      26.721 -18.387   0.230  0.00  0.00    -0.081 Cl
ENDBRANCH  30  31
ENDBRANCH  28  30
ENDBRANCH  25  28
ENDBRANCH   1  24
TORSDOF 9
ENDMDL
MODEL 7
REMARK VINA RESULT:    -7.551      2.163      2.880
REMARK INTER + INTRA:         -13.948
REMARK INTER:                 -10.236
REMARK INTRA:                  -3.712
REMARK CONF_INDEPENDENT:        2.685
REMARK UNBOUND:                -3.712
REMARK  9 active torsions:
REMARK  status: ('A' for Active; 'I' for Inactive)
REMARK    1  A    between atoms: C_2  and  O_3 
REMARK    2  A    between atoms: C_2  and  C_11 
REMARK    3  A    between atoms: O_3  and  C_4 
REMARK       I    between atoms: C_11  and  N_13 
REMARK    4  A    between atoms: N_13  and  C_14 
REMARK    5  A    between atoms: C_17  and  N_18 
REMARK    6  A    between atoms: N_18  and  C_19 
REMARK    7  A    between atoms: C_19  and  N_21 
REMARK       I    between atoms: N_21  and  C_22 
REMARK    8  A    between atoms: C_22  and  C_24 
REMARK    9  A    between atoms: C_29  and  N_30 
ROOT
ATOM      1  C   UNL d   1      28.407 -14.737   0.899  0.00  0.00     0.034 A 
ATOM      2  C   UNL d   1      29.802 -14.833   0.940  0.00  0.00     0.032 A 
ATOM      3  C   UNL d   1      30.535 -14.480   2.126  0.00  0.00     0.032 A 
ATOM      4  C   UNL d   1      29.866 -14.029   3.278  0.00  0.00     0.034 A 
ATOM      5  C   UNL d   1      28.485 -14.054   3.180  0.00  0.00     0.032 A 
ATOM      6  C   UNL d   1      27.765 -14.337   2.041  0.00  0.00     0.032 A 
ENDROOT
BRANCH   4   7
ATOM      7  N   UNL d   1      30.523 -13.574   4.496  0.00  0.00    -0.333 N 
ATOM      8  H   UNL d   1      31.148 -14.259   4.914  0.00  0.00     0.168 HD
BRANCH   7   9
ATOM      9  C   UNL d   1      30.514 -12.236   5.021  0.00  0.00     0.179 C 
ATOM     10  S   UNL d   1      30.740 -10.797   4.159  0.00  0.00    -0.040 SA
BRANCH   9  11
ATOM     11  N   UNL d   1      30.267 -12.151   6.407  0.00  0.00    -0.299 N 
ATOM     12  C   UNL d   1      30.042 -13.284   7.218  0.00  0.00     0.260 C 
ATOM     13  O   UNL d   1      30.329 -14.455   6.951  0.00  0.00    -0.267 OA
ATOM     14  H   UNL d   1      29.843 -11.289   6.720  0.00  0.00     0.171 HD
BRANCH  12  15
ATOM     15  C   UNL d   1      29.473 -13.194   8.566  0.00  0.00     0.065 A 
ATOM     16  C   UNL d   1      29.246 -14.463   9.173  0.00  0.00     0.020 A 
ATOM     17  C   UNL d   1      28.494 -14.595  10.335  0.00  0.00     0.001 A 
ATOM     18  C   UNL d   1      28.009 -13.453  10.955  0.00  0.00     0.002 A 
ATOM     19  C   UNL d   1      28.210 -12.200  10.369  0.00  0.00     0.037 A 
ATOM     20  C   UNL d   1      28.920 -12.060   9.162  0.00  0.00     0.118 A 
BRANCH  20  21
ATOM     21  N   UNL d   1      29.015 -10.716   8.581  0.00  0.00    -0.115 N 
ATOM     22  O   UNL d   1      29.662  -9.867   9.223  0.00  0.00    -0.532 OA
ATOM     23  O   UNL d   1      28.530 -10.492   7.479  0.00  0.00    -0.532 OA
ENDBRANCH  20  21
ENDBRANCH  12  15
ENDBRANCH   9  11
ENDBRANCH   7   9
ENDBRANCH   4   7
BRANCH   1  24
ATOM     24  N   UNL d   1      27.611 -15.091  -0.212  0.00  0.00    -0.325 N 
ATOM     25  C   UNL d   1      26.733 -14.171  -0.777  0.00  0.00     0.251 C 
ATOM     26  O   UNL d   1      26.682 -12.991  -0.416  0.00  0.00    -0.270 OA
ATOM     27  H   UNL d   1      27.740 -15.995  -0.640  0.00  0.00     0.169 HD
BRANCH  25  28
ATOM     28  C   UNL d   1      25.795 -14.690  -1.892  0.00  0.00     0.217 C 
ATOM     29  C   UNL d   1      26.328 -14.033  -3.159  0.00  0.00     0.050 C 
BRANCH  28  30
ATOM     30  O   UNL d   1      25.830 -16.135  -1.955  0.00  0.00    -0.335 OA
BRANCH  30  31
ATOM     31  C   UNL d   1      24.898 -16.833  -1.215  0.00  0.00     0.091 C 
ATOM     32  C   UNL d   1      23.582 -16.341  -1.267  0.00  0.00     0.038 C 
ATOM     33  C   UNL d   1      22.553 -16.951  -0.529  0.00  0.00     0.003 C 
ATOM     34  C   UNL d   1      22.804 -18.101   0.209  0.00  0.00     0.002 C 
ATOM     35  C   UNL d   1      24.100 -18.577   0.297  0.00  0.00     0.026 C 
ATOM     36  C   UNL d   1      25.151 -17.875  -0.300  0.00  0.00     0.067 C 
ATOM     37 CL   UNL d   1      26.672 -18.241   0.455  0.00  0.00    -0.081 Cl
ENDBRANCH  30  31
ENDBRANCH  28  30
ENDBRANCH  25  28
ENDBRANCH   1  24
TORSDOF 9
ENDMDL
MODEL 8
REMARK VINA RESULT:    -7.463      6.464      8.672
REMARK INTER + INTRA:         -13.600
REMARK INTER:                 -10.147
REMARK INTRA:                  -3.453
REMARK CONF_INDEPENDENT:        2.685
REMARK UNBOUND:                -3.453
REMARK  9 active torsions:
REMARK  status: ('A' for Active; 'I' for Inactive)
REMARK    1  A    between atoms: C_2  and  O_3 
REMARK    2  A    between atoms: C_2  and  C_11 
REMARK    3  A    between atoms: O_3  and  C_4 
REMARK       I    between atoms: C_11  and  N_13 
REMARK    4  A    between atoms: N_13  and  C_14 
REMARK    5  A    between atoms: C_17  and  N_18 
REMARK    6  A    between atoms: N_18  and  C_19 
REMARK    7  A    between atoms: C_19  and  N_21 
REMARK       I    between atoms: N_21  and  C_22 
REMARK    8  A    between atoms: C_22  and  C_24 
REMARK    9  A    between atoms: C_29  and  N_30 
ROOT
ATOM      1  C   UNL d   1      26.253 -11.127  -5.093  0.00  0.00     0.034 A 
ATOM      2  C   UNL d   1      26.329  -9.908  -5.775  0.00  0.00     0.032 A 
ATOM      3  C   UNL d   1      26.016  -8.669  -5.116  0.00  0.00     0.032 A 
ATOM      4  C   UNL d   1      25.624  -8.650  -3.766  0.00  0.00     0.034 A 
ATOM      5  C   UNL d   1      25.665  -9.887  -3.145  0.00  0.00     0.032 A 
ATOM      6  C   UNL d   1      25.910 -11.091  -3.767  0.00  0.00     0.032 A 
ENDROOT
BRANCH   4   7
ATOM      7  N   UNL d   1      25.211  -7.459  -3.037  0.00  0.00    -0.333 N 
ATOM      8  H   UNL d   1      24.301  -7.097  -3.310  0.00  0.00     0.168 HD
BRANCH   7   9
ATOM      9  C   UNL d   1      25.861  -6.895  -1.885  0.00  0.00     0.179 C 
ATOM     10  S   UNL d   1      26.396  -5.301  -1.691  0.00  0.00    -0.040 SA
BRANCH   9  11
ATOM     11  N   UNL d   1      26.040  -7.794  -0.814  0.00  0.00    -0.299 N 
ATOM     12  C   UNL d   1      27.179  -8.616  -0.681  0.00  0.00     0.260 C 
ATOM     13  O   UNL d   1      28.270  -8.464  -1.239  0.00  0.00    -0.267 OA
ATOM     14  H   UNL d   1      25.188  -8.143  -0.395  0.00  0.00     0.171 HD
BRANCH  12  15
ATOM     15  C   UNL d   1      27.228  -9.764   0.228  0.00  0.00     0.065 A 
ATOM     16  C   UNL d   1      27.670 -10.966  -0.397  0.00  0.00     0.020 A 
ATOM     17  C   UNL d   1      27.550 -12.203   0.227  0.00  0.00     0.001 A 
ATOM     18  C   UNL d   1      27.050 -12.258   1.519  0.00  0.00     0.002 A 
ATOM     19  C   UNL d   1      26.598 -11.093   2.145  0.00  0.00     0.037 A 
ATOM     20  C   UNL d   1      26.660  -9.843   1.500  0.00  0.00     0.118 A 
BRANCH  20  21
ATOM     21  N   UNL d   1      26.093  -8.687   2.203  0.00  0.00    -0.115 N 
ATOM     22  O   UNL d   1      26.654  -8.336   3.260  0.00  0.00    -0.532 OA
ATOM     23  O   UNL d   1      25.155  -8.073   1.710  0.00  0.00    -0.532 OA
ENDBRANCH  20  21
ENDBRANCH  12  15
ENDBRANCH   9  11
ENDBRANCH   7   9
ENDBRANCH   4   7
BRANCH   1  24
ATOM     24  N   UNL d   1      26.572 -12.382  -5.655  0.00  0.00    -0.325 N 
ATOM     25  C   UNL d   1      27.835 -12.938  -5.481  0.00  0.00     0.251 C 
ATOM     26  O   UNL d   1      28.691 -12.429  -4.751  0.00  0.00    -0.270 OA
ATOM     27  H   UNL d   1      25.848 -12.907  -6.123  0.00  0.00     0.169 HD
BRANCH  25  28
ATOM     28  C   UNL d   1      28.142 -14.241  -6.256  0.00  0.00     0.217 C 
ATOM     29  C   UNL d   1      29.644 -14.426  -6.088  0.00  0.00     0.050 C 
BRANCH  28  30
ATOM     30  O   UNL d   1      27.379 -15.345  -5.716  0.00  0.00    -0.335 OA
BRANCH  30  31
ATOM     31  C   UNL d   1      26.845 -15.201  -4.452  0.00  0.00     0.091 C 
ATOM     32  C   UNL d   1      25.532 -14.702  -4.395  0.00  0.00     0.038 C 
ATOM     33  C   UNL d   1      24.895 -14.482  -3.162  0.00  0.00     0.003 C 
ATOM     34  C   UNL d   1      25.527 -14.825  -1.973  0.00  0.00     0.002 C 
ATOM     35  C   UNL d   1      26.832 -15.285  -2.011  0.00  0.00     0.026 C 
ATOM     36  C   UNL d   1      27.523 -15.346  -3.224  0.00  0.00     0.067 C 
ATOM     37 CL   UNL d   1      29.242 -15.299  -2.981  0.00  0.00    -0.081 Cl
ENDBRANCH  30  31
ENDBRANCH  28  30
ENDBRANCH  25  28
ENDBRANCH   1  24
TORSDOF 9
ENDMDL
MODEL 9
REMARK VINA RESULT:    -7.413      1.670      2.093
REMARK INTER + INTRA:         -13.926
REMARK INTER:                 -10.098
REMARK INTRA:                  -3.828
REMARK CONF_INDEPENDENT:        2.685
REMARK UNBOUND:                -3.828
REMARK  9 active torsions:
REMARK  status: ('A' for Active; 'I' for Inactive)
REMARK    1  A    between atoms: C_2  and  O_3 
REMARK    2  A    between atoms: C_2  and  C_11 
REMARK    3  A    between atoms: O_3  and  C_4 
REMARK       I    between atoms: C_11  and  N_13 
REMARK    4  A    between atoms: N_13  and  C_14 
REMARK    5  A    between atoms: C_17  and  N_18 
REMARK    6  A    between atoms: N_18  and  C_19 
REMARK    7  A    between atoms: C_19  and  N_21 
REMARK       I    between atoms: N_21  and  C_22 
REMARK    8  A    between atoms: C_22  and  C_24 
REMARK    9  A    between atoms: C_29  and  N_30 
ROOT
ATOM      1  C   UNL d   1      28.408 -14.511   1.733  0.00  0.00     0.034 A 
ATOM      2  C   UNL d   1      29.778 -14.284   1.900  0.00  0.00     0.032 A 
ATOM      3  C   UNL d   1      30.327 -13.981   3.194  0.00  0.00     0.032 A 
ATOM      4  C   UNL d   1      29.498 -13.904   4.327  0.00  0.00     0.034 A 
ATOM      5  C   UNL d   1      28.175 -14.232   4.088  0.00  0.00     0.032 A 
ATOM      6  C   UNL d   1      27.618 -14.475   2.852  0.00  0.00     0.032 A 
ENDROOT
BRANCH   4   7
ATOM      7  N   UNL d   1      29.947 -13.525   5.661  0.00  0.00    -0.333 N 
ATOM      8  H   UNL d   1      30.916 -13.763   5.858  0.00  0.00     0.168 HD
BRANCH   7   9
ATOM      9  C   UNL d   1      29.230 -12.709   6.602  0.00  0.00     0.179 C 
ATOM     10  S   UNL d   1      28.057 -11.539   6.256  0.00  0.00    -0.040 SA
BRANCH   9  11
ATOM     11  N   UNL d   1      29.553 -12.950   7.953  0.00  0.00    -0.299 N 
ATOM     12  C   UNL d   1      30.303 -14.068   8.376  0.00  0.00     0.260 C 
ATOM     13  O   UNL d   1      31.029 -14.781   7.676  0.00  0.00    -0.267 OA
ATOM     14  H   UNL d   1      28.904 -12.568   8.629  0.00  0.00     0.171 HD
BRANCH  12  15
ATOM     15  C   UNL d   1      30.366 -14.498   9.776  0.00  0.00     0.065 A 
ATOM     16  C   UNL d   1      31.197 -15.636   9.985  0.00  0.00     0.020 A 
ATOM     17  C   UNL d   1      31.192 -16.336  11.186  0.00  0.00     0.001 A 
ATOM     18  C   UNL d   1      30.406 -15.874  12.230  0.00  0.00     0.002 A 
ATOM     19  C   UNL d   1      29.573 -14.767  12.042  0.00  0.00     0.037 A 
ATOM     20  C   UNL d   1      29.527 -14.085  10.811  0.00  0.00     0.118 A 
BRANCH  20  21
ATOM     21  N   UNL d   1      28.568 -12.983  10.682  0.00  0.00    -0.115 N 
ATOM     22  O   UNL d   1      29.030 -11.825  10.695  0.00  0.00    -0.532 OA
ATOM     23  O   UNL d   1      27.381 -13.225  10.498  0.00  0.00    -0.532 OA
ENDBRANCH  20  21
ENDBRANCH  12  15
ENDBRANCH   9  11
ENDBRANCH   7   9
ENDBRANCH   4   7
BRANCH   1  24
ATOM     24  N   UNL d   1      27.793 -14.843   0.506  0.00  0.00    -0.325 N 
ATOM     25  C   UNL d   1      26.975 -13.927  -0.149  0.00  0.00     0.251 C 
ATOM     26  O   UNL d   1      26.832 -12.764   0.242  0.00  0.00    -0.270 OA
ATOM     27  H   UNL d   1      28.014 -15.725   0.070  0.00  0.00     0.169 HD
BRANCH  25  28
ATOM     28  C   UNL d   1      26.226 -14.428  -1.406  0.00  0.00     0.217 C 
ATOM     29  C   UNL d   1      26.898 -13.689  -2.555  0.00  0.00     0.050 C 
BRANCH  28  30
ATOM     30  O   UNL d   1      26.338 -15.866  -1.525  0.00  0.00    -0.335 OA
BRANCH  30  31
ATOM     31  C   UNL d   1      25.278 -16.631  -1.084  0.00  0.00     0.091 C 
ATOM     32  C   UNL d   1      24.001 -16.073  -1.269  0.00  0.00     0.038 C 
ATOM     33  C   UNL d   1      22.847 -16.746  -0.831  0.00  0.00     0.003 C 
ATOM     34  C   UNL d   1      22.944 -18.015  -0.272  0.00  0.00     0.002 C 
ATOM     35  C   UNL d   1      24.196 -18.562  -0.052  0.00  0.00     0.026 C 
ATOM     36  C   UNL d   1      25.347 -17.823  -0.335  0.00  0.00     0.067 C 
ATOM     37 CL   UNL d   1      26.707 -18.385   0.589  0.00  0.00    -0.081 Cl
ENDBRANCH  30  31
ENDBRANCH  28  30
ENDBRANCH  25  28
ENDBRANCH   1  24
TORSDOF 9
ENDMDL
