MODEL 1
REMARK VINA RESULT:    -9.834      0.000      0.000
REMARK INTER + INTRA:         -16.719
REMARK INTER:                 -13.413
REMARK INTRA:                  -3.305
REMARK CONF_INDEPENDENT:        3.580
REMARK UNBOUND:                -3.305
REMARK  12 active torsions:
REMARK  status: ('A' for Active; 'I' for Inactive)
REMARK    1  A    between atoms: C_2  and  C_3 
REMARK    2  A    between atoms: C_4  and  C_5 
REMARK    3  A    between atoms: C_5  and  O_7 
REMARK    4  A    between atoms: C_12  and  C_13 
REMARK    5  A    between atoms: N_14  and  C_13 
REMARK    6  A    between atoms: N_14  and  C_26 
REMARK    7  A    between atoms: N_14  and  C_15 
REMARK    8  A    between atoms: C_16  and  C_15 
REMARK    9  A    between atoms: C_16  and  C_18 
REMARK   10  A    between atoms: C_16  and  O_17 
REMARK   11  A    between atoms: C_18  and  O_19 
REMARK   12  A    between atoms: O_19  and  C_20 
ROOT
ATOM      1  N   UNL d   1      26.014 -16.504  -0.650  0.00  0.00    -0.058 N 
ATOM      2  H   UNL d   1      25.547 -15.680  -0.221  0.00  0.00     0.281 HD
ENDROOT
BRANCH   1   3
ATOM      3  C   UNL d   1      26.175 -16.106  -2.111  0.00  0.00     0.188 C 
ATOM      4  C   UNL d   1      25.223 -14.946  -2.430  0.00  0.00     0.033 C 
ATOM      5  C   UNL d   1      25.333 -14.409  -3.817  0.00  0.00     0.002 C 
ATOM      6  C   UNL d   1      26.764 -14.023  -4.091  0.00  0.00     0.000 C 
ATOM      7  C   UNL d   1      27.701 -15.211  -3.878  0.00  0.00     0.002 C 
ATOM      8  C   UNL d   1      27.607 -15.720  -2.453  0.00  0.00     0.033 C 
ENDBRANCH   1   3
BRANCH   1   9
ATOM      9  C   UNL d   1      25.061 -17.640  -0.285  0.00  0.00     0.269 C 
BRANCH   9  10
ATOM     10  C   UNL d   1      23.706 -17.624  -0.995  0.00  0.00     0.168 C 
BRANCH  10  11
ATOM     11  C   UNL d   1      22.693 -18.652  -0.435  0.00  0.00     0.209 C 
BRANCH  11  12
ATOM     12  O   UNL d   1      21.361 -18.404  -0.837  0.00  0.00    -0.349 OA
BRANCH  12  13
ATOM     13  C   UNL d   1      20.333 -19.072  -0.258  0.00  0.00     0.068 C 
ATOM     14  C   UNL d   1      20.562 -19.325   1.071  0.00  0.00     0.037 C 
ATOM     15  C   UNL d   1      19.800 -20.283   1.717  0.00  0.00     0.003 C 
ATOM     16  C   UNL d   1      18.725 -20.913   1.145  0.00  0.00     0.000 C 
ATOM     17  C   UNL d   1      18.406 -20.554  -0.142  0.00  0.00     0.003 C 
ATOM     18  C   UNL d   1      19.232 -19.666  -0.861  0.00  0.00     0.037 C 
ENDBRANCH  12  13
ENDBRANCH  11  12
ENDBRANCH  10  11
BRANCH  10  19
ATOM     19  O   UNL d   1      23.136 -16.317  -0.897  0.00  0.00    -0.392 OA
ATOM     20  H   UNL d   1      22.164 -16.390  -0.916  0.00  0.00     0.210 HD
ENDBRANCH  10  19
ENDBRANCH   9  10
ENDBRANCH   1   9
BRANCH   1  21
ATOM     21  C   UNL d   1      27.362 -16.477   0.034  0.00  0.00     0.313 C 
BRANCH  21  22
ATOM     22  C   UNL d   1      27.739 -15.113   0.551  0.00  0.00     0.134 C 
ATOM     23  N   UNL d   1      26.953 -14.072   0.536  0.00  0.00    -0.225 NA
ATOM     24  C   UNL d   1      27.414 -13.005   1.290  0.00  0.00     0.116 A 
ATOM     25  S   UNL d   1      26.360 -11.734   1.787  0.00  0.00    -0.063 SA
ATOM     26  C   UNL d   1      28.607 -12.961   2.001  0.00  0.00     0.076 A 
ATOM     27  C   UNL d   1      27.490 -11.044   2.908  0.00  0.00     0.089 A 
ATOM     28  C   UNL d   1      28.658 -11.816   2.957  0.00  0.00    -0.017 A 
ATOM     29  C   UNL d   1      29.424 -14.195   1.925  0.00  0.00     0.260 C 
ATOM     30  N   UNL d   1      28.994 -15.149   1.071  0.00  0.00    -0.309 N 
ATOM     31  O   UNL d   1      30.292 -14.612   2.687  0.00  0.00    -0.267 OA
ATOM     32  H   UNL d   1      29.401 -16.042   1.340  0.00  0.00     0.170 HD
BRANCH  27  33
ATOM     33  C   UNL d   1      27.086  -9.821   3.665  0.00  0.00     0.300 C 
ATOM     34  O   UNL d   1      26.557  -8.832   3.219  0.00  0.00    -0.259 OA
BRANCH  33  35
ATOM     35  O   UNL d   1      27.455  -9.943   4.984  0.00  0.00    -0.322 OA
ATOM     36  C   UNL d   1      28.527  -9.118   5.462  0.00  0.00     0.213 C 
ENDBRANCH  33  35
ENDBRANCH  27  33
BRANCH  28  37
ATOM     37  C   UNL d   1      29.742 -11.638   4.022  0.00  0.00     0.037 C 
ATOM     38  C   UNL d   1      29.518 -12.543   5.195  0.00  0.00     0.010 C 
ENDBRANCH  28  37
ENDBRANCH  21  22
ENDBRANCH   1  21
TORSDOF 12
ENDMDL
MODEL 2
REMARK VINA RESULT:    -8.873      3.132      7.189
REMARK INTER + INTRA:         -17.622
REMARK INTER:                 -12.452
REMARK INTRA:                  -5.170
REMARK CONF_INDEPENDENT:        3.580
REMARK UNBOUND:                -5.170
REMARK  12 active torsions:
REMARK  status: ('A' for Active; 'I' for Inactive)
REMARK    1  A    between atoms: C_2  and  C_3 
REMARK    2  A    between atoms: C_4  and  C_5 
REMARK    3  A    between atoms: C_5  and  O_7 
REMARK    4  A    between atoms: C_12  and  C_13 
REMARK    5  A    between atoms: N_14  and  C_13 
REMARK    6  A    between atoms: N_14  and  C_26 
REMARK    7  A    between atoms: N_14  and  C_15 
REMARK    8  A    between atoms: C_16  and  C_15 
REMARK    9  A    between atoms: C_16  and  C_18 
REMARK   10  A    between atoms: C_16  and  O_17 
REMARK   11  A    between atoms: C_18  and  O_19 
REMARK   12  A    between atoms: O_19  and  C_20 
ROOT
ATOM      1  N   UNL d   1      29.444 -14.528   2.516  0.00  0.00    -0.058 N 
ATOM      2  H   UNL d   1      29.638 -15.545   2.413  0.00  0.00     0.281 HD
ENDROOT
BRANCH   1   3
ATOM      3  C   UNL d   1      29.930 -14.210   3.923  0.00  0.00     0.188 C 
ATOM      4  C   UNL d   1      29.990 -12.689   4.109  0.00  0.00     0.033 C 
ATOM      5  C   UNL d   1      30.383 -12.241   5.476  0.00  0.00     0.002 C 
ATOM      6  C   UNL d   1      29.467 -12.872   6.493  0.00  0.00     0.000 C 
ATOM      7  C   UNL d   1      29.491 -14.396   6.378  0.00  0.00     0.002 C 
ATOM      8  C   UNL d   1      29.051 -14.837   4.997  0.00  0.00     0.033 C 
ENDBRANCH   1   3
BRANCH   1   9
ATOM      9  C   UNL d   1      27.951 -14.454   2.206  0.00  0.00     0.269 C 
BRANCH   9  10
ATOM     10  C   UNL d   1      27.400 -15.568   1.313  0.00  0.00     0.168 C 
BRANCH  10  11
ATOM     11  C   UNL d   1      26.454 -15.066   0.195  0.00  0.00     0.209 C 
BRANCH  11  12
ATOM     12  O   UNL d   1      26.286 -15.994  -0.857  0.00  0.00    -0.349 OA
BRANCH  12  13
ATOM     13  C   UNL d   1      25.245 -16.863  -0.847  0.00  0.00     0.068 C 
ATOM     14  C   UNL d   1      24.058 -16.254  -1.163  0.00  0.00     0.037 C 
ATOM     15  C   UNL d   1      22.868 -16.895  -0.861  0.00  0.00     0.003 C 
ATOM     16  C   UNL d   1      22.797 -18.177  -0.380  0.00  0.00     0.000 C 
ATOM     17  C   UNL d   1      23.985 -18.842  -0.198  0.00  0.00     0.003 C 
ATOM     18  C   UNL d   1      25.213 -18.174  -0.390  0.00  0.00     0.037 C 
ENDBRANCH  12  13
ENDBRANCH  11  12
ENDBRANCH  10  11
BRANCH  10  19
ATOM     19  O   UNL d   1      28.488 -16.273   0.711  0.00  0.00    -0.392 OA
ATOM     20  H   UNL d   1      28.413 -16.210  -0.259  0.00  0.00     0.210 HD
ENDBRANCH  10  19
ENDBRANCH   9  10
ENDBRANCH   1   9
BRANCH   1  21
ATOM     21  C   UNL d   1      30.397 -13.936   1.504  0.00  0.00     0.313 C 
BRANCH  21  22
ATOM     22  C   UNL d   1      29.769 -13.714   0.153  0.00  0.00     0.134 C 
ATOM     23  N   UNL d   1      29.748 -14.597  -0.807  0.00  0.00    -0.225 NA
ATOM     24  C   UNL d   1      28.900 -14.272  -1.854  0.00  0.00     0.116 A 
ATOM     25  S   UNL d   1      28.366 -15.464  -2.980  0.00  0.00    -0.063 SA
ATOM     26  C   UNL d   1      28.133 -13.118  -1.958  0.00  0.00     0.076 A 
ATOM     27  C   UNL d   1      27.147 -14.452  -3.689  0.00  0.00     0.089 A 
ATOM     28  C   UNL d   1      27.099 -13.217  -3.029  0.00  0.00    -0.017 A 
ATOM     29  C   UNL d   1      28.257 -12.183  -0.816  0.00  0.00     0.260 C 
ATOM     30  N   UNL d   1      29.195 -12.483   0.108  0.00  0.00    -0.309 N 
ATOM     31  O   UNL d   1      27.487 -11.309  -0.428  0.00  0.00    -0.267 OA
ATOM     32  H   UNL d   1      28.970 -12.002   0.976  0.00  0.00     0.170 HD
BRANCH  27  33
ATOM     33  C   UNL d   1      26.327 -15.004  -4.808  0.00  0.00     0.300 C 
ATOM     34  O   UNL d   1      25.156 -15.293  -4.778  0.00  0.00    -0.259 OA
BRANCH  33  35
ATOM     35  O   UNL d   1      27.118 -15.200  -5.916  0.00  0.00    -0.322 OA
ATOM     36  C   UNL d   1      28.136 -14.228  -6.196  0.00  0.00     0.213 C 
ENDBRANCH  33  35
ENDBRANCH  27  33
BRANCH  28  37
ATOM     37  C   UNL d   1      25.974 -12.199  -3.229  0.00  0.00     0.037 C 
ATOM     38  C   UNL d   1      26.284 -11.245  -4.342  0.00  0.00     0.010 C 
ENDBRANCH  28  37
ENDBRANCH  21  22
ENDBRANCH   1  21
TORSDOF 12
ENDMDL
MODEL 3
REMARK VINA RESULT:    -7.226      5.233      9.713
REMARK INTER + INTRA:         -16.922
REMARK INTER:                 -10.806
REMARK INTRA:                  -6.117
REMARK CONF_INDEPENDENT:        3.580
REMARK UNBOUND:                -6.117
REMARK  12 active torsions:
REMARK  status: ('A' for Active; 'I' for Inactive)
REMARK    1  A    between atoms: C_2  and  C_3 
REMARK    2  A    between atoms: C_4  and  C_5 
REMARK    3  A    between atoms: C_5  and  O_7 
REMARK    4  A    between atoms: C_12  and  C_13 
REMARK    5  A    between atoms: N_14  and  C_13 
REMARK    6  A    between atoms: N_14  and  C_26 
REMARK    7  A    between atoms: N_14  and  C_15 
REMARK    8  A    between atoms: C_16  and  C_15 
REMARK    9  A    between atoms: C_16  and  C_18 
REMARK   10  A    between atoms: C_16  and  O_17 
REMARK   11  A    between atoms: C_18  and  O_19 
REMARK   12  A    between atoms: O_19  and  C_20 
ROOT
ATOM      1  N   UNL d   1      25.699 -15.129  -2.109  0.00  0.00    -0.058 N 
ATOM      2  H   UNL d   1      25.928 -15.785  -2.883  0.00  0.00     0.281 HD
ENDROOT
BRANCH   1   3
ATOM      3  C   UNL d   1      25.244 -16.048  -0.984  0.00  0.00     0.188 C 
ATOM      4  C   UNL d   1      23.806 -16.510  -1.254  0.00  0.00     0.033 C 
ATOM      5  C   UNL d   1      23.262 -17.478  -0.258  0.00  0.00     0.002 C 
ATOM      6  C   UNL d   1      24.195 -18.657  -0.146  0.00  0.00     0.000 C 
ATOM      7  C   UNL d   1      25.605 -18.204   0.232  0.00  0.00     0.002 C 
ATOM      8  C   UNL d   1      26.159 -17.252  -0.810  0.00  0.00     0.033 C 
ENDBRANCH   1   3
BRANCH   1   9
ATOM      9  C   UNL d   1      24.687 -14.196  -2.768  0.00  0.00     0.269 C 
BRANCH   9  10
ATOM     10  C   UNL d   1      24.820 -14.034  -4.284  0.00  0.00     0.168 C 
BRANCH  10  11
ATOM     11  C   UNL d   1      25.540 -12.734  -4.716  0.00  0.00     0.209 C 
BRANCH  11  12
ATOM     12  O   UNL d   1      26.900 -12.929  -5.046  0.00  0.00    -0.349 OA
BRANCH  12  13
ATOM     13  C   UNL d   1      27.405 -12.429  -6.202  0.00  0.00     0.068 C 
ATOM     14  C   UNL d   1      26.694 -11.345  -6.651  0.00  0.00     0.037 C 
ATOM     15  C   UNL d   1      26.844 -10.937  -7.966  0.00  0.00     0.003 C 
ATOM     16  C   UNL d   1      27.770 -11.469  -8.826  0.00  0.00     0.000 C 
ATOM     17  C   UNL d   1      28.583 -12.460  -8.330  0.00  0.00     0.003 C 
ATOM     18  C   UNL d   1      28.375 -12.972  -7.033  0.00  0.00     0.037 C 
ENDBRANCH  12  13
ENDBRANCH  11  12
ENDBRANCH  10  11
BRANCH  10  19
ATOM     19  O   UNL d   1      25.531 -15.153  -4.819  0.00  0.00    -0.392 OA
ATOM     20  H   UNL d   1      26.261 -14.830  -5.378  0.00  0.00     0.210 HD
ENDBRANCH  10  19
ENDBRANCH   9  10
ENDBRANCH   1   9
BRANCH   1  21
ATOM     21  C   UNL d   1      27.061 -14.562  -1.781  0.00  0.00     0.313 C 
BRANCH  21  22
ATOM     22  C   UNL d   1      28.183 -15.239  -2.524  0.00  0.00     0.134 C 
ATOM     23  N   UNL d   1      29.042 -16.056  -1.980  0.00  0.00    -0.225 NA
ATOM     24  C   UNL d   1      29.816 -16.752  -2.896  0.00  0.00     0.116 A 
ATOM     25  S   UNL d   1      30.668 -18.184  -2.449  0.00  0.00    -0.063 SA
ATOM     26  C   UNL d   1      29.762 -16.624  -4.278  0.00  0.00     0.076 A 
ATOM     27  C   UNL d   1      31.051 -18.635  -4.080  0.00  0.00     0.089 A 
ATOM     28  C   UNL d   1      30.479 -17.727  -4.981  0.00  0.00    -0.017 A 
ATOM     29  C   UNL d   1      28.761 -15.650  -4.774  0.00  0.00     0.260 C 
ATOM     30  N   UNL d   1      28.132 -14.905  -3.840  0.00  0.00    -0.309 N 
ATOM     31  O   UNL d   1      28.219 -15.571  -5.873  0.00  0.00    -0.267 OA
ATOM     32  H   UNL d   1      27.266 -14.544  -4.233  0.00  0.00     0.170 HD
BRANCH  27  33
ATOM     33  C   UNL d   1      31.851 -19.876  -4.306  0.00  0.00     0.300 C 
ATOM     34  O   UNL d   1      33.050 -19.958  -4.413  0.00  0.00    -0.259 OA
BRANCH  33  35
ATOM     35  O   UNL d   1      31.011 -20.957  -4.436  0.00  0.00    -0.322 OA
ATOM     36  C   UNL d   1      31.050 -21.965  -3.415  0.00  0.00     0.213 C 
ENDBRANCH  33  35
ENDBRANCH  27  33
BRANCH  28  37
ATOM     37  C   UNL d   1      30.405 -17.972  -6.489  0.00  0.00     0.037 C 
ATOM     38  C   UNL d   1      30.855 -16.772  -7.267  0.00  0.00     0.010 C 
ENDBRANCH  28  37
ENDBRANCH  21  22
ENDBRANCH   1  21
TORSDOF 12
ENDMDL
MODEL 4
REMARK VINA RESULT:    -7.064      4.841      8.875
REMARK INTER + INTRA:         -16.631
REMARK INTER:                 -10.644
REMARK INTRA:                  -5.988
REMARK CONF_INDEPENDENT:        3.580
REMARK UNBOUND:                -5.988
REMARK  12 active torsions:
REMARK  status: ('A' for Active; 'I' for Inactive)
REMARK    1  A    between atoms: C_2  and  C_3 
REMARK    2  A    between atoms: C_4  and  C_5 
REMARK    3  A    between atoms: C_5  and  O_7 
REMARK    4  A    between atoms: C_12  and  C_13 
REMARK    5  A    between atoms: N_14  and  C_13 
REMARK    6  A    between atoms: N_14  and  C_26 
REMARK    7  A    between atoms: N_14  and  C_15 
REMARK    8  A    between atoms: C_16  and  C_15 
REMARK    9  A    between atoms: C_16  and  C_18 
REMARK   10  A    between atoms: C_16  and  O_17 
REMARK   11  A    between atoms: C_18  and  O_19 
REMARK   12  A    between atoms: O_19  and  C_20 
ROOT
ATOM      1  N   UNL d   1      25.351  -9.606  -4.628  0.00  0.00    -0.058 N 
ATOM      2  H   UNL d   1      24.732 -10.413  -4.848  0.00  0.00     0.281 HD
ENDROOT
BRANCH   1   3
ATOM      3  C   UNL d   1      24.401  -8.417  -4.619  0.00  0.00     0.188 C 
ATOM      4  C   UNL d   1      25.176  -7.149  -4.239  0.00  0.00     0.033 C 
ATOM      5  C   UNL d   1      24.372  -5.893  -4.265  0.00  0.00     0.002 C 
ATOM      6  C   UNL d   1      23.722  -5.743  -5.617  0.00  0.00     0.000 C 
ATOM      7  C   UNL d   1      22.861  -6.961  -5.947  0.00  0.00     0.002 C 
ATOM      8  C   UNL d   1      23.699  -8.224  -5.956  0.00  0.00     0.033 C 
ENDBRANCH   1   3
BRANCH   1   9
ATOM      9  C   UNL d   1      26.412  -9.708  -5.721  0.00  0.00     0.269 C 
BRANCH   9  10
ATOM     10  C   UNL d   1      26.164 -10.772  -6.792  0.00  0.00     0.168 C 
BRANCH  10  11
ATOM     11  C   UNL d   1      27.287 -11.832  -6.895  0.00  0.00     0.209 C 
BRANCH  11  12
ATOM     12  O   UNL d   1      27.035 -12.993  -6.129  0.00  0.00    -0.349 OA
BRANCH  12  13
ATOM     13  C   UNL d   1      28.035 -13.586  -5.430  0.00  0.00     0.068 C 
ATOM     14  C   UNL d   1      27.907 -14.951  -5.401  0.00  0.00     0.037 C 
ATOM     15  C   UNL d   1      28.619 -15.676  -4.459  0.00  0.00     0.003 C 
ATOM     16  C   UNL d   1      29.560 -15.124  -3.628  0.00  0.00     0.000 C 
ATOM     17  C   UNL d   1      29.792 -13.776  -3.758  0.00  0.00     0.003 C 
ATOM     18  C   UNL d   1      29.002 -12.996  -4.627  0.00  0.00     0.037 C 
ENDBRANCH  12  13
ENDBRANCH  11  12
ENDBRANCH  10  11
BRANCH  10  19
ATOM     19  O   UNL d   1      24.928 -11.436  -6.521  0.00  0.00    -0.392 OA
ATOM     20  H   UNL d   1      25.101 -12.222  -5.971  0.00  0.00     0.210 HD
ENDBRANCH  10  19
ENDBRANCH   9  10
ENDBRANCH   1   9
BRANCH   1  21
ATOM     21  C   UNL d   1      25.774  -9.928  -3.213  0.00  0.00     0.313 C 
BRANCH  21  22
ATOM     22  C   UNL d   1      26.124 -11.379  -3.012  0.00  0.00     0.134 C 
ATOM     23  N   UNL d   1      26.918 -11.826  -2.077  0.00  0.00    -0.225 NA
ATOM     24  C   UNL d   1      26.889 -13.203  -1.923  0.00  0.00     0.116 A 
ATOM     25  S   UNL d   1      27.478 -13.960  -0.490  0.00  0.00    -0.063 SA
ATOM     26  C   UNL d   1      26.134 -14.095  -2.675  0.00  0.00     0.076 A 
ATOM     27  C   UNL d   1      26.807 -15.515  -0.866  0.00  0.00     0.089 A 
ATOM     28  C   UNL d   1      26.076 -15.453  -2.059  0.00  0.00    -0.017 A 
ATOM     29  C   UNL d   1      25.289 -13.469  -3.720  0.00  0.00     0.260 C 
ATOM     30  N   UNL d   1      25.457 -12.144  -3.915  0.00  0.00    -0.309 N 
ATOM     31  O   UNL d   1      24.279 -13.896  -4.274  0.00  0.00    -0.267 OA
ATOM     32  H   UNL d   1      24.630 -11.770  -4.376  0.00  0.00     0.170 HD
BRANCH  27  33
ATOM     33  C   UNL d   1      27.039 -16.640   0.089  0.00  0.00     0.300 C 
ATOM     34  O   UNL d   1      26.204 -17.353   0.589  0.00  0.00    -0.259 OA
BRANCH  33  35
ATOM     35  O   UNL d   1      28.379 -16.735   0.385  0.00  0.00    -0.322 OA
ATOM     36  C   UNL d   1      29.218 -17.466  -0.522  0.00  0.00     0.213 C 
ENDBRANCH  33  35
ENDBRANCH  27  33
BRANCH  28  37
ATOM     37  C   UNL d   1      25.149 -16.571  -2.539  0.00  0.00     0.037 C 
ATOM     38  C   UNL d   1      24.111 -16.907  -1.512  0.00  0.00     0.010 C 
ENDBRANCH  28  37
ENDBRANCH  21  22
ENDBRANCH   1  21
TORSDOF 12
ENDMDL
MODEL 5
REMARK VINA RESULT:    -7.025      3.866      8.265
REMARK INTER + INTRA:         -17.074
REMARK INTER:                 -10.605
REMARK INTRA:                  -6.469
REMARK CONF_INDEPENDENT:        3.580
REMARK UNBOUND:                -6.469
REMARK  12 active torsions:
REMARK  status: ('A' for Active; 'I' for Inactive)
REMARK    1  A    between atoms: C_2  and  C_3 
REMARK    2  A    between atoms: C_4  and  C_5 
REMARK    3  A    between atoms: C_5  and  O_7 
REMARK    4  A    between atoms: C_12  and  C_13 
REMARK    5  A    between atoms: N_14  and  C_13 
REMARK    6  A    between atoms: N_14  and  C_26 
REMARK    7  A    between atoms: N_14  and  C_15 
REMARK    8  A    between atoms: C_16  and  C_15 
REMARK    9  A    between atoms: C_16  and  C_18 
REMARK   10  A    between atoms: C_16  and  O_17 
REMARK   11  A    between atoms: C_18  and  O_19 
REMARK   12  A    between atoms: O_19  and  C_20 
ROOT
ATOM      1  N   UNL d   1      25.842 -15.991  -0.712  0.00  0.00    -0.058 N 
ATOM      2  H   UNL d   1      25.439 -15.037  -0.809  0.00  0.00     0.281 HD
ENDROOT
BRANCH   1   3
ATOM      3  C   UNL d   1      24.666 -16.831  -0.234  0.00  0.00     0.188 C 
ATOM      4  C   UNL d   1      23.377 -16.325  -0.896  0.00  0.00     0.033 C 
ATOM      5  C   UNL d   1      22.155 -17.113  -0.567  0.00  0.00     0.002 C 
ATOM      6  C   UNL d   1      22.393 -18.565  -0.892  0.00  0.00     0.000 C 
ATOM      7  C   UNL d   1      23.616 -19.099  -0.145  0.00  0.00     0.002 C 
ATOM      8  C   UNL d   1      24.857 -18.314  -0.520  0.00  0.00     0.033 C 
ENDBRANCH   1   3
BRANCH   1   9
ATOM      9  C   UNL d   1      27.019 -15.748   0.230  0.00  0.00     0.269 C 
BRANCH   9  10
ATOM     10  C   UNL d   1      27.691 -14.378   0.116  0.00  0.00     0.168 C 
BRANCH  10  11
ATOM     11  C   UNL d   1      28.985 -14.381  -0.733  0.00  0.00     0.209 C 
BRANCH  11  12
ATOM     12  O   UNL d   1      28.753 -14.163  -2.110  0.00  0.00    -0.349 OA
BRANCH  12  13
ATOM     13  C   UNL d   1      29.357 -14.943  -3.040  0.00  0.00     0.068 C 
ATOM     14  C   UNL d   1      29.831 -14.212  -4.100  0.00  0.00     0.037 C 
ATOM     15  C   UNL d   1      30.152 -14.863  -5.279  0.00  0.00     0.003 C 
ATOM     16  C   UNL d   1      30.154 -16.227  -5.418  0.00  0.00     0.000 C 
ATOM     17  C   UNL d   1      29.817 -16.967  -4.311  0.00  0.00     0.003 C 
ATOM     18  C   UNL d   1      29.377 -16.329  -3.133  0.00  0.00     0.037 C 
ENDBRANCH  12  13
ENDBRANCH  11  12
ENDBRANCH  10  11
BRANCH  10  19
ATOM     19  O   UNL d   1      26.770 -13.445  -0.453  0.00  0.00    -0.392 OA
ATOM     20  H   UNL d   1      27.009 -13.288  -1.385  0.00  0.00     0.210 HD
ENDBRANCH  10  19
ENDBRANCH   9  10
ENDBRANCH   1   9
BRANCH   1  21
ATOM     21  C   UNL d   1      26.159 -16.332  -2.150  0.00  0.00     0.313 C 
BRANCH  21  22
ATOM     22  C   UNL d   1      25.943 -15.180  -3.096  0.00  0.00     0.134 C 
ATOM     23  N   UNL d   1      25.493 -14.007  -2.744  0.00  0.00    -0.225 NA
ATOM     24  C   UNL d   1      25.620 -13.036  -3.725  0.00  0.00     0.116 A 
ATOM     25  S   UNL d   1      25.531 -11.357  -3.343  0.00  0.00    -0.063 SA
ATOM     26  C   UNL d   1      26.140 -13.223  -4.999  0.00  0.00     0.076 A 
ATOM     27  C   UNL d   1      26.111 -10.829  -4.891  0.00  0.00     0.089 A 
ATOM     28  C   UNL d   1      26.436 -11.934  -5.689  0.00  0.00    -0.017 A 
ATOM     29  C   UNL d   1      26.598 -14.603  -5.289  0.00  0.00     0.260 C 
ATOM     30  N   UNL d   1      26.328 -15.536  -4.350  0.00  0.00    -0.309 N 
ATOM     31  O   UNL d   1      27.403 -15.005  -6.124  0.00  0.00    -0.267 OA
ATOM     32  H   UNL d   1      26.957 -16.325  -4.477  0.00  0.00     0.170 HD
BRANCH  27  33
ATOM     33  C   UNL d   1      26.227  -9.362  -5.145  0.00  0.00     0.300 C 
ATOM     34  O   UNL d   1      27.116  -8.794  -5.731  0.00  0.00    -0.259 OA
BRANCH  33  35
ATOM     35  O   UNL d   1      25.175  -8.700  -4.557  0.00  0.00    -0.322 OA
ATOM     36  C   UNL d   1      24.145  -8.182  -5.412  0.00  0.00     0.213 C 
ENDBRANCH  33  35
ENDBRANCH  27  33
BRANCH  28  37
ATOM     37  C   UNL d   1      27.211 -11.825  -7.003  0.00  0.00     0.037 C 
ATOM     38  C   UNL d   1      28.675 -12.076  -6.804  0.00  0.00     0.010 C 
ENDBRANCH  28  37
ENDBRANCH  21  22
ENDBRANCH   1  21
TORSDOF 12
ENDMDL
