MODEL 1
REMARK VINA RESULT:   -30.893      0.000      0.000
REMARK INTER + INTRA:         -33.110
REMARK INTER:                 -32.385
REMARK INTRA:                  -0.725
REMARK CONF_INDEPENDENT:        1.492
REMARK UNBOUND:                -0.725
REMARK  5 active torsions:
REMARK  status: ('A' for Active; 'I' for Inactive)
REMARK    1  A    between atoms: C_2  and  C_12 
REMARK    2  A    between atoms: C_2  and  O_3 
REMARK    3  A    between atoms: O_3  and  C_4 
REMARK       I    between atoms: C_12  and  N_14 
REMARK    4  A    between atoms: N_14  and  N_15 
REMARK    5  A    between atoms: N_15  and  C_16 
ROOT
ATOM      1  C   UNL d   1      24.675 -17.155  -0.771  0.00  0.00     0.070 A 
ATOM      2  C   UNL d   1      23.473 -16.458  -0.886  0.00  0.00     0.038 A 
ATOM      3  C   UNL d   1      22.217 -17.035  -0.893  0.00  0.00     0.025 A 
ATOM      4  C   UNL d   1      22.101 -18.390  -0.717  0.00  0.00     0.044 A 
ATOM      5  C   UNL d   1      20.795 -18.949  -0.790  0.00  0.00     0.099 C 
ATOM      6  N   UNL d   1      19.695 -19.325  -0.895  0.00  0.00    -0.191 NA
ATOM      7  C   UNL d   1      23.261 -19.138  -0.495  0.00  0.00     0.025 A 
ATOM      8  C   UNL d   1      24.542 -18.529  -0.531  0.00  0.00     0.038 A 
ENDROOT
BRANCH   1   9
ATOM      9  O   UNL d   1      25.945 -16.635  -0.832  0.00  0.00    -0.337 OA
BRANCH   9  10
ATOM     10  C   UNL d   1      26.944 -16.662   0.233  0.00  0.00     0.218 C 
ATOM     11  C   UNL d   1      28.308 -17.164  -0.178  0.00  0.00     0.050 C 
BRANCH  10  12
ATOM     12  C   UNL d   1      27.157 -15.252   0.872  0.00  0.00     0.265 C 
ATOM     13  O   UNL d   1      26.443 -14.285   0.603  0.00  0.00    -0.269 OA
ATOM     14  N   UNL d   1      28.236 -15.148   1.770  0.00  0.00    -0.267 N 
ATOM     15  H   UNL d   1      28.769 -15.943   2.105  0.00  0.00     0.190 HD
BRANCH  14  16
ATOM     16  N   UNL d   1      28.473 -13.911   2.376  0.00  0.00    -0.295 N 
ATOM     17  H   UNL d   1      28.536 -13.093   1.764  0.00  0.00     0.187 HD
BRANCH  16  18
ATOM     18  C   UNL d   1      28.480 -13.759   3.773  0.00  0.00     0.090 A 
ATOM     19  C   UNL d   1      28.786 -14.817   4.644  0.00  0.00     0.037 A 
ATOM     20  C   UNL d   1      28.831 -14.626   6.036  0.00  0.00     0.048 A 
ATOM     21  C   UNL d   1      28.550 -13.375   6.577  0.00  0.00     0.158 A 
ATOM     22  F   UNL d   1      28.623 -13.197   7.903  0.00  0.00    -0.203 F 
ATOM     23  C   UNL d   1      28.201 -12.324   5.745  0.00  0.00     0.195 A 
ATOM     24  F   UNL d   1      27.904 -11.128   6.274  0.00  0.00    -0.199 F 
ATOM     25  C   UNL d   1      28.161 -12.516   4.363  0.00  0.00     0.185 A 
ATOM     26  F   UNL d   1      27.795 -11.486   3.582  0.00  0.00    -0.200 F 
ENDBRANCH  16  18
ENDBRANCH  14  16
ENDBRANCH  10  12
ENDBRANCH   9  10
ENDBRANCH   1   9
TORSDOF 5
ENDMDL
MODEL 2
REMARK VINA RESULT:   -30.632      0.696      1.224
REMARK INTER + INTRA:         -33.075
REMARK INTER:                 -32.123
REMARK INTRA:                  -0.952
REMARK CONF_INDEPENDENT:        1.492
REMARK UNBOUND:                -0.952
REMARK  5 active torsions:
REMARK  status: ('A' for Active; 'I' for Inactive)
REMARK    1  A    between atoms: C_2  and  C_12 
REMARK    2  A    between atoms: C_2  and  O_3 
REMARK    3  A    between atoms: O_3  and  C_4 
REMARK       I    between atoms: C_12  and  N_14 
REMARK    4  A    between atoms: N_14  and  N_15 
REMARK    5  A    between atoms: N_15  and  C_16 
ROOT
ATOM      1  C   UNL d   1      24.851 -17.637  -0.008  0.00  0.00     0.070 A 
ATOM      2  C   UNL d   1      24.453 -18.955  -0.228  0.00  0.00     0.038 A 
ATOM      3  C   UNL d   1      23.172 -19.354  -0.561  0.00  0.00     0.025 A 
ATOM      4  C   UNL d   1      22.204 -18.403  -0.755  0.00  0.00     0.044 A 
ATOM      5  C   UNL d   1      20.886 -18.861  -1.038  0.00  0.00     0.099 C 
ATOM      6  N   UNL d   1      19.833 -19.324  -1.235  0.00  0.00    -0.191 NA
ATOM      7  C   UNL d   1      22.558 -17.055  -0.650  0.00  0.00     0.025 A 
ATOM      8  C   UNL d   1      23.870 -16.672  -0.268  0.00  0.00     0.038 A 
ENDROOT
BRANCH   1   9
ATOM      9  O   UNL d   1      26.089 -17.200   0.394  0.00  0.00    -0.337 OA
BRANCH   9  10
ATOM     10  C   UNL d   1      26.947 -16.257  -0.316  0.00  0.00     0.218 C 
ATOM     11  C   UNL d   1      26.520 -15.935  -1.729  0.00  0.00     0.050 C 
BRANCH  10  12
ATOM     12  C   UNL d   1      27.069 -14.893   0.437  0.00  0.00     0.265 C 
ATOM     13  O   UNL d   1      26.578 -13.849   0.006  0.00  0.00    -0.269 OA
ATOM     14  N   UNL d   1      27.796 -14.926   1.641  0.00  0.00    -0.267 N 
ATOM     15  H   UNL d   1      28.112 -15.781   2.086  0.00  0.00     0.190 HD
BRANCH  14  16
ATOM     16  N   UNL d   1      27.935 -13.736   2.361  0.00  0.00    -0.295 N 
ATOM     17  H   UNL d   1      27.789 -12.860   1.852  0.00  0.00     0.187 HD
BRANCH  16  18
ATOM     18  C   UNL d   1      28.121 -13.729   3.754  0.00  0.00     0.090 A 
ATOM     19  C   UNL d   1      28.539 -14.866   4.463  0.00  0.00     0.037 A 
ATOM     20  C   UNL d   1      28.762 -14.820   5.851  0.00  0.00     0.048 A 
ATOM     21  C   UNL d   1      28.550 -13.637   6.551  0.00  0.00     0.158 A 
ATOM     22  F   UNL d   1      28.792 -13.596   7.869  0.00  0.00    -0.203 F 
ATOM     23  C   UNL d   1      28.093 -12.511   5.886  0.00  0.00     0.195 A 
ATOM     24  F   UNL d   1      27.863 -11.381   6.570  0.00  0.00    -0.199 F 
ATOM     25  C   UNL d   1      27.877 -12.559   4.507  0.00  0.00     0.185 A 
ATOM     26  F   UNL d   1      27.411 -11.460   3.892  0.00  0.00    -0.200 F 
ENDBRANCH  16  18
ENDBRANCH  14  16
ENDBRANCH  10  12
ENDBRANCH   9  10
ENDBRANCH   1   9
TORSDOF 5
ENDMDL
MODEL 3
REMARK VINA RESULT:   -30.147      5.802      8.104
REMARK INTER + INTRA:         -32.597
REMARK INTER:                 -31.639
REMARK INTRA:                  -0.958
REMARK CONF_INDEPENDENT:        1.492
REMARK UNBOUND:                -0.958
REMARK  5 active torsions:
REMARK  status: ('A' for Active; 'I' for Inactive)
REMARK    1  A    between atoms: C_2  and  C_12 
REMARK    2  A    between atoms: C_2  and  O_3 
REMARK    3  A    between atoms: O_3  and  C_4 
REMARK       I    between atoms: C_12  and  N_14 
REMARK    4  A    between atoms: N_14  and  N_15 
REMARK    5  A    between atoms: N_15  and  C_16 
ROOT
ATOM      1  C   UNL d   1      24.587 -17.049  -0.699  0.00  0.00     0.070 A 
ATOM      2  C   UNL d   1      23.373 -16.376  -0.831  0.00  0.00     0.038 A 
ATOM      3  C   UNL d   1      22.131 -16.980  -0.895  0.00  0.00     0.025 A 
ATOM      4  C   UNL d   1      22.042 -18.342  -0.762  0.00  0.00     0.044 A 
ATOM      5  C   UNL d   1      20.751 -18.928  -0.893  0.00  0.00     0.099 C 
ATOM      6  N   UNL d   1      19.664 -19.325  -1.044  0.00  0.00    -0.191 NA
ATOM      7  C   UNL d   1      23.212 -19.071  -0.526  0.00  0.00     0.025 A 
ATOM      8  C   UNL d   1      24.478 -18.432  -0.504  0.00  0.00     0.038 A 
ENDROOT
BRANCH   1   9
ATOM      9  O   UNL d   1      25.845 -16.500  -0.704  0.00  0.00    -0.337 OA
BRANCH   9  10
ATOM     10  C   UNL d   1      26.212 -15.180  -1.208  0.00  0.00     0.218 C 
ATOM     11  C   UNL d   1      27.632 -14.753  -0.919  0.00  0.00     0.050 C 
BRANCH  10  12
ATOM     12  C   UNL d   1      26.016 -15.068  -2.755  0.00  0.00     0.265 C 
ATOM     13  O   UNL d   1      24.927 -14.813  -3.270  0.00  0.00    -0.269 OA
ATOM     14  N   UNL d   1      27.167 -15.295  -3.532  0.00  0.00    -0.267 N 
ATOM     15  H   UNL d   1      28.100 -15.390  -3.145  0.00  0.00     0.190 HD
BRANCH  14  16
ATOM     16  N   UNL d   1      27.053 -15.205  -4.922  0.00  0.00    -0.295 N 
ATOM     17  H   UNL d   1      26.120 -15.325  -5.325  0.00  0.00     0.187 HD
BRANCH  16  18
ATOM     18  C   UNL d   1      28.135 -14.819  -5.732  0.00  0.00     0.090 A 
ATOM     19  C   UNL d   1      28.133 -13.627  -6.473  0.00  0.00     0.037 A 
ATOM     20  C   UNL d   1      29.248 -13.242  -7.239  0.00  0.00     0.048 A 
ATOM     21  C   UNL d   1      30.374 -14.058  -7.288  0.00  0.00     0.158 A 
ATOM     22  F   UNL d   1      31.442 -13.668  -7.999  0.00  0.00    -0.203 F 
ATOM     23  C   UNL d   1      30.387 -15.261  -6.604  0.00  0.00     0.195 A 
ATOM     24  F   UNL d   1      31.464 -16.057  -6.677  0.00  0.00    -0.199 F 
ATOM     25  C   UNL d   1      29.280 -15.639  -5.841  0.00  0.00     0.185 A 
ATOM     26  F   UNL d   1      29.311 -16.822  -5.207  0.00  0.00    -0.200 F 
ENDBRANCH  16  18
ENDBRANCH  14  16
ENDBRANCH  10  12
ENDBRANCH   9  10
ENDBRANCH   1   9
TORSDOF 5
ENDMDL
MODEL 4
REMARK VINA RESULT:   -30.024      5.377      7.339
REMARK INTER + INTRA:         -32.693
REMARK INTER:                 -31.515
REMARK INTRA:                  -1.178
REMARK CONF_INDEPENDENT:        1.492
REMARK UNBOUND:                -1.178
REMARK  5 active torsions:
REMARK  status: ('A' for Active; 'I' for Inactive)
REMARK    1  A    between atoms: C_2  and  C_12 
REMARK    2  A    between atoms: C_2  and  O_3 
REMARK    3  A    between atoms: O_3  and  C_4 
REMARK       I    between atoms: C_12  and  N_14 
REMARK    4  A    between atoms: N_14  and  N_15 
REMARK    5  A    between atoms: N_15  and  C_16 
ROOT
ATOM      1  C   UNL d   1      24.595 -17.380  -0.501  0.00  0.00     0.070 A 
ATOM      2  C   UNL d   1      23.424 -16.628  -0.581  0.00  0.00     0.038 A 
ATOM      3  C   UNL d   1      22.150 -17.150  -0.710  0.00  0.00     0.025 A 
ATOM      4  C   UNL d   1      21.981 -18.511  -0.705  0.00  0.00     0.044 A 
ATOM      5  C   UNL d   1      20.660 -19.005  -0.900  0.00  0.00     0.099 C 
ATOM      6  N   UNL d   1      19.555 -19.322  -1.096  0.00  0.00    -0.191 NA
ATOM      7  C   UNL d   1      23.103 -19.325  -0.526  0.00  0.00     0.025 A 
ATOM      8  C   UNL d   1      24.404 -18.766  -0.436  0.00  0.00     0.038 A 
ENDROOT
BRANCH   1   9
ATOM      9  O   UNL d   1      25.882 -16.907  -0.445  0.00  0.00    -0.337 OA
BRANCH   9  10
ATOM     10  C   UNL d   1      26.288 -15.525  -0.205  0.00  0.00     0.218 C 
ATOM     11  C   UNL d   1      27.762 -15.324   0.060  0.00  0.00     0.050 C 
BRANCH  10  12
ATOM     12  C   UNL d   1      25.915 -14.589  -1.399  0.00  0.00     0.265 C 
ATOM     13  O   UNL d   1      26.222 -13.396  -1.431  0.00  0.00    -0.269 OA
ATOM     14  N   UNL d   1      25.186 -15.192  -2.441  0.00  0.00    -0.267 N 
ATOM     15  H   UNL d   1      25.018 -16.190  -2.508  0.00  0.00     0.190 HD
BRANCH  14  16
ATOM     16  N   UNL d   1      24.827 -14.403  -3.538  0.00  0.00    -0.295 N 
ATOM     17  H   UNL d   1      23.834 -14.180  -3.651  0.00  0.00     0.187 HD
BRANCH  16  18
ATOM     18  C   UNL d   1      25.790 -13.813  -4.373  0.00  0.00     0.090 A 
ATOM     19  C   UNL d   1      25.892 -12.422  -4.539  0.00  0.00     0.037 A 
ATOM     20  C   UNL d   1      26.895 -11.855  -5.345  0.00  0.00     0.048 A 
ATOM     21  C   UNL d   1      27.798 -12.675  -6.013  0.00  0.00     0.158 A 
ATOM     22  F   UNL d   1      28.767 -12.123  -6.757  0.00  0.00    -0.203 F 
ATOM     23  C   UNL d   1      27.694 -14.051  -5.905  0.00  0.00     0.195 A 
ATOM     24  F   UNL d   1      28.550 -14.839  -6.573  0.00  0.00    -0.199 F 
ATOM     25  C   UNL d   1      26.699 -14.612  -5.100  0.00  0.00     0.185 A 
ATOM     26  F   UNL d   1      26.606 -15.950  -5.033  0.00  0.00    -0.200 F 
ENDBRANCH  16  18
ENDBRANCH  14  16
ENDBRANCH  10  12
ENDBRANCH   9  10
ENDBRANCH   1   9
TORSDOF 5
ENDMDL
MODEL 5
REMARK VINA RESULT:   -30.014      5.700      7.958
REMARK INTER + INTRA:         -32.504
REMARK INTER:                 -31.506
REMARK INTRA:                  -0.998
REMARK CONF_INDEPENDENT:        1.492
REMARK UNBOUND:                -0.998
REMARK  5 active torsions:
REMARK  status: ('A' for Active; 'I' for Inactive)
REMARK    1  A    between atoms: C_2  and  C_12 
REMARK    2  A    between atoms: C_2  and  O_3 
REMARK    3  A    between atoms: O_3  and  C_4 
REMARK       I    between atoms: C_12  and  N_14 
REMARK    4  A    between atoms: N_14  and  N_15 
REMARK    5  A    between atoms: N_15  and  C_16 
ROOT
ATOM      1  C   UNL d   1      24.532 -17.254  -0.615  0.00  0.00     0.070 A 
ATOM      2  C   UNL d   1      23.353 -16.532  -0.793  0.00  0.00     0.038 A 
ATOM      3  C   UNL d   1      22.090 -17.084  -0.895  0.00  0.00     0.025 A 
ATOM      4  C   UNL d   1      21.939 -18.441  -0.758  0.00  0.00     0.044 A 
ATOM      5  C   UNL d   1      20.630 -18.973  -0.929  0.00  0.00     0.099 C 
ATOM      6  N   UNL d   1      19.533 -19.325  -1.114  0.00  0.00    -0.191 NA
ATOM      7  C   UNL d   1      23.068 -19.215  -0.477  0.00  0.00     0.025 A 
ATOM      8  C   UNL d   1      24.359 -18.630  -0.416  0.00  0.00     0.038 A 
ENDROOT
BRANCH   1   9
ATOM      9  O   UNL d   1      25.812 -16.758  -0.581  0.00  0.00    -0.337 OA
BRANCH   9  10
ATOM     10  C   UNL d   1      26.241 -15.437  -1.030  0.00  0.00     0.218 C 
ATOM     11  C   UNL d   1      27.679 -15.089  -0.724  0.00  0.00     0.050 C 
BRANCH  10  12
ATOM     12  C   UNL d   1      26.053 -15.251  -2.570  0.00  0.00     0.265 C 
ATOM     13  O   UNL d   1      24.977 -14.923  -3.074  0.00  0.00    -0.269 OA
ATOM     14  N   UNL d   1      27.192 -15.500  -3.358  0.00  0.00    -0.267 N 
ATOM     15  H   UNL d   1      28.119 -15.654  -2.975  0.00  0.00     0.190 HD
BRANCH  14  16
ATOM     16  N   UNL d   1      27.084 -15.346  -4.742  0.00  0.00    -0.295 N 
ATOM     17  H   UNL d   1      26.141 -15.340  -5.142  0.00  0.00     0.187 HD
BRANCH  16  18
ATOM     18  C   UNL d   1      28.201 -15.062  -5.547  0.00  0.00     0.090 A 
ATOM     19  C   UNL d   1      29.295 -15.936  -5.650  0.00  0.00     0.037 A 
ATOM     20  C   UNL d   1      30.380 -15.649  -6.498  0.00  0.00     0.048 A 
ATOM     21  C   UNL d   1      30.392 -14.472  -7.240  0.00  0.00     0.158 A 
ATOM     22  F   UNL d   1      31.417 -14.222  -8.066  0.00  0.00    -0.203 F 
ATOM     23  C   UNL d   1      29.348 -13.570  -7.123  0.00  0.00     0.195 A 
ATOM     24  F   UNL d   1      29.378 -12.424  -7.819  0.00  0.00    -0.199 F 
ATOM     25  C   UNL d   1      28.270 -13.859  -6.283  0.00  0.00     0.185 A 
ATOM     26  F   UNL d   1      27.283 -12.955  -6.171  0.00  0.00    -0.200 F 
ENDBRANCH  16  18
ENDBRANCH  14  16
ENDBRANCH  10  12
ENDBRANCH   9  10
ENDBRANCH   1   9
TORSDOF 5
ENDMDL
MODEL 6
REMARK VINA RESULT:   -29.918      5.063      7.278
REMARK INTER + INTRA:         -32.634
REMARK INTER:                 -31.410
REMARK INTRA:                  -1.224
REMARK CONF_INDEPENDENT:        1.492
REMARK UNBOUND:                -1.224
REMARK  5 active torsions:
REMARK  status: ('A' for Active; 'I' for Inactive)
REMARK    1  A    between atoms: C_2  and  C_12 
REMARK    2  A    between atoms: C_2  and  O_3 
REMARK    3  A    between atoms: O_3  and  C_4 
REMARK       I    between atoms: C_12  and  N_14 
REMARK    4  A    between atoms: N_14  and  N_15 
REMARK    5  A    between atoms: N_15  and  C_16 
ROOT
ATOM      1  C   UNL d   1      24.596 -17.230  -0.536  0.00  0.00     0.070 A 
ATOM      2  C   UNL d   1      23.402 -16.516  -0.612  0.00  0.00     0.038 A 
ATOM      3  C   UNL d   1      22.147 -17.077  -0.766  0.00  0.00     0.025 A 
ATOM      4  C   UNL d   1      22.023 -18.442  -0.790  0.00  0.00     0.044 A 
ATOM      5  C   UNL d   1      20.722 -18.976  -1.010  0.00  0.00     0.099 C 
ATOM      6  N   UNL d   1      19.629 -19.325  -1.224  0.00  0.00    -0.191 NA
ATOM      7  C   UNL d   1      23.170 -19.223  -0.618  0.00  0.00     0.025 A 
ATOM      8  C   UNL d   1      24.451 -18.623  -0.501  0.00  0.00     0.038 A 
ENDROOT
BRANCH   1   9
ATOM      9  O   UNL d   1      25.867 -16.717  -0.456  0.00  0.00    -0.337 OA
BRANCH   9  10
ATOM     10  C   UNL d   1      26.225 -15.309  -0.310  0.00  0.00     0.218 C 
ATOM     11  C   UNL d   1      27.639 -15.049   0.156  0.00  0.00     0.050 C 
BRANCH  10  12
ATOM     12  C   UNL d   1      26.038 -14.515  -1.642  0.00  0.00     0.265 C 
ATOM     13  O   UNL d   1      26.450 -13.364  -1.794  0.00  0.00    -0.269 OA
ATOM     14  N   UNL d   1      25.348 -15.193  -2.664  0.00  0.00    -0.267 N 
ATOM     15  H   UNL d   1      25.100 -16.176  -2.620  0.00  0.00     0.190 HD
BRANCH  14  16
ATOM     16  N   UNL d   1      25.155 -14.533  -3.881  0.00  0.00    -0.295 N 
ATOM     17  H   UNL d   1      24.203 -14.231  -4.104  0.00  0.00     0.187 HD
BRANCH  16  18
ATOM     18  C   UNL d   1      26.232 -14.162  -4.703  0.00  0.00     0.090 A 
ATOM     19  C   UNL d   1      27.094 -15.105  -5.286  0.00  0.00     0.037 A 
ATOM     20  C   UNL d   1      28.137 -14.709  -6.142  0.00  0.00     0.048 A 
ATOM     21  C   UNL d   1      28.343 -13.360  -6.410  0.00  0.00     0.158 A 
ATOM     22  F   UNL d   1      29.323 -12.995  -7.250  0.00  0.00    -0.203 F 
ATOM     23  C   UNL d   1      27.538 -12.405  -5.814  0.00  0.00     0.195 A 
ATOM     24  F   UNL d   1      27.758 -11.103  -6.054  0.00  0.00    -0.199 F 
ATOM     25  C   UNL d   1      26.500 -12.801  -4.967  0.00  0.00     0.185 A 
ATOM     26  F   UNL d   1      25.750 -11.852  -4.383  0.00  0.00    -0.200 F 
ENDBRANCH  16  18
ENDBRANCH  14  16
ENDBRANCH  10  12
ENDBRANCH   9  10
ENDBRANCH   1   9
TORSDOF 5
ENDMDL
MODEL 7
REMARK VINA RESULT:   -29.739      1.473      2.542
REMARK INTER + INTRA:         -32.225
REMARK INTER:                 -31.230
REMARK INTRA:                  -0.995
REMARK CONF_INDEPENDENT:        1.492
REMARK UNBOUND:                -0.995
REMARK  5 active torsions:
REMARK  status: ('A' for Active; 'I' for Inactive)
REMARK    1  A    between atoms: C_2  and  C_12 
REMARK    2  A    between atoms: C_2  and  O_3 
REMARK    3  A    between atoms: O_3  and  C_4 
REMARK       I    between atoms: C_12  and  N_14 
REMARK    4  A    between atoms: N_14  and  N_15 
REMARK    5  A    between atoms: N_15  and  C_16 
ROOT
ATOM      1  C   UNL d   1      24.622 -17.608  -0.229  0.00  0.00     0.070 A 
ATOM      2  C   UNL d   1      24.202 -18.934  -0.317  0.00  0.00     0.038 A 
ATOM      3  C   UNL d   1      22.907 -19.343  -0.574  0.00  0.00     0.025 A 
ATOM      4  C   UNL d   1      21.944 -18.399  -0.824  0.00  0.00     0.044 A 
ATOM      5  C   UNL d   1      20.613 -18.861  -1.024  0.00  0.00     0.099 C 
ATOM      6  N   UNL d   1      19.549 -19.325  -1.146  0.00  0.00    -0.191 NA
ATOM      7  C   UNL d   1      22.317 -17.052  -0.851  0.00  0.00     0.025 A 
ATOM      8  C   UNL d   1      23.645 -16.655  -0.545  0.00  0.00     0.038 A 
ENDROOT
BRANCH   1   9
ATOM      9  O   UNL d   1      25.877 -17.154   0.094  0.00  0.00    -0.337 OA
BRANCH   9  10
ATOM     10  C   UNL d   1      26.792 -16.434  -0.787  0.00  0.00     0.218 C 
ATOM     11  C   UNL d   1      26.130 -15.584  -1.846  0.00  0.00     0.050 C 
BRANCH  10  12
ATOM     12  C   UNL d   1      27.752 -15.492   0.009  0.00  0.00     0.265 C 
ATOM     13  O   UNL d   1      28.492 -14.677  -0.543  0.00  0.00    -0.269 OA
ATOM     14  N   UNL d   1      27.733 -15.644   1.408  0.00  0.00    -0.267 N 
ATOM     15  H   UNL d   1      27.058 -16.215   1.903  0.00  0.00     0.190 HD
BRANCH  14  16
ATOM     16  N   UNL d   1      28.569 -14.826   2.172  0.00  0.00    -0.295 N 
ATOM     17  H   UNL d   1      29.507 -15.178   2.382  0.00  0.00     0.187 HD
BRANCH  16  18
ATOM     18  C   UNL d   1      28.207 -13.513   2.518  0.00  0.00     0.090 A 
ATOM     19  C   UNL d   1      27.878 -12.544   1.556  0.00  0.00     0.037 A 
ATOM     20  C   UNL d   1      27.474 -11.251   1.932  0.00  0.00     0.048 A 
ATOM     21  C   UNL d   1      27.413 -10.904   3.278  0.00  0.00     0.158 A 
ATOM     22  F   UNL d   1      27.000  -9.677   3.626  0.00  0.00    -0.203 F 
ATOM     23  C   UNL d   1      27.776 -11.824   4.247  0.00  0.00     0.195 A 
ATOM     24  F   UNL d   1      27.742 -11.475   5.542  0.00  0.00    -0.199 F 
ATOM     25  C   UNL d   1      28.173 -13.109   3.871  0.00  0.00     0.185 A 
ATOM     26  F   UNL d   1      28.543 -13.973   4.830  0.00  0.00    -0.200 F 
ENDBRANCH  16  18
ENDBRANCH  14  16
ENDBRANCH  10  12
ENDBRANCH   9  10
ENDBRANCH   1   9
TORSDOF 5
ENDMDL
MODEL 8
REMARK VINA RESULT:   -29.686      5.543      7.091
REMARK INTER + INTRA:         -32.515
REMARK INTER:                 -31.177
REMARK INTRA:                  -1.338
REMARK CONF_INDEPENDENT:        1.492
REMARK UNBOUND:                -1.338
REMARK  5 active torsions:
REMARK  status: ('A' for Active; 'I' for Inactive)
REMARK    1  A    between atoms: C_2  and  C_12 
REMARK    2  A    between atoms: C_2  and  O_3 
REMARK    3  A    between atoms: O_3  and  C_4 
REMARK       I    between atoms: C_12  and  N_14 
REMARK    4  A    between atoms: N_14  and  N_15 
REMARK    5  A    between atoms: N_15  and  C_16 
ROOT
ATOM      1  C   UNL d   1      24.669 -17.160  -0.022  0.00  0.00     0.070 A 
ATOM      2  C   UNL d   1      24.352 -18.517  -0.040  0.00  0.00     0.038 A 
ATOM      3  C   UNL d   1      23.119 -19.043  -0.379  0.00  0.00     0.025 A 
ATOM      4  C   UNL d   1      22.122 -18.197  -0.792  0.00  0.00     0.044 A 
ATOM      5  C   UNL d   1      20.852 -18.773  -1.074  0.00  0.00     0.099 C 
ATOM      6  N   UNL d   1      19.839 -19.325  -1.254  0.00  0.00    -0.191 NA
ATOM      7  C   UNL d   1      22.402 -16.831  -0.895  0.00  0.00     0.025 A 
ATOM      8  C   UNL d   1      23.663 -16.312  -0.503  0.00  0.00     0.038 A 
ENDROOT
BRANCH   1   9
ATOM      9  O   UNL d   1      25.852 -16.588   0.376  0.00  0.00    -0.337 OA
BRANCH   9  10
ATOM     10  C   UNL d   1      27.194 -17.076   0.073  0.00  0.00     0.218 C 
ATOM     11  C   UNL d   1      27.388 -18.566   0.227  0.00  0.00     0.050 C 
BRANCH  10  12
ATOM     12  C   UNL d   1      27.635 -16.715  -1.383  0.00  0.00     0.265 C 
ATOM     13  O   UNL d   1      28.710 -17.077  -1.862  0.00  0.00    -0.269 OA
ATOM     14  N   UNL d   1      26.727 -15.928  -2.116  0.00  0.00    -0.267 N 
ATOM     15  H   UNL d   1      25.787 -15.712  -1.802  0.00  0.00     0.190 HD
BRANCH  14  16
ATOM     16  N   UNL d   1      27.066 -15.577  -3.426  0.00  0.00    -0.295 N 
ATOM     17  H   UNL d   1      27.482 -16.304  -4.014  0.00  0.00     0.187 HD
BRANCH  16  18
ATOM     18  C   UNL d   1      26.721 -14.329  -3.972  0.00  0.00     0.090 A 
ATOM     19  C   UNL d   1      25.801 -13.465  -3.355  0.00  0.00     0.037 A 
ATOM     20  C   UNL d   1      25.509 -12.202  -3.898  0.00  0.00     0.048 A 
ATOM     21  C   UNL d   1      26.121 -11.793  -5.079  0.00  0.00     0.158 A 
ATOM     22  F   UNL d   1      25.856 -10.576  -5.573  0.00  0.00    -0.203 F 
ATOM     23  C   UNL d   1      26.997 -12.642  -5.734  0.00  0.00     0.195 A 
ATOM     24  F   UNL d   1      27.563 -12.254  -6.887  0.00  0.00    -0.199 F 
ATOM     25  C   UNL d   1      27.289 -13.894  -5.189  0.00  0.00     0.185 A 
ATOM     26  F   UNL d   1      28.124 -14.706  -5.858  0.00  0.00    -0.200 F 
ENDBRANCH  16  18
ENDBRANCH  14  16
ENDBRANCH  10  12
ENDBRANCH   9  10
ENDBRANCH   1   9
TORSDOF 5
ENDMDL
MODEL 9
REMARK VINA RESULT:   -29.536      1.664      2.153
REMARK INTER + INTRA:         -32.426
REMARK INTER:                 -31.027
REMARK INTRA:                  -1.399
REMARK CONF_INDEPENDENT:        1.492
REMARK UNBOUND:                -1.399
REMARK  5 active torsions:
REMARK  status: ('A' for Active; 'I' for Inactive)
REMARK    1  A    between atoms: C_2  and  C_12 
REMARK    2  A    between atoms: C_2  and  O_3 
REMARK    3  A    between atoms: O_3  and  C_4 
REMARK       I    between atoms: C_12  and  N_14 
REMARK    4  A    between atoms: N_14  and  N_15 
REMARK    5  A    between atoms: N_15  and  C_16 
ROOT
ATOM      1  C   UNL d   1      24.615 -17.119  -0.535  0.00  0.00     0.070 A 
ATOM      2  C   UNL d   1      23.399 -16.436  -0.537  0.00  0.00     0.038 A 
ATOM      3  C   UNL d   1      22.155 -17.026  -0.663  0.00  0.00     0.025 A 
ATOM      4  C   UNL d   1      22.067 -18.392  -0.737  0.00  0.00     0.044 A 
ATOM      5  C   UNL d   1      20.773 -18.954  -0.926  0.00  0.00     0.099 C 
ATOM      6  N   UNL d   1      19.682 -19.325  -1.110  0.00  0.00    -0.191 NA
ATOM      7  C   UNL d   1      23.240 -19.146  -0.639  0.00  0.00     0.025 A 
ATOM      8  C   UNL d   1      24.508 -18.515  -0.550  0.00  0.00     0.038 A 
ENDROOT
BRANCH   1   9
ATOM      9  O   UNL d   1      25.873 -16.572  -0.485  0.00  0.00    -0.337 OA
BRANCH   9  10
ATOM     10  C   UNL d   1      26.482 -15.705  -1.490  0.00  0.00     0.218 C 
ATOM     11  C   UNL d   1      25.546 -15.217  -2.571  0.00  0.00     0.050 C 
BRANCH  10  12
ATOM     12  C   UNL d   1      27.131 -14.435  -0.851  0.00  0.00     0.265 C 
ATOM     13  O   UNL d   1      27.682 -13.561  -1.522  0.00  0.00    -0.269 OA
ATOM     14  N   UNL d   1      27.064 -14.357   0.552  0.00  0.00    -0.267 N 
ATOM     15  H   UNL d   1      26.520 -14.991   1.126  0.00  0.00     0.190 HD
BRANCH  14  16
ATOM     16  N   UNL d   1      27.626 -13.241   1.178  0.00  0.00    -0.295 N 
ATOM     17  H   UNL d   1      27.885 -12.450   0.583  0.00  0.00     0.187 HD
BRANCH  16  18
ATOM     18  C   UNL d   1      27.700 -13.135   2.578  0.00  0.00     0.090 A 
ATOM     19  C   UNL d   1      27.744 -11.896   3.238  0.00  0.00     0.037 A 
ATOM     20  C   UNL d   1      27.772 -11.818   4.642  0.00  0.00     0.048 A 
ATOM     21  C   UNL d   1      27.777 -12.982   5.404  0.00  0.00     0.158 A 
ATOM     22  F   UNL d   1      27.775 -12.895   6.742  0.00  0.00    -0.203 F 
ATOM     23  C   UNL d   1      27.780 -14.218   4.780  0.00  0.00     0.195 A 
ATOM     24  F   UNL d   1      27.813 -15.337   5.519  0.00  0.00    -0.199 F 
ATOM     25  C   UNL d   1      27.749 -14.292   3.385  0.00  0.00     0.185 A 
ATOM     26  F   UNL d   1      27.778 -15.504   2.807  0.00  0.00    -0.200 F 
ENDBRANCH  16  18
ENDBRANCH  14  16
ENDBRANCH  10  12
ENDBRANCH   9  10
ENDBRANCH   1   9
TORSDOF 5
ENDMDL
