MODEL 1
REMARK VINA RESULT:    -9.254      0.000      0.000
REMARK INTER + INTRA:         -13.307
REMARK INTER:                 -11.640
REMARK INTRA:                  -1.667
REMARK CONF_INDEPENDENT:        2.386
REMARK UNBOUND:                -1.667
REMARK  8 active torsions:
REMARK  status: ('A' for Active; 'I' for Inactive)
REMARK    1  A    between atoms: C_2  and  C_3 
REMARK    2  A    between atoms: C_6  and  C_7 
REMARK    3  A    between atoms: C_7  and  N_8 
REMARK    4  A    between atoms: N_8  and  C_9 
REMARK    5  A    between atoms: C_13  and  N_14 
REMARK       I    between atoms: N_14  and  C_15 
REMARK    6  A    between atoms: C_15  and  C_17 
REMARK    7  A    between atoms: C_17  and  O_18 
REMARK    8  A    between atoms: C_26  and  O_27 
ROOT
ATOM      1  C   UNL d   1      27.011 -16.828   0.304  0.00  0.00     0.132 C 
ENDROOT
BRANCH   1   2
ATOM      2  C   UNL d   1      28.045 -16.850  -0.820  0.00  0.00    -0.026 A 
ATOM      3  C   UNL d   1      27.848 -16.346  -2.204  0.00  0.00     0.006 A 
ATOM      4  C   UNL d   1      26.665 -15.811  -2.721  0.00  0.00     0.024 C 
ATOM      5  C   UNL d   1      28.905 -16.382  -3.106  0.00  0.00     0.093 A 
ATOM      6  C   UNL d   1      26.539 -15.199  -3.969  0.00  0.00    -0.024 C 
ATOM      7  C   UNL d   1      27.601 -15.305  -4.843  0.00  0.00     0.074 C 
ATOM      8  C   UNL d   1      28.787 -15.912  -4.426  0.00  0.00     0.075 C 
ATOM      9  O   UNL d   1      30.154 -16.925  -2.751  0.00  0.00    -0.275 OA
ATOM     10  C   UNL d   1      30.379 -17.430  -1.482  0.00  0.00     0.288 A 
ATOM     11  C   UNL d   1      29.263 -17.339  -0.525  0.00  0.00     0.091 A 
ATOM     12  O   UNL d   1      31.443 -17.926  -1.151  0.00  0.00    -0.260 OA
BRANCH   6  13
ATOM     13  C   UNL d   1      25.257 -14.435  -4.202  0.00  0.00     0.037 C 
ATOM     14  C   UNL d   1      25.540 -12.929  -4.265  0.00  0.00     0.010 C 
ENDBRANCH   6  13
BRANCH   7  15
ATOM     15  O   UNL d   1      27.452 -14.825  -6.108  0.00  0.00    -0.360 OA
ATOM     16  H   UNL d   1      27.674 -13.880  -6.110  0.00  0.00     0.217 HD
ENDBRANCH   7  15
ENDBRANCH   1   2
BRANCH   1  17
ATOM     17  N   UNL d   1      26.056 -17.916   0.151  0.00  0.00    -0.289 NA
ATOM     18  H   UNL d   1      26.443 -18.469  -0.615  0.00  0.00     0.128 HD
BRANCH  17  19
ATOM     19  C   UNL d   1      24.759 -17.743  -0.320  0.00  0.00     0.010 A 
ATOM     20  C   UNL d   1      24.421 -16.565  -0.975  0.00  0.00     0.023 A 
ATOM     21  C   UNL d   1      23.086 -16.282  -1.263  0.00  0.00     0.004 A 
ATOM     22  C   UNL d   1      22.075 -17.188  -0.895  0.00  0.00     0.029 A 
ATOM     23  C   UNL d   1      22.397 -18.325  -0.143  0.00  0.00     0.036 A 
ATOM     24  C   UNL d   1      23.737 -18.549   0.144  0.00  0.00     0.053 A 
BRANCH  23  25
ATOM     25  N   UNL d   1      21.403 -19.219   0.337  0.00  0.00    -0.325 N 
ATOM     26  C   UNL d   1      20.432 -19.822  -0.466  0.00  0.00     0.245 C 
ATOM     27  O   UNL d   1      20.280 -19.673  -1.681  0.00  0.00    -0.271 OA
ATOM     28  H   UNL d   1      21.416 -19.421   1.331  0.00  0.00     0.169 HD
BRANCH  26  29
ATOM     29  C   UNL d   1      19.435 -20.723   0.246  0.00  0.00     0.267 C 
BRANCH  29  30
ATOM     30  O   UNL d   1      18.150 -20.633  -0.374  0.00  0.00    -0.392 OA
ATOM     31  H   UNL d   1      18.225 -19.930  -1.053  0.00  0.00     0.210 HD
ENDBRANCH  29  30
ENDBRANCH  26  29
ENDBRANCH  23  25
ENDBRANCH  17  19
ENDBRANCH   1  17
TORSDOF 8
ENDMDL
MODEL 2
REMARK VINA RESULT:    -8.969      2.499      4.389
REMARK INTER + INTRA:         -12.713
REMARK INTER:                 -11.355
REMARK INTRA:                  -1.357
REMARK CONF_INDEPENDENT:        2.386
REMARK UNBOUND:                -1.357
REMARK  8 active torsions:
REMARK  status: ('A' for Active; 'I' for Inactive)
REMARK    1  A    between atoms: C_2  and  C_3 
REMARK    2  A    between atoms: C_6  and  C_7 
REMARK    3  A    between atoms: C_7  and  N_8 
REMARK    4  A    between atoms: N_8  and  C_9 
REMARK    5  A    between atoms: C_13  and  N_14 
REMARK       I    between atoms: N_14  and  C_15 
REMARK    6  A    between atoms: C_15  and  C_17 
REMARK    7  A    between atoms: C_17  and  O_18 
REMARK    8  A    between atoms: C_26  and  O_27 
ROOT
ATOM      1  C   UNL d   1      25.331 -13.886  -2.632  0.00  0.00     0.132 C 
ENDROOT
BRANCH   1   2
ATOM      2  C   UNL d   1      26.086 -13.625  -3.934  0.00  0.00    -0.026 A 
ATOM      3  C   UNL d   1      26.170 -12.328  -4.654  0.00  0.00     0.006 A 
ATOM      4  C   UNL d   1      25.530 -11.141  -4.285  0.00  0.00     0.024 C 
ATOM      5  C   UNL d   1      26.945 -12.229  -5.804  0.00  0.00     0.093 A 
ATOM      6  C   UNL d   1      25.743  -9.897  -4.880  0.00  0.00    -0.024 C 
ATOM      7  C   UNL d   1      26.481  -9.862  -6.044  0.00  0.00     0.074 C 
ATOM      8  C   UNL d   1      27.074 -11.030  -6.527  0.00  0.00     0.075 C 
ATOM      9  O   UNL d   1      27.624 -13.345  -6.329  0.00  0.00    -0.275 OA
ATOM     10  C   UNL d   1      27.557 -14.580  -5.708  0.00  0.00     0.288 A 
ATOM     11  C   UNL d   1      26.770 -14.654  -4.465  0.00  0.00     0.091 A 
ATOM     12  O   UNL d   1      28.116 -15.569  -6.150  0.00  0.00    -0.260 OA
BRANCH   6  13
ATOM     13  C   UNL d   1      25.176  -8.708  -4.138  0.00  0.00     0.037 C 
ATOM     14  C   UNL d   1      24.109  -8.011  -4.991  0.00  0.00     0.010 C 
ENDBRANCH   6  13
BRANCH   7  15
ATOM     15  O   UNL d   1      26.594  -8.678  -6.707  0.00  0.00    -0.360 OA
ATOM     16  H   UNL d   1      25.835  -8.583  -7.304  0.00  0.00     0.217 HD
ENDBRANCH   7  15
ENDBRANCH   1   2
BRANCH   1  17
ATOM     17  N   UNL d   1      24.708 -15.202  -2.648  0.00  0.00    -0.289 NA
ATOM     18  H   UNL d   1      23.708 -14.994  -2.628  0.00  0.00     0.128 HD
BRANCH  17  19
ATOM     19  C   UNL d   1      24.779 -16.101  -1.591  0.00  0.00     0.010 A 
ATOM     20  C   UNL d   1      26.001 -16.333  -0.971  0.00  0.00     0.023 A 
ATOM     21  C   UNL d   1      26.137 -17.380  -0.059  0.00  0.00     0.004 A 
ATOM     22  C   UNL d   1      25.037 -18.204   0.240  0.00  0.00     0.029 A 
ATOM     23  C   UNL d   1      23.834 -18.042  -0.456  0.00  0.00     0.036 A 
ATOM     24  C   UNL d   1      23.755 -17.005  -1.376  0.00  0.00     0.053 A 
BRANCH  23  25
ATOM     25  N   UNL d   1      22.725 -18.910  -0.261  0.00  0.00    -0.325 N 
ATOM     26  C   UNL d   1      21.423 -18.630  -0.681  0.00  0.00     0.245 C 
ATOM     27  O   UNL d   1      21.035 -17.613  -1.260  0.00  0.00    -0.271 OA
ATOM     28  H   UNL d   1      22.913 -19.786   0.214  0.00  0.00     0.169 HD
BRANCH  26  29
ATOM     29  C   UNL d   1      20.370 -19.675  -0.346  0.00  0.00     0.267 C 
BRANCH  29  30
ATOM     30  O   UNL d   1      19.347 -19.689  -1.345  0.00  0.00    -0.392 OA
ATOM     31  H   UNL d   1      19.239 -18.759  -1.635  0.00  0.00     0.210 HD
ENDBRANCH  29  30
ENDBRANCH  26  29
ENDBRANCH  23  25
ENDBRANCH  17  19
ENDBRANCH   1  17
TORSDOF 8
ENDMDL
MODEL 3
REMARK VINA RESULT:    -8.916      2.328      2.817
REMARK INTER + INTRA:         -13.008
REMARK INTER:                 -11.303
REMARK INTRA:                  -1.706
REMARK CONF_INDEPENDENT:        2.386
REMARK UNBOUND:                -1.706
REMARK  8 active torsions:
REMARK  status: ('A' for Active; 'I' for Inactive)
REMARK    1  A    between atoms: C_2  and  C_3 
REMARK    2  A    between atoms: C_6  and  C_7 
REMARK    3  A    between atoms: C_7  and  N_8 
REMARK    4  A    between atoms: N_8  and  C_9 
REMARK    5  A    between atoms: C_13  and  N_14 
REMARK       I    between atoms: N_14  and  C_15 
REMARK    6  A    between atoms: C_15  and  C_17 
REMARK    7  A    between atoms: C_17  and  O_18 
REMARK    8  A    between atoms: C_26  and  O_27 
ROOT
ATOM      1  C   UNL d   1      27.250 -17.347  -0.306  0.00  0.00     0.132 C 
ENDROOT
BRANCH   1   2
ATOM      2  C   UNL d   1      27.329 -15.853   0.000  0.00  0.00    -0.026 A 
ATOM      3  C   UNL d   1      26.942 -14.748  -0.916  0.00  0.00     0.006 A 
ATOM      4  C   UNL d   1      26.486 -14.893  -2.228  0.00  0.00     0.024 C 
ATOM      5  C   UNL d   1      27.017 -13.432  -0.475  0.00  0.00     0.093 A 
ATOM      6  C   UNL d   1      25.978 -13.862  -3.020  0.00  0.00    -0.024 C 
ATOM      7  C   UNL d   1      26.120 -12.571  -2.557  0.00  0.00     0.074 C 
ATOM      8  C   UNL d   1      26.656 -12.343  -1.288  0.00  0.00     0.075 C 
ATOM      9  O   UNL d   1      27.492 -13.115   0.811  0.00  0.00    -0.275 OA
ATOM     10  C   UNL d   1      27.888 -14.107   1.692  0.00  0.00     0.288 A 
ATOM     11  C   UNL d   1      27.756 -15.497   1.225  0.00  0.00     0.091 A 
ATOM     12  O   UNL d   1      28.324 -13.863   2.804  0.00  0.00    -0.260 OA
BRANCH   6  13
ATOM     13  C   UNL d   1      25.274 -14.290  -4.287  0.00  0.00     0.037 C 
ATOM     14  C   UNL d   1      25.905 -15.575  -4.836  0.00  0.00     0.010 C 
ENDBRANCH   6  13
BRANCH   7  15
ATOM     15  O   UNL d   1      25.746 -11.544  -3.368  0.00  0.00    -0.360 OA
ATOM     16  H   UNL d   1      25.022 -11.847  -3.939  0.00  0.00     0.217 HD
ENDBRANCH   7  15
ENDBRANCH   1   2
BRANCH   1  17
ATOM     17  N   UNL d   1      26.060 -17.937   0.291  0.00  0.00    -0.289 NA
ATOM     18  H   UNL d   1      26.183 -18.938   0.132  0.00  0.00     0.128 HD
BRANCH  17  19
ATOM     19  C   UNL d   1      24.779 -17.776  -0.224  0.00  0.00     0.010 A 
ATOM     20  C   UNL d   1      24.459 -16.612  -0.912  0.00  0.00     0.023 A 
ATOM     21  C   UNL d   1      23.134 -16.337  -1.248  0.00  0.00     0.004 A 
ATOM     22  C   UNL d   1      22.114 -17.239  -0.894  0.00  0.00     0.029 A 
ATOM     23  C   UNL d   1      22.414 -18.360  -0.111  0.00  0.00     0.036 A 
ATOM     24  C   UNL d   1      23.744 -18.576   0.223  0.00  0.00     0.053 A 
BRANCH  23  25
ATOM     25  N   UNL d   1      21.406 -19.247   0.356  0.00  0.00    -0.325 N 
ATOM     26  C   UNL d   1      20.391 -19.776  -0.446  0.00  0.00     0.245 C 
ATOM     27  O   UNL d   1      20.205 -19.558  -1.645  0.00  0.00    -0.271 OA
ATOM     28  H   UNL d   1      21.444 -19.502   1.336  0.00  0.00     0.169 HD
BRANCH  26  29
ATOM     29  C   UNL d   1      19.388 -20.682   0.252  0.00  0.00     0.267 C 
BRANCH  29  30
ATOM     30  O   UNL d   1      18.088 -20.518  -0.318  0.00  0.00    -0.392 OA
ATOM     31  H   UNL d   1      18.181 -19.833  -1.013  0.00  0.00     0.210 HD
ENDBRANCH  29  30
ENDBRANCH  26  29
ENDBRANCH  23  25
ENDBRANCH  17  19
ENDBRANCH   1  17
TORSDOF 8
ENDMDL
MODEL 4
REMARK VINA RESULT:    -8.826      2.586      4.518
REMARK INTER + INTRA:         -12.600
REMARK INTER:                 -11.212
REMARK INTRA:                  -1.388
REMARK CONF_INDEPENDENT:        2.386
REMARK UNBOUND:                -1.388
REMARK  8 active torsions:
REMARK  status: ('A' for Active; 'I' for Inactive)
REMARK    1  A    between atoms: C_2  and  C_3 
REMARK    2  A    between atoms: C_6  and  C_7 
REMARK    3  A    between atoms: C_7  and  N_8 
REMARK    4  A    between atoms: N_8  and  C_9 
REMARK    5  A    between atoms: C_13  and  N_14 
REMARK       I    between atoms: N_14  and  C_15 
REMARK    6  A    between atoms: C_15  and  C_17 
REMARK    7  A    between atoms: C_17  and  O_18 
REMARK    8  A    between atoms: C_26  and  O_27 
ROOT
ATOM      1  C   UNL d   1      25.801 -15.570  -3.903  0.00  0.00     0.132 C 
ENDROOT
BRANCH   1   2
ATOM      2  C   UNL d   1      26.423 -14.376  -4.624  0.00  0.00    -0.026 A 
ATOM      3  C   UNL d   1      27.698 -14.379  -5.388  0.00  0.00     0.006 A 
ATOM      4  C   UNL d   1      28.565 -15.465  -5.532  0.00  0.00     0.024 C 
ATOM      5  C   UNL d   1      28.111 -13.223  -6.041  0.00  0.00     0.093 A 
ATOM      6  C   UNL d   1      29.675 -15.499  -6.379  0.00  0.00    -0.024 C 
ATOM      7  C   UNL d   1      30.069 -14.315  -6.965  0.00  0.00     0.074 C 
ATOM      8  C   UNL d   1      29.301 -13.162  -6.788  0.00  0.00     0.075 C 
ATOM      9  O   UNL d   1      27.367 -12.031  -5.963  0.00  0.00    -0.275 OA
ATOM     10  C   UNL d   1      26.186 -11.971  -5.243  0.00  0.00     0.288 A 
ATOM     11  C   UNL d   1      25.740 -13.217  -4.598  0.00  0.00     0.091 A 
ATOM     12  O   UNL d   1      25.531 -10.947  -5.139  0.00  0.00    -0.260 OA
BRANCH   6  13
ATOM     13  C   UNL d   1      30.292 -16.860  -6.600  0.00  0.00     0.037 C 
ATOM     14  C   UNL d   1      31.209 -17.224  -5.426  0.00  0.00     0.010 C 
ENDBRANCH   6  13
BRANCH   7  15
ATOM     15  O   UNL d   1      31.219 -14.300  -7.692  0.00  0.00    -0.360 OA
ATOM     16  H   UNL d   1      30.990 -14.245  -8.634  0.00  0.00     0.217 HD
ENDBRANCH   7  15
ENDBRANCH   1   2
BRANCH   1  17
ATOM     17  N   UNL d   1      25.314 -15.185  -2.586  0.00  0.00    -0.289 NA
ATOM     18  H   UNL d   1      26.091 -14.654  -2.189  0.00  0.00     0.128 HD
BRANCH  17  19
ATOM     19  C   UNL d   1      25.096 -16.087  -1.551  0.00  0.00     0.010 A 
ATOM     20  C   UNL d   1      26.168 -16.799  -1.027  0.00  0.00     0.023 A 
ATOM     21  C   UNL d   1      25.944 -17.855  -0.144  0.00  0.00     0.004 A 
ATOM     22  C   UNL d   1      24.631 -18.203   0.222  0.00  0.00     0.029 A 
ATOM     23  C   UNL d   1      23.544 -17.561  -0.382  0.00  0.00     0.036 A 
ATOM     24  C   UNL d   1      23.818 -16.534  -1.276  0.00  0.00     0.053 A 
BRANCH  23  25
ATOM     25  N   UNL d   1      22.200 -17.942  -0.120  0.00  0.00    -0.325 N 
ATOM     26  C   UNL d   1      21.440 -18.767  -0.953  0.00  0.00     0.245 C 
ATOM     27  O   UNL d   1      21.797 -19.273  -2.019  0.00  0.00    -0.271 OA
ATOM     28  H   UNL d   1      21.784 -17.582   0.732  0.00  0.00     0.169 HD
BRANCH  26  29
ATOM     29  C   UNL d   1      20.008 -19.030  -0.512  0.00  0.00     0.267 C 
BRANCH  29  30
ATOM     30  O   UNL d   1      19.287 -19.711  -1.541  0.00  0.00    -0.392 OA
ATOM     31  H   UNL d   1      19.595 -19.326  -2.388  0.00  0.00     0.210 HD
ENDBRANCH  29  30
ENDBRANCH  26  29
ENDBRANCH  23  25
ENDBRANCH  17  19
ENDBRANCH   1  17
TORSDOF 8
ENDMDL
MODEL 5
REMARK VINA RESULT:    -8.486      1.827      3.819
REMARK INTER + INTRA:         -12.634
REMARK INTER:                 -10.873
REMARK INTRA:                  -1.762
REMARK CONF_INDEPENDENT:        2.386
REMARK UNBOUND:                -1.762
REMARK  8 active torsions:
REMARK  status: ('A' for Active; 'I' for Inactive)
REMARK    1  A    between atoms: C_2  and  C_3 
REMARK    2  A    between atoms: C_6  and  C_7 
REMARK    3  A    between atoms: C_7  and  N_8 
REMARK    4  A    between atoms: N_8  and  C_9 
REMARK    5  A    between atoms: C_13  and  N_14 
REMARK       I    between atoms: N_14  and  C_15 
REMARK    6  A    between atoms: C_15  and  C_17 
REMARK    7  A    between atoms: C_17  and  O_18 
REMARK    8  A    between atoms: C_26  and  O_27 
ROOT
ATOM      1  C   UNL d   1      24.951 -14.189  -2.429  0.00  0.00     0.132 C 
ENDROOT
BRANCH   1   2
ATOM      2  C   UNL d   1      26.363 -14.652  -2.782  0.00  0.00    -0.026 A 
ATOM      3  C   UNL d   1      27.480 -14.868  -1.826  0.00  0.00     0.006 A 
ATOM      4  C   UNL d   1      27.437 -14.636  -0.448  0.00  0.00     0.024 C 
ATOM      5  C   UNL d   1      28.700 -15.346  -2.291  0.00  0.00     0.093 A 
ATOM      6  C   UNL d   1      28.439 -14.991   0.457  0.00  0.00    -0.024 C 
ATOM      7  C   UNL d   1      29.645 -15.416  -0.059  0.00  0.00     0.074 C 
ATOM      8  C   UNL d   1      29.793 -15.581  -1.437  0.00  0.00     0.075 C 
ATOM      9  O   UNL d   1      28.917 -15.595  -3.659  0.00  0.00    -0.275 OA
ATOM     10  C   UNL d   1      27.916 -15.385  -4.591  0.00  0.00     0.288 A 
ATOM     11  C   UNL d   1      26.616 -14.924  -4.075  0.00  0.00     0.091 A 
ATOM     12  O   UNL d   1      28.081 -15.570  -5.785  0.00  0.00    -0.260 OA
BRANCH   6  13
ATOM     13  C   UNL d   1      28.062 -14.918   1.918  0.00  0.00     0.037 C 
ATOM     14  C   UNL d   1      28.320 -13.508   2.463  0.00  0.00     0.010 C 
ENDBRANCH   6  13
BRANCH   7  15
ATOM     15  O   UNL d   1      30.675 -15.647   0.801  0.00  0.00    -0.360 OA
ATOM     16  H   UNL d   1      30.368 -16.250   1.498  0.00  0.00     0.217 HD
ENDBRANCH   7  15
ENDBRANCH   1   2
BRANCH   1  17
ATOM     17  N   UNL d   1      24.031 -15.317  -2.386  0.00  0.00    -0.289 NA
ATOM     18  H   UNL d   1      23.134 -14.886  -2.158  0.00  0.00     0.128 HD
BRANCH  17  19
ATOM     19  C   UNL d   1      24.069 -16.305  -1.409  0.00  0.00     0.010 A 
ATOM     20  C   UNL d   1      25.274 -16.933  -1.117  0.00  0.00     0.023 A 
ATOM     21  C   UNL d   1      25.295 -18.065  -0.302  0.00  0.00     0.004 A 
ATOM     22  C   UNL d   1      24.097 -18.575   0.231  0.00  0.00     0.029 A 
ATOM     23  C   UNL d   1      22.871 -18.012  -0.143  0.00  0.00     0.036 A 
ATOM     24  C   UNL d   1      22.899 -16.904  -0.980  0.00  0.00     0.053 A 
BRANCH  23  25
ATOM     25  N   UNL d   1      21.629 -18.551   0.289  0.00  0.00    -0.325 N 
ATOM     26  C   UNL d   1      20.736 -19.233  -0.542  0.00  0.00     0.245 C 
ATOM     27  O   UNL d   1      20.872 -19.461  -1.746  0.00  0.00    -0.271 OA
ATOM     28  H   UNL d   1      21.395 -18.423   1.267  0.00  0.00     0.169 HD
BRANCH  26  29
ATOM     29  C   UNL d   1      19.442 -19.703   0.106  0.00  0.00     0.267 C 
BRANCH  29  30
ATOM     30  O   UNL d   1      18.469 -20.012  -0.894  0.00  0.00    -0.392 OA
ATOM     31  H   UNL d   1      18.796 -19.607  -1.725  0.00  0.00     0.210 HD
ENDBRANCH  29  30
ENDBRANCH  26  29
ENDBRANCH  23  25
ENDBRANCH  17  19
ENDBRANCH   1  17
TORSDOF 8
ENDMDL
MODEL 6
REMARK VINA RESULT:    -8.251      3.963      5.731
REMARK INTER + INTRA:         -12.126
REMARK INTER:                 -10.638
REMARK INTRA:                  -1.489
REMARK CONF_INDEPENDENT:        2.386
REMARK UNBOUND:                -1.489
REMARK  8 active torsions:
REMARK  status: ('A' for Active; 'I' for Inactive)
REMARK    1  A    between atoms: C_2  and  C_3 
REMARK    2  A    between atoms: C_6  and  C_7 
REMARK    3  A    between atoms: C_7  and  N_8 
REMARK    4  A    between atoms: N_8  and  C_9 
REMARK    5  A    between atoms: C_13  and  N_14 
REMARK       I    between atoms: N_14  and  C_15 
REMARK    6  A    between atoms: C_15  and  C_17 
REMARK    7  A    between atoms: C_17  and  O_18 
REMARK    8  A    between atoms: C_26  and  O_27 
ROOT
ATOM      1  C   UNL d   1      27.851 -16.609   0.601  0.00  0.00     0.132 C 
ENDROOT
BRANCH   1   2
ATOM      2  C   UNL d   1      27.562 -15.115   0.737  0.00  0.00    -0.026 A 
ATOM      3  C   UNL d   1      27.607 -14.324   1.994  0.00  0.00     0.006 A 
ATOM      4  C   UNL d   1      27.874 -14.826   3.270  0.00  0.00     0.024 C 
ATOM      5  C   UNL d   1      27.373 -12.954   1.952  0.00  0.00     0.093 A 
ATOM      6  C   UNL d   1      28.067 -14.050   4.414  0.00  0.00    -0.024 C 
ATOM      7  C   UNL d   1      27.777 -12.704   4.330  0.00  0.00     0.074 C 
ATOM      8  C   UNL d   1      27.410 -12.147   3.103  0.00  0.00     0.075 C 
ATOM      9  O   UNL d   1      27.054 -12.301   0.747  0.00  0.00    -0.275 OA
ATOM     10  C   UNL d   1      26.976 -12.999  -0.446  0.00  0.00     0.288 A 
ATOM     11  C   UNL d   1      27.273 -14.440  -0.390  0.00  0.00     0.091 A 
ATOM     12  O   UNL d   1      26.680 -12.465  -1.502  0.00  0.00    -0.260 OA
BRANCH   6  13
ATOM     13  C   UNL d   1      28.631 -14.774   5.614  0.00  0.00     0.037 C 
ATOM     14  C   UNL d   1      29.741 -13.938   6.264  0.00  0.00     0.010 C 
ENDBRANCH   6  13
BRANCH   7  15
ATOM     15  O   UNL d   1      27.838 -11.954   5.464  0.00  0.00    -0.360 OA
ATOM     16  H   UNL d   1      27.168 -12.278   6.087  0.00  0.00     0.217 HD
ENDBRANCH   7  15
ENDBRANCH   1   2
BRANCH   1  17
ATOM     17  N   UNL d   1      26.682 -17.399   0.961  0.00  0.00    -0.289 NA
ATOM     18  H   UNL d   1      27.054 -18.343   1.069  0.00  0.00     0.128 HD
BRANCH  17  19
ATOM     19  C   UNL d   1      25.631 -17.661   0.089  0.00  0.00     0.010 A 
ATOM     20  C   UNL d   1      25.626 -17.076  -1.171  0.00  0.00     0.023 A 
ATOM     21  C   UNL d   1      24.488 -17.152  -1.974  0.00  0.00     0.004 A 
ATOM     22  C   UNL d   1      23.341 -17.824  -1.514  0.00  0.00     0.029 A 
ATOM     23  C   UNL d   1      23.303 -18.324  -0.207  0.00  0.00     0.036 A 
ATOM     24  C   UNL d   1      24.450 -18.199   0.565  0.00  0.00     0.053 A 
BRANCH  23  25
ATOM     25  N   UNL d   1      22.135 -18.924   0.338  0.00  0.00    -0.325 N 
ATOM     26  C   UNL d   1      21.055 -19.377  -0.422  0.00  0.00     0.245 C 
ATOM     27  O   UNL d   1      20.939 -19.324  -1.649  0.00  0.00    -0.271 OA
ATOM     28  H   UNL d   1      22.104 -19.020   1.347  0.00  0.00     0.169 HD
BRANCH  26  29
ATOM     29  C   UNL d   1      19.884 -19.959   0.355  0.00  0.00     0.267 C 
BRANCH  29  30
ATOM     30  O   UNL d   1      20.176 -19.981   1.754  0.00  0.00    -0.392 OA
ATOM     31  H   UNL d   1      21.024 -20.463   1.846  0.00  0.00     0.210 HD
ENDBRANCH  29  30
ENDBRANCH  26  29
ENDBRANCH  23  25
ENDBRANCH  17  19
ENDBRANCH   1  17
TORSDOF 8
ENDMDL
MODEL 7
REMARK VINA RESULT:    -8.146      2.690      4.125
REMARK INTER + INTRA:         -12.118
REMARK INTER:                 -10.532
REMARK INTRA:                  -1.586
REMARK CONF_INDEPENDENT:        2.386
REMARK UNBOUND:                -1.586
REMARK  8 active torsions:
REMARK  status: ('A' for Active; 'I' for Inactive)
REMARK    1  A    between atoms: C_2  and  C_3 
REMARK    2  A    between atoms: C_6  and  C_7 
REMARK    3  A    between atoms: C_7  and  N_8 
REMARK    4  A    between atoms: N_8  and  C_9 
REMARK    5  A    between atoms: C_13  and  N_14 
REMARK       I    between atoms: N_14  and  C_15 
REMARK    6  A    between atoms: C_15  and  C_17 
REMARK    7  A    between atoms: C_17  and  O_18 
REMARK    8  A    between atoms: C_26  and  O_27 
ROOT
ATOM      1  C   UNL d   1      26.990 -17.692   0.748  0.00  0.00     0.132 C 
ENDROOT
BRANCH   1   2
ATOM      2  C   UNL d   1      27.662 -16.522   0.032  0.00  0.00    -0.026 A 
ATOM      3  C   UNL d   1      27.978 -15.196   0.624  0.00  0.00     0.006 A 
ATOM      4  C   UNL d   1      27.667 -14.782   1.922  0.00  0.00     0.024 C 
ATOM      5  C   UNL d   1      28.646 -14.244  -0.138  0.00  0.00     0.093 A 
ATOM      6  C   UNL d   1      28.107 -13.597   2.514  0.00  0.00    -0.024 C 
ATOM      7  C   UNL d   1      28.723 -12.668   1.703  0.00  0.00     0.074 C 
ATOM      8  C   UNL d   1      28.982 -12.975   0.366  0.00  0.00     0.075 C 
ATOM      9  O   UNL d   1      28.997 -14.492  -1.478  0.00  0.00    -0.275 OA
ATOM     10  C   UNL d   1      28.702 -15.702  -2.081  0.00  0.00     0.288 A 
ATOM     11  C   UNL d   1      28.038 -16.715  -1.245  0.00  0.00     0.091 A 
ATOM     12  O   UNL d   1      28.974 -15.939  -3.247  0.00  0.00    -0.260 OA
BRANCH   6  13
ATOM     13  C   UNL d   1      27.902 -13.491   4.007  0.00  0.00     0.037 C 
ATOM     14  C   UNL d   1      28.053 -14.869   4.663  0.00  0.00     0.010 C 
ENDBRANCH   6  13
BRANCH   7  15
ATOM     15  O   UNL d   1      29.046 -11.456   2.231  0.00  0.00    -0.360 OA
ATOM     16  H   UNL d   1      29.761 -11.579   2.876  0.00  0.00     0.217 HD
ENDBRANCH   7  15
ENDBRANCH   1   2
BRANCH   1  17
ATOM     17  N   UNL d   1      26.138 -18.439  -0.167  0.00  0.00    -0.289 NA
ATOM     18  H   UNL d   1      26.582 -18.300  -1.076  0.00  0.00     0.128 HD
BRANCH  17  19
ATOM     19  C   UNL d   1      24.837 -18.066  -0.486  0.00  0.00     0.010 A 
ATOM     20  C   UNL d   1      24.591 -16.788  -0.972  0.00  0.00     0.023 A 
ATOM     21  C   UNL d   1      23.281 -16.325  -1.095  0.00  0.00     0.004 A 
ATOM     22  C   UNL d   1      22.202 -17.150  -0.729  0.00  0.00     0.029 A 
ATOM     23  C   UNL d   1      22.445 -18.396  -0.140  0.00  0.00     0.036 A 
ATOM     24  C   UNL d   1      23.767 -18.803  -0.013  0.00  0.00     0.053 A 
BRANCH  23  25
ATOM     25  N   UNL d   1      21.393 -19.225   0.336  0.00  0.00    -0.325 N 
ATOM     26  C   UNL d   1      20.403 -19.784  -0.475  0.00  0.00     0.245 C 
ATOM     27  O   UNL d   1      20.279 -19.646  -1.694  0.00  0.00    -0.271 OA
ATOM     28  H   UNL d   1      21.379 -19.411   1.333  0.00  0.00     0.169 HD
BRANCH  26  29
ATOM     29  C   UNL d   1      19.344 -20.615   0.234  0.00  0.00     0.267 C 
BRANCH  29  30
ATOM     30  O   UNL d   1      18.077 -20.463  -0.410  0.00  0.00    -0.392 OA
ATOM     31  H   UNL d   1      18.257 -19.998  -1.255  0.00  0.00     0.210 HD
ENDBRANCH  29  30
ENDBRANCH  26  29
ENDBRANCH  23  25
ENDBRANCH  17  19
ENDBRANCH   1  17
TORSDOF 8
ENDMDL
MODEL 8
REMARK VINA RESULT:    -7.888      3.057      4.963
REMARK INTER + INTRA:         -12.016
REMARK INTER:                 -10.275
REMARK INTRA:                  -1.741
REMARK CONF_INDEPENDENT:        2.386
REMARK UNBOUND:                -1.741
REMARK  8 active torsions:
REMARK  status: ('A' for Active; 'I' for Inactive)
REMARK    1  A    between atoms: C_2  and  C_3 
REMARK    2  A    between atoms: C_6  and  C_7 
REMARK    3  A    between atoms: C_7  and  N_8 
REMARK    4  A    between atoms: N_8  and  C_9 
REMARK    5  A    between atoms: C_13  and  N_14 
REMARK       I    between atoms: N_14  and  C_15 
REMARK    6  A    between atoms: C_15  and  C_17 
REMARK    7  A    between atoms: C_17  and  O_18 
REMARK    8  A    between atoms: C_26  and  O_27 
ROOT
ATOM      1  C   UNL d   1      26.010 -15.180  -3.430  0.00  0.00     0.132 C 
ENDROOT
BRANCH   1   2
ATOM      2  C   UNL d   1      26.128 -13.668  -3.614  0.00  0.00    -0.026 A 
ATOM      3  C   UNL d   1      26.538 -12.688  -2.575  0.00  0.00     0.006 A 
ATOM      4  C   UNL d   1      26.837 -12.982  -1.242  0.00  0.00     0.024 C 
ATOM      5  C   UNL d   1      26.653 -11.343  -2.907  0.00  0.00     0.093 A 
ATOM      6  C   UNL d   1      27.371 -12.079  -0.321  0.00  0.00    -0.024 C 
ATOM      7  C   UNL d   1      27.420 -10.749  -0.685  0.00  0.00     0.074 C 
ATOM      8  C   UNL d   1      27.045 -10.366  -1.974  0.00  0.00     0.075 C 
ATOM      9  O   UNL d   1      26.351 -10.878  -4.201  0.00  0.00    -0.275 OA
ATOM     10  C   UNL d   1      25.941 -11.748  -5.195  0.00  0.00     0.288 A 
ATOM     11  C   UNL d   1      25.870 -13.175  -4.839  0.00  0.00     0.091 A 
ATOM     12  O   UNL d   1      25.650 -11.373  -6.319  0.00  0.00    -0.260 OA
BRANCH   6  13
ATOM     13  C   UNL d   1      27.889 -12.678   0.965  0.00  0.00     0.037 C 
ATOM     14  C   UNL d   1      27.064 -13.914   1.345  0.00  0.00     0.010 C 
ENDBRANCH   6  13
BRANCH   7  15
ATOM     15  O   UNL d   1      27.819  -9.836   0.243  0.00  0.00    -0.360 OA
ATOM     16  H   UNL d   1      28.296  -9.122  -0.210  0.00  0.00     0.217 HD
ENDBRANCH   7  15
ENDBRANCH   1   2
BRANCH   1  17
ATOM     17  N   UNL d   1      24.770 -15.525  -2.749  0.00  0.00    -0.289 NA
ATOM     18  H   UNL d   1      24.452 -14.634  -2.365  0.00  0.00     0.128 HD
BRANCH  17  19
ATOM     19  C   UNL d   1      24.714 -16.306  -1.601  0.00  0.00     0.010 A 
ATOM     20  C   UNL d   1      25.851 -16.454  -0.817  0.00  0.00     0.023 A 
ATOM     21  C   UNL d   1      25.877 -17.396   0.211  0.00  0.00     0.004 A 
ATOM     22  C   UNL d   1      24.750 -18.199   0.462  0.00  0.00     0.029 A 
ATOM     23  C   UNL d   1      23.640 -18.130  -0.388  0.00  0.00     0.036 A 
ATOM     24  C   UNL d   1      23.673 -17.197  -1.416  0.00  0.00     0.053 A 
BRANCH  23  25
ATOM     25  N   UNL d   1      22.517 -18.988  -0.237  0.00  0.00    -0.325 N 
ATOM     26  C   UNL d   1      21.230 -18.687  -0.688  0.00  0.00     0.245 C 
ATOM     27  O   UNL d   1      20.869 -17.658  -1.263  0.00  0.00    -0.271 OA
ATOM     28  H   UNL d   1      22.682 -19.872   0.231  0.00  0.00     0.169 HD
BRANCH  26  29
ATOM     29  C   UNL d   1      20.157 -19.725  -0.398  0.00  0.00     0.267 C 
BRANCH  29  30
ATOM     30  O   UNL d   1      19.153 -19.702  -1.416  0.00  0.00    -0.392 OA
ATOM     31  H   UNL d   1      19.010 -18.757  -1.634  0.00  0.00     0.210 HD
ENDBRANCH  29  30
ENDBRANCH  26  29
ENDBRANCH  23  25
ENDBRANCH  17  19
ENDBRANCH   1  17
TORSDOF 8
ENDMDL
