MODEL 1
REMARK VINA RESULT:    -9.501      0.000      0.000
REMARK INTER + INTRA:         -12.135
REMARK INTER:                 -11.291
REMARK INTRA:                  -0.844
REMARK CONF_INDEPENDENT:        1.790
REMARK UNBOUND:                -0.844
REMARK  6 active torsions:
REMARK  status: ('A' for Active; 'I' for Inactive)
REMARK    1  A    between atoms: C_2  and  N_15 
REMARK    2  A    between atoms: C_3  and  C_4 
REMARK       I    between atoms: C_4  and  N_6 
REMARK    3  A    between atoms: N_6  and  C_7 
REMARK    4  A    between atoms: N_15  and  N_16 
REMARK       I    between atoms: N_16  and  C_17 
REMARK    5  A    between atoms: C_17  and  C_19 
REMARK       I    between atoms: C_19  and  N_21 
REMARK    6  A    between atoms: N_21  and  C_22 
ROOT
ATOM      1  N   UNL d   1      26.656 -16.043  -1.004  0.00  0.00    -0.302 N 
ATOM      2  H   UNL d   1      26.858 -15.315  -0.308  0.00  0.00     0.186 HD
ENDROOT
BRANCH   1   3
ATOM      3  C   UNL d   1      25.726 -17.039  -0.634  0.00  0.00     0.027 C 
ATOM      4  C   UNL d   1      26.329 -18.148   0.242  0.00  0.00     0.070 C 
ATOM      5  C   UNL d   1      24.416 -17.046  -1.000  0.00  0.00     0.100 C 
BRANCH   5   6
ATOM      6  C   UNL d   1      23.406 -18.094  -0.617  0.00  0.00     0.247 C 
ATOM      7  O   UNL d   1      23.739 -19.253  -0.379  0.00  0.00    -0.268 OA
ATOM      8  N   UNL d   1      22.071 -17.721  -0.603  0.00  0.00    -0.324 N 
ATOM      9  H   UNL d   1      21.772 -16.862  -1.046  0.00  0.00     0.169 HD
BRANCH   8  10
ATOM     10  C   UNL d   1      21.079 -18.652  -0.174  0.00  0.00     0.036 A 
ATOM     11  C   UNL d   1      20.143 -19.149  -1.094  0.00  0.00     0.031 A 
ATOM     12  C   UNL d   1      19.169 -20.073  -0.718  0.00  0.00     0.028 A 
ATOM     13  C   UNL d   1      19.103 -20.507   0.601  0.00  0.00     0.055 A 
ATOM     14 CL   UNL d   1      17.908 -21.692   0.990  0.00  0.00    -0.083 Cl
ATOM     15  C   UNL d   1      20.008 -19.994   1.541  0.00  0.00     0.058 A 
ATOM     16 CL   UNL d   1      19.926 -20.446   3.211  0.00  0.00    -0.082 Cl
ATOM     17  C   UNL d   1      21.010 -19.085   1.152  0.00  0.00     0.055 A 
ENDBRANCH   8  10
ENDBRANCH   5   6
ENDBRANCH   1   3
BRANCH   1  18
ATOM     18  N   UNL d   1      27.348 -15.925  -2.231  0.00  0.00    -0.262 N 
ATOM     19  C   UNL d   1      26.719 -15.543  -3.425  0.00  0.00     0.328 C 
ATOM     20  O   UNL d   1      25.532 -15.252  -3.563  0.00  0.00    -0.261 OA
ATOM     21  H   UNL d   1      28.344 -16.127  -2.246  0.00  0.00     0.190 HD
BRANCH  19  22
ATOM     22  C   UNL d   1      27.695 -15.512  -4.652  0.00  0.00     0.315 C 
ATOM     23  O   UNL d   1      27.204 -15.250  -5.748  0.00  0.00    -0.262 OA
ATOM     24  N   UNL d   1      29.040 -15.847  -4.417  0.00  0.00    -0.319 N 
ATOM     25  H   UNL d   1      29.269 -16.241  -3.509  0.00  0.00     0.169 HD
BRANCH  24  26
ATOM     26  C   UNL d   1      30.034 -15.867  -5.443  0.00  0.00     0.036 A 
ATOM     27  C   UNL d   1      30.781 -14.724  -5.742  0.00  0.00     0.030 A 
ATOM     28  C   UNL d   1      31.755 -14.723  -6.754  0.00  0.00     0.011 A 
ATOM     29  C   UNL d   1      32.000 -15.865  -7.525  0.00  0.00    -0.040 A 
ATOM     30  C   UNL d   1      33.029 -15.816  -8.626  0.00  0.00     0.050 C 
ATOM     31  C   UNL d   1      31.256 -17.018  -7.225  0.00  0.00     0.042 A 
ATOM     32 CL   UNL d   1      31.456 -18.458  -8.169  0.00  0.00    -0.084 Cl
ATOM     33  C   UNL d   1      30.309 -17.033  -6.174  0.00  0.00     0.053 A 
ENDBRANCH  24  26
ENDBRANCH  19  22
ENDBRANCH   1  18
TORSDOF 6
ENDMDL
MODEL 2
REMARK VINA RESULT:    -8.730      8.494     11.514
REMARK INTER + INTRA:         -11.506
REMARK INTER:                 -10.520
REMARK INTRA:                  -0.987
REMARK CONF_INDEPENDENT:        1.790
REMARK UNBOUND:                -0.987
REMARK  6 active torsions:
REMARK  status: ('A' for Active; 'I' for Inactive)
REMARK    1  A    between atoms: C_2  and  N_15 
REMARK    2  A    between atoms: C_3  and  C_4 
REMARK       I    between atoms: C_4  and  N_6 
REMARK    3  A    between atoms: N_6  and  C_7 
REMARK    4  A    between atoms: N_15  and  N_16 
REMARK       I    between atoms: N_16  and  C_17 
REMARK    5  A    between atoms: C_17  and  C_19 
REMARK       I    between atoms: C_19  and  N_21 
REMARK    6  A    between atoms: N_21  and  C_22 
ROOT
ATOM      1  N   UNL d   1      32.876 -18.139   0.898  0.00  0.00    -0.302 N 
ATOM      2  H   UNL d   1      33.647 -17.905   0.260  0.00  0.00     0.186 HD
ENDROOT
BRANCH   1   3
ATOM      3  C   UNL d   1      33.229 -18.597   2.185  0.00  0.00     0.027 C 
ATOM      4  C   UNL d   1      34.349 -17.777   2.844  0.00  0.00     0.070 C 
ATOM      5  C   UNL d   1      32.652 -19.658   2.812  0.00  0.00     0.100 C 
BRANCH   5   6
ATOM      6  C   UNL d   1      33.009 -20.163   4.184  0.00  0.00     0.247 C 
ATOM      7  O   UNL d   1      32.147 -20.450   5.010  0.00  0.00    -0.268 OA
ATOM      8  N   UNL d   1      34.355 -20.235   4.508  0.00  0.00    -0.324 N 
ATOM      9  H   UNL d   1      35.047 -19.760   3.942  0.00  0.00     0.169 HD
BRANCH   8  10
ATOM     10  C   UNL d   1      34.754 -20.777   5.766  0.00  0.00     0.036 A 
ATOM     11  C   UNL d   1      35.470 -19.982   6.674  0.00  0.00     0.031 A 
ATOM     12  C   UNL d   1      35.863 -20.469   7.919  0.00  0.00     0.028 A 
ATOM     13  C   UNL d   1      35.558 -21.778   8.275  0.00  0.00     0.055 A 
ATOM     14 CL   UNL d   1      36.025 -22.303   9.853  0.00  0.00    -0.083 Cl
ATOM     15  C   UNL d   1      34.873 -22.597   7.366  0.00  0.00     0.058 A 
ATOM     16 CL   UNL d   1      34.530 -24.255   7.729  0.00  0.00    -0.082 Cl
ATOM     17  C   UNL d   1      34.451 -22.093   6.121  0.00  0.00     0.055 A 
ENDBRANCH   8  10
ENDBRANCH   5   6
ENDBRANCH   1   3
BRANCH   1  18
ATOM     18  N   UNL d   1      31.575 -17.958   0.374  0.00  0.00    -0.262 N 
ATOM     19  C   UNL d   1      31.338 -17.513  -0.935  0.00  0.00     0.328 C 
ATOM     20  O   UNL d   1      32.190 -17.248  -1.780  0.00  0.00    -0.261 OA
ATOM     21  H   UNL d   1      30.780 -18.158   0.974  0.00  0.00     0.190 HD
BRANCH  19  22
ATOM     22  C   UNL d   1      29.812 -17.367  -1.267  0.00  0.00     0.315 C 
ATOM     23  O   UNL d   1      29.520 -17.057  -2.420  0.00  0.00    -0.262 OA
ATOM     24  N   UNL d   1      28.901 -17.537  -0.211  0.00  0.00    -0.319 N 
ATOM     25  H   UNL d   1      29.283 -17.587   0.730  0.00  0.00     0.169 HD
BRANCH  24  26
ATOM     26  C   UNL d   1      27.485 -17.425  -0.370  0.00  0.00     0.036 A 
ATOM     27  C   UNL d   1      26.616 -18.295   0.294  0.00  0.00     0.030 A 
ATOM     28  C   UNL d   1      25.222 -18.204   0.141  0.00  0.00     0.011 A 
ATOM     29  C   UNL d   1      24.647 -17.252  -0.707  0.00  0.00    -0.040 A 
ATOM     30  C   UNL d   1      23.149 -17.207  -0.873  0.00  0.00     0.050 C 
ATOM     31  C   UNL d   1      25.516 -16.371  -1.373  0.00  0.00     0.042 A 
ATOM     32 CL   UNL d   1      24.890 -15.199  -2.486  0.00  0.00    -0.084 Cl
ATOM     33  C   UNL d   1      26.916 -16.431  -1.181  0.00  0.00     0.053 A 
ENDBRANCH  24  26
ENDBRANCH  19  22
ENDBRANCH   1  18
TORSDOF 6
ENDMDL
MODEL 3
REMARK VINA RESULT:    -8.660      5.709      8.235
REMARK INTER + INTRA:         -11.841
REMARK INTER:                 -10.450
REMARK INTRA:                  -1.391
REMARK CONF_INDEPENDENT:        1.790
REMARK UNBOUND:                -1.391
REMARK  6 active torsions:
REMARK  status: ('A' for Active; 'I' for Inactive)
REMARK    1  A    between atoms: C_2  and  N_15 
REMARK    2  A    between atoms: C_3  and  C_4 
REMARK       I    between atoms: C_4  and  N_6 
REMARK    3  A    between atoms: N_6  and  C_7 
REMARK    4  A    between atoms: N_15  and  N_16 
REMARK       I    between atoms: N_16  and  C_17 
REMARK    5  A    between atoms: C_17  and  C_19 
REMARK       I    between atoms: C_19  and  N_21 
REMARK    6  A    between atoms: N_21  and  C_22 
ROOT
ATOM      1  N   UNL d   1      27.399 -16.393  -0.051  0.00  0.00    -0.302 N 
ATOM      2  H   UNL d   1      27.796 -16.254  -0.989  0.00  0.00     0.186 HD
ENDROOT
BRANCH   1   3
ATOM      3  C   UNL d   1      26.332 -17.309   0.061  0.00  0.00     0.027 C 
ATOM      4  C   UNL d   1      26.688 -18.575   0.856  0.00  0.00     0.070 C 
ATOM      5  C   UNL d   1      25.094 -17.121  -0.472  0.00  0.00     0.100 C 
BRANCH   5   6
ATOM      6  C   UNL d   1      23.940 -18.081  -0.364  0.00  0.00     0.247 C 
ATOM      7  O   UNL d   1      24.112 -19.297  -0.364  0.00  0.00    -0.268 OA
ATOM      8  N   UNL d   1      22.663 -17.544  -0.328  0.00  0.00    -0.324 N 
ATOM      9  H   UNL d   1      22.502 -16.580  -0.590  0.00  0.00     0.169 HD
BRANCH   8  10
ATOM     10  C   UNL d   1      21.537 -18.401  -0.149  0.00  0.00     0.036 A 
ATOM     11  C   UNL d   1      20.714 -18.711  -1.243  0.00  0.00     0.031 A 
ATOM     12  C   UNL d   1      19.616 -19.559  -1.114  0.00  0.00     0.028 A 
ATOM     13  C   UNL d   1      19.308 -20.104   0.128  0.00  0.00     0.055 A 
ATOM     14 CL   UNL d   1      17.966 -21.189   0.210  0.00  0.00    -0.083 Cl
ATOM     15  C   UNL d   1      20.099 -19.778   1.239  0.00  0.00     0.058 A 
ATOM     16 CL   UNL d   1      19.719 -20.371   2.821  0.00  0.00    -0.082 Cl
ATOM     17  C   UNL d   1      21.226 -18.945   1.099  0.00  0.00     0.055 A 
ENDBRANCH   8  10
ENDBRANCH   5   6
ENDBRANCH   1   3
BRANCH   1  18
ATOM     18  N   UNL d   1      27.998 -15.637   0.984  0.00  0.00    -0.262 N 
ATOM     19  C   UNL d   1      27.414 -14.476   1.511  0.00  0.00     0.328 C 
ATOM     20  O   UNL d   1      26.338 -13.984   1.177  0.00  0.00    -0.261 OA
ATOM     21  H   UNL d   1      28.889 -15.949   1.357  0.00  0.00     0.190 HD
BRANCH  19  22
ATOM     22  C   UNL d   1      28.285 -13.803   2.629  0.00  0.00     0.315 C 
ATOM     23  O   UNL d   1      29.505 -13.919   2.530  0.00  0.00    -0.262 OA
ATOM     24  N   UNL d   1      27.606 -13.177   3.689  0.00  0.00    -0.319 N 
ATOM     25  H   UNL d   1      26.604 -13.331   3.754  0.00  0.00     0.169 HD
BRANCH  24  26
ATOM     26  C   UNL d   1      28.274 -12.533   4.776  0.00  0.00     0.036 A 
ATOM     27  C   UNL d   1      29.144 -11.463   4.552  0.00  0.00     0.030 A 
ATOM     28  C   UNL d   1      29.815 -10.825   5.608  0.00  0.00     0.011 A 
ATOM     29  C   UNL d   1      29.659 -11.255   6.931  0.00  0.00    -0.040 A 
ATOM     30  C   UNL d   1      30.423 -10.568   8.035  0.00  0.00     0.050 C 
ATOM     31  C   UNL d   1      28.781 -12.326   7.162  0.00  0.00     0.042 A 
ATOM     32 CL   UNL d   1      28.574 -12.958   8.763  0.00  0.00    -0.084 Cl
ATOM     33  C   UNL d   1      28.068 -12.937   6.104  0.00  0.00     0.053 A 
ENDBRANCH  24  26
ENDBRANCH  19  22
ENDBRANCH   1  18
TORSDOF 6
ENDMDL
MODEL 4
REMARK VINA RESULT:    -8.451      5.499     10.826
REMARK INTER + INTRA:         -11.819
REMARK INTER:                 -10.241
REMARK INTRA:                  -1.578
REMARK CONF_INDEPENDENT:        1.790
REMARK UNBOUND:                -1.578
REMARK  6 active torsions:
REMARK  status: ('A' for Active; 'I' for Inactive)
REMARK    1  A    between atoms: C_2  and  N_15 
REMARK    2  A    between atoms: C_3  and  C_4 
REMARK       I    between atoms: C_4  and  N_6 
REMARK    3  A    between atoms: N_6  and  C_7 
REMARK    4  A    between atoms: N_15  and  N_16 
REMARK       I    between atoms: N_16  and  C_17 
REMARK    5  A    between atoms: C_17  and  C_19 
REMARK       I    between atoms: C_19  and  N_21 
REMARK    6  A    between atoms: N_21  and  C_22 
ROOT
ATOM      1  N   UNL d   1      27.451 -16.906  -0.859  0.00  0.00    -0.302 N 
ATOM      2  H   UNL d   1      28.052 -17.107  -1.667  0.00  0.00     0.186 HD
ENDROOT
BRANCH   1   3
ATOM      3  C   UNL d   1      27.893 -15.905   0.033  0.00  0.00     0.027 C 
ATOM      4  C   UNL d   1      28.788 -14.845  -0.628  0.00  0.00     0.070 C 
ATOM      5  C   UNL d   1      27.576 -15.854   1.355  0.00  0.00     0.100 C 
BRANCH   5   6
ATOM      6  C   UNL d   1      28.033 -14.797   2.323  0.00  0.00     0.247 C 
ATOM      7  O   UNL d   1      28.479 -13.719   1.938  0.00  0.00    -0.268 OA
ATOM      8  N   UNL d   1      27.994 -15.107   3.674  0.00  0.00    -0.324 N 
ATOM      9  H   UNL d   1      27.883 -16.066   3.979  0.00  0.00     0.169 HD
BRANCH   8  10
ATOM     10  C   UNL d   1      28.343 -14.117   4.640  0.00  0.00     0.036 A 
ATOM     11  C   UNL d   1      27.879 -12.802   4.492  0.00  0.00     0.031 A 
ATOM     12  C   UNL d   1      28.183 -11.810   5.423  0.00  0.00     0.028 A 
ATOM     13  C   UNL d   1      28.980 -12.116   6.520  0.00  0.00     0.055 A 
ATOM     14 CL   UNL d   1      29.276 -10.857   7.665  0.00  0.00    -0.083 Cl
ATOM     15  C   UNL d   1      29.481 -13.417   6.666  0.00  0.00     0.058 A 
ATOM     16 CL   UNL d   1      30.535 -13.836   7.975  0.00  0.00    -0.082 Cl
ATOM     17  C   UNL d   1      29.147 -14.424   5.741  0.00  0.00     0.055 A 
ENDBRANCH   8  10
ENDBRANCH   5   6
ENDBRANCH   1   3
BRANCH   1  18
ATOM     18  N   UNL d   1      26.265 -17.673  -0.773  0.00  0.00    -0.262 N 
ATOM     19  C   UNL d   1      25.002 -17.098  -0.568  0.00  0.00     0.328 C 
ATOM     20  O   UNL d   1      24.756 -15.899  -0.457  0.00  0.00    -0.261 OA
ATOM     21  H   UNL d   1      26.335 -18.682  -0.863  0.00  0.00     0.190 HD
BRANCH  19  22
ATOM     22  C   UNL d   1      23.851 -18.160  -0.483  0.00  0.00     0.315 C 
ATOM     23  O   UNL d   1      24.151 -19.328  -0.724  0.00  0.00    -0.262 OA
ATOM     24  N   UNL d   1      22.557 -17.690  -0.201  0.00  0.00    -0.319 N 
ATOM     25  H   UNL d   1      22.412 -16.684  -0.226  0.00  0.00     0.169 HD
BRANCH  24  26
ATOM     26  C   UNL d   1      21.416 -18.545  -0.102  0.00  0.00     0.036 A 
ATOM     27  C   UNL d   1      20.661 -18.869  -1.232  0.00  0.00     0.030 A 
ATOM     28  C   UNL d   1      19.531 -19.700  -1.152  0.00  0.00     0.011 A 
ATOM     29  C   UNL d   1      19.099 -20.217   0.075  0.00  0.00    -0.040 A 
ATOM     30  C   UNL d   1      17.861 -21.077   0.128  0.00  0.00     0.050 C 
ATOM     31  C   UNL d   1      19.857 -19.898   1.214  0.00  0.00     0.042 A 
ATOM     32 CL   UNL d   1      19.358 -20.450   2.779  0.00  0.00    -0.084 Cl
ATOM     33  C   UNL d   1      21.023 -19.101   1.125  0.00  0.00     0.053 A 
ENDBRANCH  24  26
ENDBRANCH  19  22
ENDBRANCH   1  18
TORSDOF 6
ENDMDL
MODEL 5
REMARK VINA RESULT:    -8.342      2.456      2.725
REMARK INTER + INTRA:         -11.871
REMARK INTER:                 -10.132
REMARK INTRA:                  -1.739
REMARK CONF_INDEPENDENT:        1.790
REMARK UNBOUND:                -1.739
REMARK  6 active torsions:
REMARK  status: ('A' for Active; 'I' for Inactive)
REMARK    1  A    between atoms: C_2  and  N_15 
REMARK    2  A    between atoms: C_3  and  C_4 
REMARK       I    between atoms: C_4  and  N_6 
REMARK    3  A    between atoms: N_6  and  C_7 
REMARK    4  A    between atoms: N_15  and  N_16 
REMARK       I    between atoms: N_16  and  C_17 
REMARK    5  A    between atoms: C_17  and  C_19 
REMARK       I    between atoms: C_19  and  N_21 
REMARK    6  A    between atoms: N_21  and  C_22 
ROOT
ATOM      1  N   UNL d   1      26.771 -16.343  -0.929  0.00  0.00    -0.302 N 
ATOM      2  H   UNL d   1      27.272 -15.852  -0.178  0.00  0.00     0.186 HD
ENDROOT
BRANCH   1   3
ATOM      3  C   UNL d   1      25.790 -17.278  -0.537  0.00  0.00     0.027 C 
ATOM      4  C   UNL d   1      26.278 -18.272   0.528  0.00  0.00     0.070 C 
ATOM      5  C   UNL d   1      24.524 -17.323  -1.034  0.00  0.00     0.100 C 
BRANCH   5   6
ATOM      6  C   UNL d   1      23.461 -18.309  -0.631  0.00  0.00     0.247 C 
ATOM      7  O   UNL d   1      23.732 -19.475  -0.359  0.00  0.00    -0.268 OA
ATOM      8  N   UNL d   1      22.146 -17.869  -0.637  0.00  0.00    -0.324 N 
ATOM      9  H   UNL d   1      21.893 -17.008  -1.105  0.00  0.00     0.169 HD
BRANCH   8  10
ATOM     10  C   UNL d   1      21.105 -18.736  -0.191  0.00  0.00     0.036 A 
ATOM     11  C   UNL d   1      20.127 -19.177  -1.095  0.00  0.00     0.031 A 
ATOM     12  C   UNL d   1      19.105 -20.039  -0.702  0.00  0.00     0.028 A 
ATOM     13  C   UNL d   1      19.032 -20.466   0.619  0.00  0.00     0.055 A 
ATOM     14 CL   UNL d   1      17.773 -21.575   1.028  0.00  0.00    -0.083 Cl
ATOM     15  C   UNL d   1      19.980 -20.008   1.544  0.00  0.00     0.058 A 
ATOM     16 CL   UNL d   1      19.896 -20.450   3.216  0.00  0.00    -0.082 Cl
ATOM     17  C   UNL d   1      21.030 -19.161   1.138  0.00  0.00     0.055 A 
ENDBRANCH   8  10
ENDBRANCH   5   6
ENDBRANCH   1   3
BRANCH   1  18
ATOM     18  N   UNL d   1      27.151 -15.993  -2.246  0.00  0.00    -0.262 N 
ATOM     19  C   UNL d   1      27.428 -14.673  -2.631  0.00  0.00     0.328 C 
ATOM     20  O   UNL d   1      27.400 -13.680  -1.906  0.00  0.00    -0.261 OA
ATOM     21  H   UNL d   1      27.223 -16.730  -2.940  0.00  0.00     0.190 HD
BRANCH  19  22
ATOM     22  C   UNL d   1      27.799 -14.542  -4.149  0.00  0.00     0.315 C 
ATOM     23  O   UNL d   1      27.699 -15.555  -4.837  0.00  0.00    -0.262 OA
ATOM     24  N   UNL d   1      28.278 -13.297  -4.593  0.00  0.00    -0.319 N 
ATOM     25  H   UNL d   1      28.505 -12.606  -3.883  0.00  0.00     0.169 HD
BRANCH  24  26
ATOM     26  C   UNL d   1      28.660 -13.039  -5.946  0.00  0.00     0.036 A 
ATOM     27  C   UNL d   1      29.943 -13.354  -6.402  0.00  0.00     0.030 A 
ATOM     28  C   UNL d   1      30.338 -13.099  -7.726  0.00  0.00     0.011 A 
ATOM     29  C   UNL d   1      29.466 -12.493  -8.638  0.00  0.00    -0.040 A 
ATOM     30  C   UNL d   1      29.937 -12.203 -10.041  0.00  0.00     0.050 C 
ATOM     31  C   UNL d   1      28.174 -12.179  -8.186  0.00  0.00     0.042 A 
ATOM     32 CL   UNL d   1      27.052 -11.375  -9.233  0.00  0.00    -0.084 Cl
ATOM     33  C   UNL d   1      27.761 -12.480  -6.866  0.00  0.00     0.053 A 
ENDBRANCH  24  26
ENDBRANCH  19  22
ENDBRANCH   1  18
TORSDOF 6
ENDMDL
MODEL 6
REMARK VINA RESULT:    -8.291      4.496      5.306
REMARK INTER + INTRA:         -11.837
REMARK INTER:                 -10.081
REMARK INTRA:                  -1.756
REMARK CONF_INDEPENDENT:        1.790
REMARK UNBOUND:                -1.756
REMARK  6 active torsions:
REMARK  status: ('A' for Active; 'I' for Inactive)
REMARK    1  A    between atoms: C_2  and  N_15 
REMARK    2  A    between atoms: C_3  and  C_4 
REMARK       I    between atoms: C_4  and  N_6 
REMARK    3  A    between atoms: N_6  and  C_7 
REMARK    4  A    between atoms: N_15  and  N_16 
REMARK       I    between atoms: N_16  and  C_17 
REMARK    5  A    between atoms: C_17  and  C_19 
REMARK       I    between atoms: C_19  and  N_21 
REMARK    6  A    between atoms: N_21  and  C_22 
ROOT
ATOM      1  N   UNL d   1      26.597 -15.531  -1.888  0.00  0.00    -0.302 N 
ATOM      2  H   UNL d   1      27.457 -16.085  -1.985  0.00  0.00     0.186 HD
ENDROOT
BRANCH   1   3
ATOM      3  C   UNL d   1      25.492 -16.166  -1.283  0.00  0.00     0.027 C 
ATOM      4  C   UNL d   1      25.882 -17.137  -0.157  0.00  0.00     0.070 C 
ATOM      5  C   UNL d   1      24.194 -15.961  -1.637  0.00  0.00     0.100 C 
BRANCH   5   6
ATOM      6  C   UNL d   1      23.001 -16.625  -1.005  0.00  0.00     0.247 C 
ATOM      7  O   UNL d   1      22.212 -15.999  -0.301  0.00  0.00    -0.268 OA
ATOM      8  N   UNL d   1      22.855 -17.991  -1.193  0.00  0.00    -0.324 N 
ATOM      9  H   UNL d   1      23.625 -18.548  -1.539  0.00  0.00     0.169 HD
BRANCH   8  10
ATOM     10  C   UNL d   1      21.703 -18.658  -0.681  0.00  0.00     0.036 A 
ATOM     11  C   UNL d   1      20.668 -19.033  -1.551  0.00  0.00     0.031 A 
ATOM     12  C   UNL d   1      19.534 -19.702  -1.093  0.00  0.00     0.028 A 
ATOM     13  C   UNL d   1      19.407 -19.996   0.260  0.00  0.00     0.055 A 
ATOM     14 CL   UNL d   1      18.004 -20.874   0.755  0.00  0.00    -0.083 Cl
ATOM     15  C   UNL d   1      20.415 -19.598   1.150  0.00  0.00     0.058 A 
ATOM     16 CL   UNL d   1      20.275 -19.874   2.853  0.00  0.00    -0.082 Cl
ATOM     17  C   UNL d   1      21.573 -18.949   0.679  0.00  0.00     0.055 A 
ENDBRANCH   8  10
ENDBRANCH   5   6
ENDBRANCH   1   3
BRANCH   1  18
ATOM     18  N   UNL d   1      26.666 -14.207  -2.382  0.00  0.00    -0.262 N 
ATOM     19  C   UNL d   1      25.887 -13.756  -3.458  0.00  0.00     0.328 C 
ATOM     20  O   UNL d   1      25.057 -14.414  -4.083  0.00  0.00    -0.261 OA
ATOM     21  H   UNL d   1      27.309 -13.558  -1.939  0.00  0.00     0.190 HD
BRANCH  19  22
ATOM     22  C   UNL d   1      26.165 -12.259  -3.834  0.00  0.00     0.315 C 
ATOM     23  O   UNL d   1      26.877 -11.615  -3.065  0.00  0.00    -0.262 OA
ATOM     24  N   UNL d   1      25.531 -11.751  -4.980  0.00  0.00    -0.319 N 
ATOM     25  H   UNL d   1      24.811 -12.327  -5.407  0.00  0.00     0.169 HD
BRANCH  24  26
ATOM     26  C   UNL d   1      25.689 -10.405  -5.433  0.00  0.00     0.036 A 
ATOM     27  C   UNL d   1      25.108  -9.341  -4.739  0.00  0.00     0.030 A 
ATOM     28  C   UNL d   1      25.245  -8.013  -5.176  0.00  0.00     0.011 A 
ATOM     29  C   UNL d   1      25.952  -7.703  -6.344  0.00  0.00    -0.040 A 
ATOM     30  C   UNL d   1      26.049  -6.269  -6.800  0.00  0.00     0.050 C 
ATOM     31  C   UNL d   1      26.543  -8.769  -7.042  0.00  0.00     0.042 A 
ATOM     32 CL   UNL d   1      27.387  -8.480  -8.528  0.00  0.00    -0.084 Cl
ATOM     33  C   UNL d   1      26.445 -10.101  -6.576  0.00  0.00     0.053 A 
ENDBRANCH  24  26
ENDBRANCH  19  22
ENDBRANCH   1  18
TORSDOF 6
ENDMDL
MODEL 7
REMARK VINA RESULT:    -8.256      1.666      2.018
REMARK INTER + INTRA:         -10.998
REMARK INTER:                 -10.046
REMARK INTRA:                  -0.952
REMARK CONF_INDEPENDENT:        1.790
REMARK UNBOUND:                -0.952
REMARK  6 active torsions:
REMARK  status: ('A' for Active; 'I' for Inactive)
REMARK    1  A    between atoms: C_2  and  N_15 
REMARK    2  A    between atoms: C_3  and  C_4 
REMARK       I    between atoms: C_4  and  N_6 
REMARK    3  A    between atoms: N_6  and  C_7 
REMARK    4  A    between atoms: N_15  and  N_16 
REMARK       I    between atoms: N_16  and  C_17 
REMARK    5  A    between atoms: C_17  and  C_19 
REMARK       I    between atoms: C_19  and  N_21 
REMARK    6  A    between atoms: N_21  and  C_22 
ROOT
ATOM      1  N   UNL d   1      26.752 -16.355  -1.010  0.00  0.00    -0.302 N 
ATOM      2  H   UNL d   1      26.921 -15.564  -0.376  0.00  0.00     0.186 HD
ENDROOT
BRANCH   1   3
ATOM      3  C   UNL d   1      25.774 -17.292  -0.615  0.00  0.00     0.027 C 
ATOM      4  C   UNL d   1      26.280 -18.311   0.418  0.00  0.00     0.070 C 
ATOM      5  C   UNL d   1      24.496 -17.319  -1.084  0.00  0.00     0.100 C 
BRANCH   5   6
ATOM      6  C   UNL d   1      23.436 -18.306  -0.676  0.00  0.00     0.247 C 
ATOM      7  O   UNL d   1      23.706 -19.481  -0.438  0.00  0.00    -0.268 OA
ATOM      8  N   UNL d   1      22.125 -17.857  -0.639  0.00  0.00    -0.324 N 
ATOM      9  H   UNL d   1      21.868 -16.984  -1.081  0.00  0.00     0.169 HD
BRANCH   8  10
ATOM     10  C   UNL d   1      21.090 -18.727  -0.187  0.00  0.00     0.036 A 
ATOM     11  C   UNL d   1      20.106 -19.168  -1.085  0.00  0.00     0.031 A 
ATOM     12  C   UNL d   1      19.088 -20.033  -0.686  0.00  0.00     0.028 A 
ATOM     13  C   UNL d   1      19.025 -20.462   0.635  0.00  0.00     0.055 A 
ATOM     14 CL   UNL d   1      17.771 -21.575   1.052  0.00  0.00    -0.083 Cl
ATOM     15  C   UNL d   1      19.980 -20.004   1.554  0.00  0.00     0.058 A 
ATOM     16 CL   UNL d   1      19.909 -20.450   3.225  0.00  0.00    -0.082 Cl
ATOM     17  C   UNL d   1      21.025 -19.155   1.142  0.00  0.00     0.055 A 
ENDBRANCH   8  10
ENDBRANCH   5   6
ENDBRANCH   1   3
BRANCH   1  18
ATOM     18  N   UNL d   1      27.535 -16.371  -2.188  0.00  0.00    -0.262 N 
ATOM     19  C   UNL d   1      28.912 -16.639  -2.181  0.00  0.00     0.328 C 
ATOM     20  O   UNL d   1      29.598 -16.905  -1.196  0.00  0.00    -0.261 OA
ATOM     21  H   UNL d   1      27.079 -16.178  -3.074  0.00  0.00     0.190 HD
BRANCH  19  22
ATOM     22  C   UNL d   1      29.558 -16.571  -3.608  0.00  0.00     0.315 C 
ATOM     23  O   UNL d   1      29.526 -15.484  -4.183  0.00  0.00    -0.262 OA
ATOM     24  N   UNL d   1      30.065 -17.766  -4.147  0.00  0.00    -0.319 N 
ATOM     25  H   UNL d   1      29.844 -18.628  -3.656  0.00  0.00     0.169 HD
BRANCH  24  26
ATOM     26  C   UNL d   1      30.672 -17.849  -5.438  0.00  0.00     0.036 A 
ATOM     27  C   UNL d   1      30.862 -19.084  -6.064  0.00  0.00     0.030 A 
ATOM     28  C   UNL d   1      31.466 -19.185  -7.328  0.00  0.00     0.011 A 
ATOM     29  C   UNL d   1      31.928 -18.050  -8.003  0.00  0.00    -0.040 A 
ATOM     30  C   UNL d   1      32.603 -18.200  -9.343  0.00  0.00     0.050 C 
ATOM     31  C   UNL d   1      31.734 -16.805  -7.381  0.00  0.00     0.042 A 
ATOM     32 CL   UNL d   1      32.328 -15.355  -8.121  0.00  0.00    -0.084 Cl
ATOM     33  C   UNL d   1      31.082 -16.700  -6.129  0.00  0.00     0.053 A 
ENDBRANCH  24  26
ENDBRANCH  19  22
ENDBRANCH   1  18
TORSDOF 6
ENDMDL
MODEL 8
REMARK VINA RESULT:    -8.249      3.185      3.680
REMARK INTER + INTRA:         -11.755
REMARK INTER:                 -10.039
REMARK INTRA:                  -1.716
REMARK CONF_INDEPENDENT:        1.790
REMARK UNBOUND:                -1.716
REMARK  6 active torsions:
REMARK  status: ('A' for Active; 'I' for Inactive)
REMARK    1  A    between atoms: C_2  and  N_15 
REMARK    2  A    between atoms: C_3  and  C_4 
REMARK       I    between atoms: C_4  and  N_6 
REMARK    3  A    between atoms: N_6  and  C_7 
REMARK    4  A    between atoms: N_15  and  N_16 
REMARK       I    between atoms: N_16  and  C_17 
REMARK    5  A    between atoms: C_17  and  C_19 
REMARK       I    between atoms: C_19  and  N_21 
REMARK    6  A    between atoms: N_21  and  C_22 
ROOT
ATOM      1  N   UNL d   1      26.514 -16.395  -1.551  0.00  0.00    -0.302 N 
ATOM      2  H   UNL d   1      27.355 -16.240  -0.982  0.00  0.00     0.186 HD
ENDROOT
BRANCH   1   3
ATOM      3  C   UNL d   1      25.567 -17.315  -1.054  0.00  0.00     0.027 C 
ATOM      4  C   UNL d   1      26.105 -18.199   0.082  0.00  0.00     0.070 C 
ATOM      5  C   UNL d   1      24.291 -17.434  -1.513  0.00  0.00     0.100 C 
BRANCH   5   6
ATOM      6  C   UNL d   1      23.263 -18.404  -0.997  0.00  0.00     0.247 C 
ATOM      7  O   UNL d   1      23.543 -19.578  -0.767  0.00  0.00    -0.268 OA
ATOM      8  N   UNL d   1      21.965 -17.942  -0.849  0.00  0.00    -0.324 N 
ATOM      9  H   UNL d   1      21.676 -17.072  -1.279  0.00  0.00     0.169 HD
BRANCH   8  10
ATOM     10  C   UNL d   1      20.966 -18.795  -0.293  0.00  0.00     0.036 A 
ATOM     11  C   UNL d   1      19.906 -19.246  -1.095  0.00  0.00     0.031 A 
ATOM     12  C   UNL d   1      18.921 -20.094  -0.593  0.00  0.00     0.028 A 
ATOM     13  C   UNL d   1      18.970 -20.498   0.736  0.00  0.00     0.055 A 
ATOM     14 CL   UNL d   1      17.750 -21.592   1.281  0.00  0.00    -0.083 Cl
ATOM     15  C   UNL d   1      20.002 -20.030   1.561  0.00  0.00     0.058 A 
ATOM     16 CL   UNL d   1      20.072 -20.443   3.241  0.00  0.00    -0.082 Cl
ATOM     17  C   UNL d   1      21.014 -19.197   1.044  0.00  0.00     0.055 A 
ENDBRANCH   8  10
ENDBRANCH   5   6
ENDBRANCH   1   3
BRANCH   1  18
ATOM     18  N   UNL d   1      26.444 -15.650  -2.752  0.00  0.00    -0.262 N 
ATOM     19  C   UNL d   1      26.874 -14.319  -2.846  0.00  0.00     0.328 C 
ATOM     20  O   UNL d   1      27.369 -13.647  -1.944  0.00  0.00    -0.261 OA
ATOM     21  H   UNL d   1      26.063 -16.101  -3.579  0.00  0.00     0.190 HD
BRANCH  19  22
ATOM     22  C   UNL d   1      26.666 -13.706  -4.275  0.00  0.00     0.315 C 
ATOM     23  O   UNL d   1      25.964 -14.342  -5.058  0.00  0.00    -0.262 OA
ATOM     24  N   UNL d   1      27.347 -12.512  -4.572  0.00  0.00    -0.319 N 
ATOM     25  H   UNL d   1      28.052 -12.202  -3.909  0.00  0.00     0.169 HD
BRANCH  24  26
ATOM     26  C   UNL d   1      27.254 -11.849  -5.835  0.00  0.00     0.036 A 
ATOM     27  C   UNL d   1      26.385 -10.770  -6.018  0.00  0.00     0.030 A 
ATOM     28  C   UNL d   1      26.274 -10.114  -7.255  0.00  0.00     0.011 A 
ATOM     29  C   UNL d   1      27.014 -10.534  -8.366  0.00  0.00    -0.040 A 
ATOM     30  C   UNL d   1      26.843  -9.827  -9.687  0.00  0.00     0.050 C 
ATOM     31  C   UNL d   1      27.893 -11.615  -8.186  0.00  0.00     0.042 A 
ATOM     32 CL   UNL d   1      28.804 -12.234  -9.525  0.00  0.00    -0.084 Cl
ATOM     33  C   UNL d   1      28.040 -12.244  -6.928  0.00  0.00     0.053 A 
ENDBRANCH  24  26
ENDBRANCH  19  22
ENDBRANCH   1  18
TORSDOF 6
ENDMDL
MODEL 9
REMARK VINA RESULT:    -7.793      4.409      5.061
REMARK INTER + INTRA:         -11.226
REMARK INTER:                  -9.583
REMARK INTRA:                  -1.644
REMARK CONF_INDEPENDENT:        1.790
REMARK UNBOUND:                -1.644
REMARK  6 active torsions:
REMARK  status: ('A' for Active; 'I' for Inactive)
REMARK    1  A    between atoms: C_2  and  N_15 
REMARK    2  A    between atoms: C_3  and  C_4 
REMARK       I    between atoms: C_4  and  N_6 
REMARK    3  A    between atoms: N_6  and  C_7 
REMARK    4  A    between atoms: N_15  and  N_16 
REMARK       I    between atoms: N_16  and  C_17 
REMARK    5  A    between atoms: C_17  and  C_19 
REMARK       I    between atoms: C_19  and  N_21 
REMARK    6  A    between atoms: N_21  and  C_22 
ROOT
ATOM      1  N   UNL d   1      26.340 -16.298  -1.373  0.00  0.00    -0.302 N 
ATOM      2  H   UNL d   1      27.251 -16.469  -0.931  0.00  0.00     0.186 HD
ENDROOT
BRANCH   1   3
ATOM      3  C   UNL d   1      25.286 -17.170  -1.022  0.00  0.00     0.027 C 
ATOM      4  C   UNL d   1      25.521 -17.918   0.299  0.00  0.00     0.070 C 
ATOM      5  C   UNL d   1      24.158 -17.354  -1.761  0.00  0.00     0.100 C 
BRANCH   5   6
ATOM      6  C   UNL d   1      23.022 -18.275  -1.407  0.00  0.00     0.247 C 
ATOM      7  O   UNL d   1      22.825 -19.321  -2.019  0.00  0.00    -0.268 OA
ATOM      8  N   UNL d   1      22.161 -17.869  -0.399  0.00  0.00    -0.324 N 
ATOM      9  H   UNL d   1      22.160 -16.909  -0.079  0.00  0.00     0.169 HD
BRANCH   8  10
ATOM     10  C   UNL d   1      21.113 -18.736   0.030  0.00  0.00     0.036 A 
ATOM     11  C   UNL d   1      20.149 -19.175  -0.890  0.00  0.00     0.031 A 
ATOM     12  C   UNL d   1      19.119 -20.036  -0.514  0.00  0.00     0.028 A 
ATOM     13  C   UNL d   1      19.025 -20.463   0.806  0.00  0.00     0.055 A 
ATOM     14 CL   UNL d   1      17.758 -21.572   1.195  0.00  0.00    -0.083 Cl
ATOM     15  C   UNL d   1      19.959 -20.007   1.747  0.00  0.00     0.058 A 
ATOM     16 CL   UNL d   1      19.848 -20.450   3.416  0.00  0.00    -0.082 Cl
ATOM     17  C   UNL d   1      21.016 -19.162   1.357  0.00  0.00     0.055 A 
ENDBRANCH   8  10
ENDBRANCH   5   6
ENDBRANCH   1   3
BRANCH   1  18
ATOM     18  N   UNL d   1      26.290 -15.204  -2.269  0.00  0.00    -0.262 N 
ATOM     19  C   UNL d   1      26.402 -13.871  -1.846  0.00  0.00     0.328 C 
ATOM     20  O   UNL d   1      26.571 -13.484  -0.692  0.00  0.00    -0.261 OA
ATOM     21  H   UNL d   1      26.167 -15.395  -3.258  0.00  0.00     0.190 HD
BRANCH  19  22
ATOM     22  C   UNL d   1      26.289 -12.842  -3.024  0.00  0.00     0.315 C 
ATOM     23  O   UNL d   1      25.834 -13.260  -4.087  0.00  0.00    -0.262 OA
ATOM     24  N   UNL d   1      26.774 -11.543  -2.797  0.00  0.00    -0.319 N 
ATOM     25  H   UNL d   1      27.310 -11.389  -1.947  0.00  0.00     0.169 HD
BRANCH  24  26
ATOM     26  C   UNL d   1      26.741 -10.509  -3.783  0.00  0.00     0.036 A 
ATOM     27  C   UNL d   1      27.922  -9.941  -4.268  0.00  0.00     0.030 A 
ATOM     28  C   UNL d   1      27.908  -8.917  -5.230  0.00  0.00     0.011 A 
ATOM     29  C   UNL d   1      26.703  -8.405  -5.725  0.00  0.00    -0.040 A 
ATOM     30  C   UNL d   1      26.726  -7.282  -6.731  0.00  0.00     0.050 C 
ATOM     31  C   UNL d   1      25.513  -8.977  -5.245  0.00  0.00     0.042 A 
ATOM     32 CL   UNL d   1      23.977  -8.364  -5.763  0.00  0.00    -0.084 Cl
ATOM     33  C   UNL d   1      25.529 -10.041  -4.312  0.00  0.00     0.053 A 
ENDBRANCH  24  26
ENDBRANCH  19  22
ENDBRANCH   1  18
TORSDOF 6
ENDMDL
