MODEL 1
REMARK VINA RESULT:   -28.386      0.000      0.000
REMARK INTER + INTRA:         -29.899
REMARK INTER:                 -29.877
REMARK INTRA:                  -0.022
REMARK CONF_INDEPENDENT:        1.492
REMARK UNBOUND:                -0.022
REMARK  5 active torsions:
REMARK  status: ('A' for Active; 'I' for Inactive)
REMARK    1  A    between atoms: C_8  and  C_9 
REMARK    2  A    between atoms: C_9  and  C_10 
REMARK    3  A    between atoms: C_10  and  N_11 
REMARK    4  A    between atoms: C_15  and  C_16 
REMARK    5  A    between atoms: C_25  and  N_26 
ROOT
ATOM      1  N   UNL d   1      24.842 -16.586  -1.034  0.00  0.00    -0.359 N 
ATOM      2  C   UNL d   1      24.100 -15.534  -1.713  0.00  0.00     0.208 C 
ATOM      3  C   UNL d   1      22.654 -15.953  -1.285  0.00  0.00     0.179 C 
ATOM      4  O   UNL d   1      21.743 -15.177  -1.254  0.00  0.00    -0.291 OA
ATOM      5  C   UNL d   1      22.637 -17.460  -0.837  0.00  0.00     0.061 C 
ATOM      6  C   UNL d   1      23.974 -17.615  -0.626  0.00  0.00     0.109 C 
ENDROOT
BRANCH   1   7
ATOM      7  C   UNL d   1      26.279 -16.441  -0.801  0.00  0.00     0.129 C 
BRANCH   7   8
ATOM      8  C   UNL d   1      26.824 -15.073  -1.264  0.00  0.00     0.056 C 
BRANCH   8   9
ATOM      9  C   UNL d   1      26.911 -14.872  -2.755  0.00  0.00    -0.048 A 
ATOM     10  C   UNL d   1      27.894 -15.315  -3.550  0.00  0.00    -0.005 A 
ATOM     11  C   UNL d   1      27.542 -14.861  -4.907  0.00  0.00     0.038 A 
ATOM     12  C   UNL d   1      29.082 -16.063  -3.314  0.00  0.00     0.020 A 
ATOM     13  C   UNL d   1      28.456 -15.200  -6.012  0.00  0.00     0.030 A 
ATOM     14  N   UNL d   1      26.442 -14.208  -4.922  0.00  0.00    -0.385 N 
ATOM     15  C   UNL d   1      29.562 -15.909  -5.706  0.00  0.00     0.009 A 
ATOM     16  C   UNL d   1      29.893 -16.354  -4.350  0.00  0.00    -0.061 A 
ATOM     17  C   UNL d   1      31.150 -17.140  -4.114  0.00  0.00     0.048 C 
ATOM     18  C   UNL d   1      25.885 -14.123  -3.556  0.00  0.00     0.155 A 
ATOM     19  H   UNL d   1      26.034 -13.812  -5.766  0.00  0.00     0.160 HD
ENDBRANCH   8   9
ENDBRANCH   7   8
ENDBRANCH   1   7
BRANCH   6  20
ATOM     20  N   UNL d   1      24.400 -18.746  -0.023  0.00  0.00    -0.385 N 
ATOM     21  H   UNL d   1      23.722 -19.158   0.617  0.00  0.00     0.157 HD
ATOM     22  H   UNL d   1      25.366 -18.844   0.230  0.00  0.00     0.157 HD
ENDBRANCH   6  20
BRANCH   5  23
ATOM     23  C   UNL d   1      21.424 -18.349  -0.279  0.00  0.00     0.168 C 
ATOM     24  N   UNL d   1      19.905 -18.601  -0.896  0.00  0.00    -0.274 NA
ATOM     25  C   UNL d   1      19.392 -19.929  -0.181  0.00  0.00     0.026 C 
ATOM     26  H   UNL d   1      19.902 -18.901  -1.872  0.00  0.00     0.129 HD
ATOM     27  C   UNL d   1      18.061 -20.182   0.274  0.00  0.00     0.025 C 
ATOM     28  C   UNL d   1      20.438 -20.432   0.563  0.00  0.00     0.023 C 
ATOM     29  C   UNL d   1      17.874 -20.454   1.647  0.00  0.00     0.002 C 
ATOM     30  C   UNL d   1      18.981 -20.400   2.487  0.00  0.00     0.001 C 
ATOM     31  C   UNL d   1      20.258 -20.431   1.931  0.00  0.00     0.020 C 
ATOM     32  S   UNL d   1      22.010 -20.075  -0.146  0.00  0.00    -0.103 SA
ENDBRANCH   5  23
TORSDOF 5
ENDMDL
MODEL 2
REMARK VINA RESULT:   -28.012      2.678      4.325
REMARK INTER + INTRA:         -29.780
REMARK INTER:                 -29.503
REMARK INTRA:                  -0.277
REMARK CONF_INDEPENDENT:        1.492
REMARK UNBOUND:                -0.277
REMARK  5 active torsions:
REMARK  status: ('A' for Active; 'I' for Inactive)
REMARK    1  A    between atoms: C_8  and  C_9 
REMARK    2  A    between atoms: C_9  and  C_10 
REMARK    3  A    between atoms: C_10  and  N_11 
REMARK    4  A    between atoms: C_15  and  C_16 
REMARK    5  A    between atoms: C_25  and  N_26 
ROOT
ATOM      1  N   UNL d   1      24.833 -16.684  -1.280  0.00  0.00    -0.359 N 
ATOM      2  C   UNL d   1      24.084 -15.548  -1.797  0.00  0.00     0.208 C 
ATOM      3  C   UNL d   1      22.665 -15.945  -1.270  0.00  0.00     0.179 C 
ATOM      4  O   UNL d   1      21.798 -15.138  -1.089  0.00  0.00    -0.291 OA
ATOM      5  C   UNL d   1      22.616 -17.482  -0.948  0.00  0.00     0.061 C 
ATOM      6  C   UNL d   1      23.958 -17.708  -0.878  0.00  0.00     0.109 C 
ENDROOT
BRANCH   1   7
ATOM      7  C   UNL d   1      26.291 -16.617  -1.172  0.00  0.00     0.129 C 
BRANCH   7   8
ATOM      8  C   UNL d   1      26.767 -16.172   0.228  0.00  0.00     0.056 C 
BRANCH   8   9
ATOM      9  C   UNL d   1      26.933 -14.688   0.423  0.00  0.00    -0.048 A 
ATOM     10  C   UNL d   1      27.347 -14.086   1.546  0.00  0.00    -0.005 A 
ATOM     11  C   UNL d   1      27.331 -12.643   1.253  0.00  0.00     0.038 A 
ATOM     12  C   UNL d   1      27.749 -14.568   2.825  0.00  0.00     0.020 A 
ATOM     13  C   UNL d   1      27.739 -11.711   2.320  0.00  0.00     0.030 A 
ATOM     14  N   UNL d   1      26.945 -12.403   0.057  0.00  0.00    -0.385 N 
ATOM     15  C   UNL d   1      28.104 -12.246   3.503  0.00  0.00     0.009 A 
ATOM     16  C   UNL d   1      28.116 -13.686   3.774  0.00  0.00    -0.061 A 
ATOM     17  C   UNL d   1      28.539 -14.181   5.127  0.00  0.00     0.048 C 
ATOM     18  C   UNL d   1      26.638 -13.668  -0.640  0.00  0.00     0.155 A 
ATOM     19  H   UNL d   1      26.867 -11.465  -0.332  0.00  0.00     0.160 HD
ENDBRANCH   8   9
ENDBRANCH   7   8
ENDBRANCH   1   7
BRANCH   6  20
ATOM     20  N   UNL d   1      24.383 -18.903  -0.413  0.00  0.00    -0.385 N 
ATOM     21  H   UNL d   1      24.089 -19.699  -0.979  0.00  0.00     0.157 HD
ATOM     22  H   UNL d   1      24.446 -19.061   0.576  0.00  0.00     0.157 HD
ENDBRANCH   6  20
BRANCH   5  23
ATOM     23  C   UNL d   1      21.418 -18.367  -0.353  0.00  0.00     0.168 C 
ATOM     24  N   UNL d   1      19.904 -18.671  -0.959  0.00  0.00    -0.274 NA
ATOM     25  C   UNL d   1      19.413 -19.976  -0.188  0.00  0.00     0.026 C 
ATOM     26  H   UNL d   1      19.908 -19.014  -1.922  0.00  0.00     0.129 HD
ATOM     27  C   UNL d   1      18.087 -20.233   0.277  0.00  0.00     0.025 C 
ATOM     28  C   UNL d   1      20.467 -20.429   0.578  0.00  0.00     0.023 C 
ATOM     29  C   UNL d   1      17.902 -20.448   1.660  0.00  0.00     0.002 C 
ATOM     30  C   UNL d   1      19.006 -20.339   2.498  0.00  0.00     0.001 C 
ATOM     31  C   UNL d   1      20.285 -20.372   1.944  0.00  0.00     0.020 C 
ATOM     32  S   UNL d   1      22.033 -20.075  -0.145  0.00  0.00    -0.103 SA
ENDBRANCH   5  23
TORSDOF 5
ENDMDL
MODEL 3
REMARK VINA RESULT:   -27.777      1.325      2.166
REMARK INTER + INTRA:         -29.467
REMARK INTER:                 -29.268
REMARK INTRA:                  -0.199
REMARK CONF_INDEPENDENT:        1.492
REMARK UNBOUND:                -0.199
REMARK  5 active torsions:
REMARK  status: ('A' for Active; 'I' for Inactive)
REMARK    1  A    between atoms: C_8  and  C_9 
REMARK    2  A    between atoms: C_9  and  C_10 
REMARK    3  A    between atoms: C_10  and  N_11 
REMARK    4  A    between atoms: C_15  and  C_16 
REMARK    5  A    between atoms: C_25  and  N_26 
ROOT
ATOM      1  N   UNL d   1      24.830 -16.553  -0.963  0.00  0.00    -0.359 N 
ATOM      2  C   UNL d   1      24.091 -15.518  -1.671  0.00  0.00     0.208 C 
ATOM      3  C   UNL d   1      22.641 -15.951  -1.272  0.00  0.00     0.179 C 
ATOM      4  O   UNL d   1      21.719 -15.185  -1.270  0.00  0.00    -0.291 OA
ATOM      5  C   UNL d   1      22.632 -17.452  -0.807  0.00  0.00     0.061 C 
ATOM      6  C   UNL d   1      23.966 -17.588  -0.564  0.00  0.00     0.109 C 
ENDROOT
BRANCH   1   7
ATOM      7  C   UNL d   1      26.260 -16.387  -0.699  0.00  0.00     0.129 C 
BRANCH   7   8
ATOM      8  C   UNL d   1      27.056 -15.977  -1.957  0.00  0.00     0.056 C 
BRANCH   8   9
ATOM      9  C   UNL d   1      28.408 -16.622  -2.117  0.00  0.00    -0.048 A 
ATOM     10  C   UNL d   1      29.182 -16.561  -3.209  0.00  0.00    -0.005 A 
ATOM     11  C   UNL d   1      30.383 -17.351  -2.889  0.00  0.00     0.038 A 
ATOM     12  C   UNL d   1      29.038 -15.930  -4.477  0.00  0.00     0.020 A 
ATOM     13  C   UNL d   1      31.430 -17.473  -3.919  0.00  0.00     0.030 A 
ATOM     14  N   UNL d   1      30.333 -17.838  -1.707  0.00  0.00    -0.385 N 
ATOM     15  C   UNL d   1      31.218 -16.847  -5.095  0.00  0.00     0.009 A 
ATOM     16  C   UNL d   1      30.017 -16.063  -5.393  0.00  0.00    -0.061 A 
ATOM     17  C   UNL d   1      29.876 -15.404  -6.735  0.00  0.00     0.048 C 
ATOM     18  C   UNL d   1      29.071 -17.443  -1.049  0.00  0.00     0.155 A 
ATOM     19  H   UNL d   1      31.069 -18.414  -1.304  0.00  0.00     0.160 HD
ENDBRANCH   8   9
ENDBRANCH   7   8
ENDBRANCH   1   7
BRANCH   6  20
ATOM     20  N   UNL d   1      24.392 -18.707   0.061  0.00  0.00    -0.385 N 
ATOM     21  H   UNL d   1      25.085 -19.240  -0.464  0.00  0.00     0.157 HD
ATOM     22  H   UNL d   1      23.753 -19.240   0.621  0.00  0.00     0.157 HD
ENDBRANCH   6  20
BRANCH   5  23
ATOM     23  C   UNL d   1      21.418 -18.351  -0.267  0.00  0.00     0.168 C 
ATOM     24  N   UNL d   1      19.905 -18.602  -0.898  0.00  0.00    -0.274 NA
ATOM     25  C   UNL d   1      19.391 -19.938  -0.199  0.00  0.00     0.026 C 
ATOM     26  H   UNL d   1      19.912 -18.895  -1.878  0.00  0.00     0.129 HD
ATOM     27  C   UNL d   1      18.058 -20.201   0.243  0.00  0.00     0.025 C 
ATOM     28  C   UNL d   1      20.433 -20.445   0.550  0.00  0.00     0.023 C 
ATOM     29  C   UNL d   1      17.860 -20.484   1.612  0.00  0.00     0.002 C 
ATOM     30  C   UNL d   1      18.959 -20.434   2.461  0.00  0.00     0.001 C 
ATOM     31  C   UNL d   1      20.241 -20.456   1.915  0.00  0.00     0.020 C 
ATOM     32  S   UNL d   1      22.009 -20.075  -0.144  0.00  0.00    -0.103 SA
ENDBRANCH   5  23
TORSDOF 5
ENDMDL
MODEL 4
REMARK VINA RESULT:   -27.775      1.413      2.727
REMARK INTER + INTRA:         -29.698
REMARK INTER:                 -29.266
REMARK INTRA:                  -0.432
REMARK CONF_INDEPENDENT:        1.492
REMARK UNBOUND:                -0.432
REMARK  5 active torsions:
REMARK  status: ('A' for Active; 'I' for Inactive)
REMARK    1  A    between atoms: C_8  and  C_9 
REMARK    2  A    between atoms: C_9  and  C_10 
REMARK    3  A    between atoms: C_10  and  N_11 
REMARK    4  A    between atoms: C_15  and  C_16 
REMARK    5  A    between atoms: C_25  and  N_26 
ROOT
ATOM      1  N   UNL d   1      24.826 -16.569  -1.044  0.00  0.00    -0.359 N 
ATOM      2  C   UNL d   1      24.076 -15.521  -1.720  0.00  0.00     0.208 C 
ATOM      3  C   UNL d   1      22.634 -15.950  -1.288  0.00  0.00     0.179 C 
ATOM      4  O   UNL d   1      21.717 -15.179  -1.253  0.00  0.00    -0.291 OA
ATOM      5  C   UNL d   1      22.628 -17.457  -0.842  0.00  0.00     0.061 C 
ATOM      6  C   UNL d   1      23.967 -17.603  -0.634  0.00  0.00     0.109 C 
ENDROOT
BRANCH   1   7
ATOM      7  C   UNL d   1      26.264 -16.414  -0.815  0.00  0.00     0.129 C 
BRANCH   7   8
ATOM      8  C   UNL d   1      26.771 -14.993  -1.140  0.00  0.00     0.056 C 
BRANCH   8   9
ATOM      9  C   UNL d   1      26.841 -14.640  -2.603  0.00  0.00    -0.048 A 
ATOM     10  C   UNL d   1      26.626 -13.427  -3.129  0.00  0.00    -0.005 A 
ATOM     11  C   UNL d   1      26.793 -13.588  -4.583  0.00  0.00     0.038 A 
ATOM     12  C   UNL d   1      26.298 -12.160  -2.567  0.00  0.00     0.020 A 
ATOM     13  C   UNL d   1      26.608 -12.404  -5.441  0.00  0.00     0.030 A 
ATOM     14  N   UNL d   1      27.087 -14.793  -4.900  0.00  0.00    -0.385 N 
ATOM     15  C   UNL d   1      26.297 -11.241  -4.832  0.00  0.00     0.009 A 
ATOM     16  C   UNL d   1      26.138 -11.100  -3.383  0.00  0.00    -0.061 A 
ATOM     17  C   UNL d   1      25.790  -9.760  -2.802  0.00  0.00     0.048 C 
ATOM     18  C   UNL d   1      27.159 -15.632  -3.686  0.00  0.00     0.155 A 
ATOM     19  H   UNL d   1      27.240 -15.102  -5.857  0.00  0.00     0.160 HD
ENDBRANCH   8   9
ENDBRANCH   7   8
ENDBRANCH   1   7
BRANCH   6  20
ATOM     20  N   UNL d   1      24.402 -18.732  -0.034  0.00  0.00    -0.385 N 
ATOM     21  H   UNL d   1      24.559 -19.511  -0.674  0.00  0.00     0.157 HD
ATOM     22  H   UNL d   1      24.070 -18.971   0.882  0.00  0.00     0.157 HD
ENDBRANCH   6  20
BRANCH   5  23
ATOM     23  C   UNL d   1      21.422 -18.355  -0.281  0.00  0.00     0.168 C 
ATOM     24  N   UNL d   1      19.905 -18.619  -0.895  0.00  0.00    -0.274 NA
ATOM     25  C   UNL d   1      19.403 -19.950  -0.178  0.00  0.00     0.026 C 
ATOM     26  H   UNL d   1      19.904 -18.922  -1.872  0.00  0.00     0.129 HD
ATOM     27  C   UNL d   1      18.075 -20.213   0.279  0.00  0.00     0.025 C 
ATOM     28  C   UNL d   1      20.454 -20.444   0.566  0.00  0.00     0.023 C 
ATOM     29  C   UNL d   1      17.891 -20.484   1.653  0.00  0.00     0.002 C 
ATOM     30  C   UNL d   1      18.998 -20.420   2.491  0.00  0.00     0.001 C 
ATOM     31  C   UNL d   1      20.275 -20.442   1.934  0.00  0.00     0.020 C 
ATOM     32  S   UNL d   1      22.022 -20.075  -0.145  0.00  0.00    -0.103 SA
ENDBRANCH   5  23
TORSDOF 5
ENDMDL
MODEL 5
REMARK VINA RESULT:   -26.507      1.463      1.869
REMARK INTER + INTRA:         -28.677
REMARK INTER:                 -27.999
REMARK INTRA:                  -0.679
REMARK CONF_INDEPENDENT:        1.492
REMARK UNBOUND:                -0.679
REMARK  5 active torsions:
REMARK  status: ('A' for Active; 'I' for Inactive)
REMARK    1  A    between atoms: C_8  and  C_9 
REMARK    2  A    between atoms: C_9  and  C_10 
REMARK    3  A    between atoms: C_10  and  N_11 
REMARK    4  A    between atoms: C_15  and  C_16 
REMARK    5  A    between atoms: C_25  and  N_26 
ROOT
ATOM      1  N   UNL d   1      23.767 -15.626  -1.592  0.00  0.00    -0.359 N 
ATOM      2  C   UNL d   1      24.875 -16.348  -0.986  0.00  0.00     0.208 C 
ATOM      3  C   UNL d   1      24.106 -17.643  -0.560  0.00  0.00     0.179 C 
ATOM      4  O   UNL d   1      24.657 -18.693  -0.393  0.00  0.00    -0.291 OA
ATOM      5  C   UNL d   1      22.562 -17.358  -0.492  0.00  0.00     0.061 C 
ATOM      6  C   UNL d   1      22.541 -16.218  -1.238  0.00  0.00     0.109 C 
ENDROOT
BRANCH   1   7
ATOM      7  C   UNL d   1      24.025 -14.499  -2.489  0.00  0.00     0.129 C 
BRANCH   7   8
ATOM      8  C   UNL d   1      25.495 -14.029  -2.450  0.00  0.00     0.056 C 
BRANCH   8   9
ATOM      9  C   UNL d   1      26.099 -13.652  -3.778  0.00  0.00    -0.048 A 
ATOM     10  C   UNL d   1      27.120 -14.276  -4.381  0.00  0.00    -0.005 A 
ATOM     11  C   UNL d   1      27.353 -13.537  -5.634  0.00  0.00     0.038 A 
ATOM     12  C   UNL d   1      27.919 -15.403  -4.038  0.00  0.00     0.020 A 
ATOM     13  C   UNL d   1      28.438 -13.995  -6.520  0.00  0.00     0.030 A 
ATOM     14  N   UNL d   1      26.538 -12.559  -5.770  0.00  0.00    -0.385 N 
ATOM     15  C   UNL d   1      29.150 -15.069  -6.123  0.00  0.00     0.009 A 
ATOM     16  C   UNL d   1      28.901 -15.792  -4.874  0.00  0.00    -0.061 A 
ATOM     17  C   UNL d   1      29.752 -16.978  -4.522  0.00  0.00     0.048 C 
ATOM     18  C   UNL d   1      25.626 -12.495  -4.610  0.00  0.00     0.155 A 
ATOM     19  H   UNL d   1      26.543 -11.931  -6.570  0.00  0.00     0.160 HD
ENDBRANCH   8   9
ENDBRANCH   7   8
ENDBRANCH   1   7
BRANCH   6  20
ATOM     20  N   UNL d   1      21.343 -15.719  -1.612  0.00  0.00    -0.385 N 
ATOM     21  H   UNL d   1      20.635 -16.428  -1.798  0.00  0.00     0.157 HD
ATOM     22  H   UNL d   1      21.302 -14.891  -2.178  0.00  0.00     0.157 HD
ENDBRANCH   6  20
BRANCH   5  23
ATOM     23  C   UNL d   1      21.350 -18.351  -0.146  0.00  0.00     0.168 C 
ATOM     24  N   UNL d   1      19.905 -18.593  -0.923  0.00  0.00    -0.274 NA
ATOM     25  C   UNL d   1      19.398 -20.011  -0.405  0.00  0.00     0.026 C 
ATOM     26  H   UNL d   1      20.002 -18.783  -1.923  0.00  0.00     0.129 HD
ATOM     27  C   UNL d   1      18.047 -20.367  -0.104  0.00  0.00     0.025 C 
ATOM     28  C   UNL d   1      20.400 -20.553   0.374  0.00  0.00     0.023 C 
ATOM     29  C   UNL d   1      17.755 -20.797   1.209  0.00  0.00     0.002 C 
ATOM     30  C   UNL d   1      18.780 -20.793   2.148  0.00  0.00     0.001 C 
ATOM     31  C   UNL d   1      20.101 -20.711   1.711  0.00  0.00     0.020 C 
ATOM     32  S   UNL d   1      22.007 -20.056  -0.145  0.00  0.00    -0.103 SA
ENDBRANCH   5  23
TORSDOF 5
ENDMDL
MODEL 6
REMARK VINA RESULT:   -26.368      2.126      3.333
REMARK INTER + INTRA:         -28.503
REMARK INTER:                 -27.859
REMARK INTRA:                  -0.643
REMARK CONF_INDEPENDENT:        1.492
REMARK UNBOUND:                -0.643
REMARK  5 active torsions:
REMARK  status: ('A' for Active; 'I' for Inactive)
REMARK    1  A    between atoms: C_8  and  C_9 
REMARK    2  A    between atoms: C_9  and  C_10 
REMARK    3  A    between atoms: C_10  and  N_11 
REMARK    4  A    between atoms: C_15  and  C_16 
REMARK    5  A    between atoms: C_25  and  N_26 
ROOT
ATOM      1  N   UNL d   1      23.786 -15.645  -1.630  0.00  0.00    -0.359 N 
ATOM      2  C   UNL d   1      24.900 -16.408  -1.088  0.00  0.00     0.208 C 
ATOM      3  C   UNL d   1      24.118 -17.695  -0.661  0.00  0.00     0.179 C 
ATOM      4  O   UNL d   1      24.650 -18.761  -0.543  0.00  0.00    -0.291 OA
ATOM      5  C   UNL d   1      22.585 -17.375  -0.522  0.00  0.00     0.061 C 
ATOM      6  C   UNL d   1      22.562 -16.217  -1.240  0.00  0.00     0.109 C 
ENDROOT
BRANCH   1   7
ATOM      7  C   UNL d   1      24.035 -14.503  -2.510  0.00  0.00     0.129 C 
BRANCH   7   8
ATOM      8  C   UNL d   1      25.462 -13.933  -2.360  0.00  0.00     0.056 C 
BRANCH   8   9
ATOM      9  C   UNL d   1      26.282 -13.876  -3.623  0.00  0.00    -0.048 A 
ATOM     10  C   UNL d   1      26.335 -12.846  -4.478  0.00  0.00    -0.005 A 
ATOM     11  C   UNL d   1      27.250 -13.268  -5.552  0.00  0.00     0.038 A 
ATOM     12  C   UNL d   1      25.715 -11.564  -4.507  0.00  0.00     0.020 A 
ATOM     13  C   UNL d   1      27.504 -12.327  -6.658  0.00  0.00     0.030 A 
ATOM     14  N   UNL d   1      27.708 -14.446  -5.354  0.00  0.00    -0.385 N 
ATOM     15  C   UNL d   1      26.878 -11.134  -6.614  0.00  0.00     0.009 A 
ATOM     16  C   UNL d   1      25.973 -10.732  -5.534  0.00  0.00    -0.061 A 
ATOM     17  C   UNL d   1      25.323  -9.379  -5.577  0.00  0.00     0.048 C 
ATOM     18  C   UNL d   1      27.159 -14.998  -4.099  0.00  0.00     0.155 A 
ATOM     19  H   UNL d   1      28.355 -14.912  -5.987  0.00  0.00     0.160 HD
ENDBRANCH   8   9
ENDBRANCH   7   8
ENDBRANCH   1   7
BRANCH   6  20
ATOM     20  N   UNL d   1      21.362 -15.680  -1.551  0.00  0.00    -0.385 N 
ATOM     21  H   UNL d   1      20.617 -16.366  -1.673  0.00  0.00     0.157 HD
ATOM     22  H   UNL d   1      21.316 -14.866  -2.136  0.00  0.00     0.157 HD
ENDBRANCH   6  20
BRANCH   5  23
ATOM     23  C   UNL d   1      21.365 -18.348  -0.150  0.00  0.00     0.168 C 
ATOM     24  N   UNL d   1      19.905 -18.575  -0.904  0.00  0.00    -0.274 NA
ATOM     25  C   UNL d   1      19.385 -19.982  -0.367  0.00  0.00     0.026 C 
ATOM     26  H   UNL d   1      19.985 -18.775  -1.903  0.00  0.00     0.129 HD
ATOM     27  C   UNL d   1      18.035 -20.316  -0.043  0.00  0.00     0.025 C 
ATOM     28  C   UNL d   1      20.391 -20.532   0.402  0.00  0.00     0.023 C 
ATOM     29  C   UNL d   1      17.755 -20.730   1.278  0.00  0.00     0.002 C 
ATOM     30  C   UNL d   1      18.794 -20.734   2.201  0.00  0.00     0.001 C 
ATOM     31  C   UNL d   1      20.110 -20.674   1.745  0.00  0.00     0.020 C 
ATOM     32  S   UNL d   1      21.997 -20.062  -0.145  0.00  0.00    -0.103 SA
ENDBRANCH   5  23
TORSDOF 5
ENDMDL
MODEL 7
REMARK VINA RESULT:   -25.717      2.517      3.525
REMARK INTER + INTRA:         -28.057
REMARK INTER:                 -27.208
REMARK INTRA:                  -0.849
REMARK CONF_INDEPENDENT:        1.492
REMARK UNBOUND:                -0.849
REMARK  5 active torsions:
REMARK  status: ('A' for Active; 'I' for Inactive)
REMARK    1  A    between atoms: C_8  and  C_9 
REMARK    2  A    between atoms: C_9  and  C_10 
REMARK    3  A    between atoms: C_10  and  N_11 
REMARK    4  A    between atoms: C_15  and  C_16 
REMARK    5  A    between atoms: C_25  and  N_26 
ROOT
ATOM      1  N   UNL d   1      23.716 -15.595  -1.643  0.00  0.00    -0.359 N 
ATOM      2  C   UNL d   1      24.841 -16.324  -1.075  0.00  0.00     0.208 C 
ATOM      3  C   UNL d   1      24.085 -17.628  -0.651  0.00  0.00     0.179 C 
ATOM      4  O   UNL d   1      24.643 -18.679  -0.514  0.00  0.00    -0.291 OA
ATOM      5  C   UNL d   1      22.542 -17.348  -0.543  0.00  0.00     0.061 C 
ATOM      6  C   UNL d   1      22.501 -16.197  -1.270  0.00  0.00     0.109 C 
ENDROOT
BRANCH   1   7
ATOM      7  C   UNL d   1      23.951 -14.454  -2.528  0.00  0.00     0.129 C 
BRANCH   7   8
ATOM      8  C   UNL d   1      25.276 -14.569  -3.313  0.00  0.00     0.056 C 
BRANCH   8   9
ATOM      9  C   UNL d   1      26.282 -13.476  -3.064  0.00  0.00    -0.048 A 
ATOM     10  C   UNL d   1      26.729 -13.078  -1.864  0.00  0.00    -0.005 A 
ATOM     11  C   UNL d   1      27.677 -11.985  -2.136  0.00  0.00     0.038 A 
ATOM     12  C   UNL d   1      26.457 -13.497  -0.531  0.00  0.00     0.020 A 
ATOM     13  C   UNL d   1      28.335 -11.335  -0.988  0.00  0.00     0.030 A 
ATOM     14  N   UNL d   1      27.792 -11.752  -3.389  0.00  0.00    -0.385 N 
ATOM     15  C   UNL d   1      28.024 -11.787   0.243  0.00  0.00     0.009 A 
ATOM     16  C   UNL d   1      27.079 -12.879   0.492  0.00  0.00    -0.061 A 
ATOM     17  C   UNL d   1      26.799 -13.310   1.903  0.00  0.00     0.048 C 
ATOM     18  C   UNL d   1      26.922 -12.667  -4.155  0.00  0.00     0.155 A 
ATOM     19  H   UNL d   1      28.400 -11.033  -3.774  0.00  0.00     0.160 HD
ENDBRANCH   8   9
ENDBRANCH   7   8
ENDBRANCH   1   7
BRANCH   6  20
ATOM     20  N   UNL d   1      21.294 -15.695  -1.608  0.00  0.00    -0.385 N 
ATOM     21  H   UNL d   1      20.548 -16.391  -1.645  0.00  0.00     0.157 HD
ATOM     22  H   UNL d   1      21.233 -14.943  -2.269  0.00  0.00     0.157 HD
ENDBRANCH   6  20
BRANCH   5  23
ATOM     23  C   UNL d   1      21.341 -18.351  -0.184  0.00  0.00     0.168 C 
ATOM     24  N   UNL d   1      19.905 -18.628  -0.966  0.00  0.00    -0.274 NA
ATOM     25  C   UNL d   1      19.413 -20.042  -0.423  0.00  0.00     0.026 C 
ATOM     26  H   UNL d   1      20.012 -18.837  -1.961  0.00  0.00     0.129 HD
ATOM     27  C   UNL d   1      18.066 -20.410  -0.123  0.00  0.00     0.025 C 
ATOM     28  C   UNL d   1      20.417 -20.554   0.374  0.00  0.00     0.023 C 
ATOM     29  C   UNL d   1      17.770 -20.816   1.196  0.00  0.00     0.002 C 
ATOM     30  C   UNL d   1      18.789 -20.780   2.142  0.00  0.00     0.001 C 
ATOM     31  C   UNL d   1      20.111 -20.689   1.712  0.00  0.00     0.020 C 
ATOM     32  S   UNL d   1      22.021 -20.046  -0.145  0.00  0.00    -0.103 SA
ENDBRANCH   5  23
TORSDOF 5
ENDMDL
