MODEL 1
REMARK VINA RESULT:    -9.294      0.000      0.000
REMARK INTER + INTRA:         -16.279
REMARK INTER:                 -12.277
REMARK INTRA:                  -4.002
REMARK CONF_INDEPENDENT:        2.983
REMARK UNBOUND:                -4.002
REMARK  10 active torsions:
REMARK  status: ('A' for Active; 'I' for Inactive)
REMARK    1  A    between atoms: C_2  and  O_3 
REMARK    2  A    between atoms: O_3  and  C_4 
REMARK    3  A    between atoms: C_9  and  N_10 
REMARK       I    between atoms: N_10  and  C_11 
REMARK    4  A    between atoms: N_10  and  C_22 
REMARK    5  A    between atoms: C_11  and  C_13 
REMARK    6  A    between atoms: C_16  and  C_17 
REMARK       I    between atoms: C_17  and  N_18 
REMARK    7  A    between atoms: C_20  and  N_21 
REMARK    8  A    between atoms: C_22  and  C_23 
REMARK    9  A    between atoms: C_22  and  C_31 
REMARK       I    between atoms: C_23  and  N_25 
REMARK   10  A    between atoms: N_25  and  C_26 
ROOT
ATOM      1  N   UNL d   1      26.868 -15.046  -1.570  0.00  0.00    -0.290 N 
ATOM      2  C   UNL d   1      27.371 -13.822  -1.005  0.00  0.00     0.269 C 
ATOM      3  O   UNL d   1      27.668 -12.845  -1.713  0.00  0.00    -0.266 OA
ENDROOT
BRANCH   1   4
ATOM      4  C   UNL d   1      26.369 -16.253  -0.859  0.00  0.00     0.072 C 
ATOM      5  C   UNL d   1      27.338 -16.913  -0.073  0.00  0.00     0.033 C 
ATOM      6  C   UNL d   1      27.164 -18.141   0.550  0.00  0.00     0.002 C 
ATOM      7  C   UNL d   1      25.886 -18.574   0.767  0.00  0.00     0.003 C 
ATOM      8  C   UNL d   1      24.837 -17.893   0.154  0.00  0.00     0.039 C 
ATOM      9  C   UNL d   1      25.036 -16.810  -0.752  0.00  0.00     0.095 C 
BRANCH   9  10
ATOM     10  O   UNL d   1      23.743 -16.340  -1.068  0.00  0.00    -0.349 OA
BRANCH  10  11
ATOM     11  C   UNL d   1      22.508 -16.789  -0.520  0.00  0.00     0.171 C 
ATOM     12  C   UNL d   1      21.844 -18.114  -0.895  0.00  0.00     0.034 C 
ENDBRANCH  10  11
ENDBRANCH   9  10
ENDBRANCH   1   4
BRANCH   1  13
ATOM     13  C   UNL d   1      26.906 -15.132  -3.011  0.00  0.00     0.242 C 
BRANCH  13  14
ATOM     14  C   UNL d   1      25.964 -13.953  -3.813  0.00  0.00     0.247 C 
ATOM     15  O   UNL d   1      24.755 -14.092  -4.021  0.00  0.00    -0.271 OA
ATOM     16  N   UNL d   1      26.456 -12.696  -4.139  0.00  0.00    -0.354 N 
ATOM     17  H   UNL d   1      27.293 -12.371  -3.711  0.00  0.00     0.162 HD
BRANCH  16  18
ATOM     18  C   UNL d   1      25.705 -11.561  -4.658  0.00  0.00     0.084 C 
ATOM     19  C   UNL d   1      25.792 -10.247  -3.881  0.00  0.00     0.025 C 
ATOM     20  C   UNL d   1      25.157  -9.244  -4.831  0.00  0.00     0.002 C 
ATOM     21  C   UNL d   1      25.550  -9.722  -6.231  0.00  0.00     0.002 C 
ATOM     22  C   UNL d   1      26.219 -11.084  -6.032  0.00  0.00     0.025 C 
ENDBRANCH  16  18
ENDBRANCH  13  14
BRANCH  13  23
ATOM     23  C   UNL d   1      28.167 -15.350  -3.813  0.00  0.00     0.085 C 
ATOM     24  C   UNL d   1      29.505 -15.310  -3.497  0.00  0.00     0.037 C 
ATOM     25  C   UNL d   1      30.204 -15.802  -4.606  0.00  0.00     0.027 C 
ATOM     26  C   UNL d   1      29.276 -15.956  -5.604  0.00  0.00     0.142 C 
ATOM     27  O   UNL d   1      28.043 -15.577  -5.170  0.00  0.00    -0.324 OA
ENDBRANCH  13  23
ENDBRANCH   1  13
BRANCH   2  28
ATOM     28  C   UNL d   1      27.525 -13.643   0.412  0.00  0.00     0.115 C 
ATOM     29  S   UNL d   1      26.279 -12.810   1.254  0.00  0.00     0.019 SA
ATOM     30  N   UNL d   1      26.771 -13.257   2.778  0.00  0.00    -0.203 NA
ATOM     31  C   UNL d   1      27.916 -13.949   2.669  0.00  0.00     0.155 C 
ATOM     32  C   UNL d   1      28.441 -14.097   1.331  0.00  0.00     0.065 C 
BRANCH  31  33
ATOM     33  C   UNL d   1      28.525 -14.612   3.825  0.00  0.00     0.270 C 
ATOM     34  N   UNL d   1      29.866 -14.825   3.799  0.00  0.00    -0.365 N 
ATOM     35  H   UNL d   1      30.431 -14.538   3.010  0.00  0.00     0.159 HD
ATOM     36  H   UNL d   1      30.262 -15.355   4.560  0.00  0.00     0.159 HD
ATOM     37  O   UNL d   1      27.873 -14.953   4.823  0.00  0.00    -0.266 OA
ENDBRANCH  31  33
BRANCH  32  38
ATOM     38  N   UNL d   1      29.557 -14.820   1.034  0.00  0.00    -0.299 NA
ATOM     39  H   UNL d   1      30.450 -14.336   1.205  0.00  0.00     0.124 HD
ATOM     40  H   UNL d   1      29.640 -15.778   1.367  0.00  0.00     0.124 HD
ENDBRANCH  32  38
ENDBRANCH   2  28
TORSDOF 10
ENDMDL
MODEL 2
REMARK VINA RESULT:    -8.623      1.138      2.247
REMARK INTER + INTRA:         -17.160
REMARK INTER:                 -11.606
REMARK INTRA:                  -5.555
REMARK CONF_INDEPENDENT:        2.983
REMARK UNBOUND:                -5.555
REMARK  10 active torsions:
REMARK  status: ('A' for Active; 'I' for Inactive)
REMARK    1  A    between atoms: C_2  and  O_3 
REMARK    2  A    between atoms: O_3  and  C_4 
REMARK    3  A    between atoms: C_9  and  N_10 
REMARK       I    between atoms: N_10  and  C_11 
REMARK    4  A    between atoms: N_10  and  C_22 
REMARK    5  A    between atoms: C_11  and  C_13 
REMARK    6  A    between atoms: C_16  and  C_17 
REMARK       I    between atoms: C_17  and  N_18 
REMARK    7  A    between atoms: C_20  and  N_21 
REMARK    8  A    between atoms: C_22  and  C_23 
REMARK    9  A    between atoms: C_22  and  C_31 
REMARK       I    between atoms: C_23  and  N_25 
REMARK   10  A    between atoms: N_25  and  C_26 
ROOT
ATOM      1  N   UNL d   1      26.780 -14.903  -1.618  0.00  0.00    -0.290 N 
ATOM      2  C   UNL d   1      27.360 -13.698  -1.086  0.00  0.00     0.269 C 
ATOM      3  O   UNL d   1      27.755 -12.778  -1.822  0.00  0.00    -0.266 OA
ENDROOT
BRANCH   1   4
ATOM      4  C   UNL d   1      26.166 -16.036  -0.876  0.00  0.00     0.072 C 
ATOM      5  C   UNL d   1      24.775 -16.176  -1.064  0.00  0.00     0.033 C 
ATOM      6  C   UNL d   1      23.955 -17.047  -0.360  0.00  0.00     0.002 C 
ATOM      7  C   UNL d   1      24.538 -18.110   0.269  0.00  0.00     0.003 C 
ATOM      8  C   UNL d   1      25.926 -18.143   0.374  0.00  0.00     0.039 C 
ATOM      9  C   UNL d   1      26.767 -17.083  -0.075  0.00  0.00     0.095 C 
BRANCH   9  10
ATOM     10  O   UNL d   1      28.089 -17.540   0.120  0.00  0.00    -0.349 OA
BRANCH  10  11
ATOM     11  C   UNL d   1      29.130 -17.596  -0.849  0.00  0.00     0.171 C 
ATOM     12  C   UNL d   1      30.598 -17.309  -0.537  0.00  0.00     0.034 C 
ENDBRANCH  10  11
ENDBRANCH   9  10
ENDBRANCH   1   4
BRANCH   1  13
ATOM     13  C   UNL d   1      26.857 -15.054  -3.053  0.00  0.00     0.242 C 
BRANCH  13  14
ATOM     14  C   UNL d   1      25.954 -13.898  -3.931  0.00  0.00     0.247 C 
ATOM     15  O   UNL d   1      24.780 -14.082  -4.267  0.00  0.00    -0.271 OA
ATOM     16  N   UNL d   1      26.424 -12.616  -4.186  0.00  0.00    -0.354 N 
ATOM     17  H   UNL d   1      27.197 -12.266  -3.668  0.00  0.00     0.162 HD
BRANCH  16  18
ATOM     18  C   UNL d   1      25.684 -11.503  -4.764  0.00  0.00     0.084 C 
ATOM     19  C   UNL d   1      25.771 -10.155  -4.048  0.00  0.00     0.025 C 
ATOM     20  C   UNL d   1      25.150  -9.194  -5.050  0.00  0.00     0.002 C 
ATOM     21  C   UNL d   1      25.553  -9.738  -6.422  0.00  0.00     0.002 C 
ATOM     22  C   UNL d   1      26.213 -11.093  -6.154  0.00  0.00     0.025 C 
ENDBRANCH  16  18
ENDBRANCH  13  14
BRANCH  13  23
ATOM     23  C   UNL d   1      28.135 -15.324  -3.809  0.00  0.00     0.085 C 
ATOM     24  C   UNL d   1      29.463 -15.315  -3.450  0.00  0.00     0.037 C 
ATOM     25  C   UNL d   1      30.182 -15.850  -4.526  0.00  0.00     0.027 C 
ATOM     26  C   UNL d   1      29.283 -15.998  -5.551  0.00  0.00     0.142 C 
ATOM     27  O   UNL d   1      28.048 -15.575  -5.164  0.00  0.00    -0.324 OA
ENDBRANCH  13  23
ENDBRANCH   1  13
BRANCH   2  28
ATOM     28  C   UNL d   1      27.483 -13.471   0.327  0.00  0.00     0.115 C 
ATOM     29  S   UNL d   1      26.637 -12.135   1.000  0.00  0.00     0.019 SA
ATOM     30  N   UNL d   1      26.804 -12.605   2.587  0.00  0.00    -0.203 NA
ATOM     31  C   UNL d   1      27.570 -13.707   2.625  0.00  0.00     0.155 C 
ATOM     32  C   UNL d   1      28.073 -14.172   1.352  0.00  0.00     0.065 C 
BRANCH  31  33
ATOM     33  C   UNL d   1      27.780 -14.453   3.868  0.00  0.00     0.270 C 
ATOM     34  N   UNL d   1      28.910 -15.198   3.976  0.00  0.00    -0.365 N 
ATOM     35  H   UNL d   1      29.589 -15.240   3.226  0.00  0.00     0.159 HD
ATOM     36  H   UNL d   1      29.005 -15.773   4.800  0.00  0.00     0.159 HD
ATOM     37  O   UNL d   1      26.989 -14.405   4.820  0.00  0.00    -0.266 OA
ENDBRANCH  31  33
BRANCH  32  38
ATOM     38  N   UNL d   1      28.812 -15.307   1.202  0.00  0.00    -0.299 NA
ATOM     39  H   UNL d   1      28.472 -16.122   1.732  0.00  0.00     0.124 HD
ATOM     40  H   UNL d   1      29.078 -15.616   0.270  0.00  0.00     0.124 HD
ENDBRANCH  32  38
ENDBRANCH   2  28
TORSDOF 10
ENDMDL
MODEL 3
REMARK VINA RESULT:    -8.513      1.802      2.818
REMARK INTER + INTRA:         -15.997
REMARK INTER:                 -11.496
REMARK INTRA:                  -4.501
REMARK CONF_INDEPENDENT:        2.983
REMARK UNBOUND:                -4.501
REMARK  10 active torsions:
REMARK  status: ('A' for Active; 'I' for Inactive)
REMARK    1  A    between atoms: C_2  and  O_3 
REMARK    2  A    between atoms: O_3  and  C_4 
REMARK    3  A    between atoms: C_9  and  N_10 
REMARK       I    between atoms: N_10  and  C_11 
REMARK    4  A    between atoms: N_10  and  C_22 
REMARK    5  A    between atoms: C_11  and  C_13 
REMARK    6  A    between atoms: C_16  and  C_17 
REMARK       I    between atoms: C_17  and  N_18 
REMARK    7  A    between atoms: C_20  and  N_21 
REMARK    8  A    between atoms: C_22  and  C_23 
REMARK    9  A    between atoms: C_22  and  C_31 
REMARK       I    between atoms: C_23  and  N_25 
REMARK   10  A    between atoms: N_25  and  C_26 
ROOT
ATOM      1  N   UNL d   1      27.684 -15.719  -1.815  0.00  0.00    -0.290 N 
ATOM      2  C   UNL d   1      28.476 -14.714  -1.155  0.00  0.00     0.269 C 
ATOM      3  O   UNL d   1      29.530 -14.279  -1.649  0.00  0.00    -0.266 OA
ENDROOT
BRANCH   1   4
ATOM      4  C   UNL d   1      26.359 -16.259  -1.412  0.00  0.00     0.072 C 
ATOM      5  C   UNL d   1      26.381 -17.071  -0.259  0.00  0.00     0.033 C 
ATOM      6  C   UNL d   1      25.312 -17.816   0.219  0.00  0.00     0.002 C 
ATOM      7  C   UNL d   1      24.055 -17.466  -0.187  0.00  0.00     0.003 C 
ATOM      8  C   UNL d   1      23.921 -16.549  -1.227  0.00  0.00     0.039 C 
ATOM      9  C   UNL d   1      25.033 -16.013  -1.941  0.00  0.00     0.095 C 
BRANCH   9  10
ATOM     10  O   UNL d   1      24.487 -15.063  -2.832  0.00  0.00    -0.349 OA
BRANCH  10  11
ATOM     11  C   UNL d   1      25.189 -14.048  -3.542  0.00  0.00     0.171 C 
ATOM     12  C   UNL d   1      25.912 -12.884  -2.867  0.00  0.00     0.034 C 
ENDBRANCH  10  11
ENDBRANCH   9  10
ENDBRANCH   1   4
BRANCH   1  13
ATOM     13  C   UNL d   1      28.283 -16.319  -2.984  0.00  0.00     0.242 C 
BRANCH  13  14
ATOM     14  C   UNL d   1      28.208 -15.348  -4.390  0.00  0.00     0.247 C 
ATOM     15  O   UNL d   1      27.401 -15.555  -5.301  0.00  0.00    -0.271 OA
ATOM     16  N   UNL d   1      28.933 -14.172  -4.528  0.00  0.00    -0.354 N 
ATOM     17  H   UNL d   1      29.337 -13.748  -3.724  0.00  0.00     0.162 HD
BRANCH  16  18
ATOM     18  C   UNL d   1      28.819 -13.184  -5.591  0.00  0.00     0.084 C 
ATOM     19  C   UNL d   1      28.965 -13.680  -7.030  0.00  0.00     0.025 C 
ATOM     20  C   UNL d   1      28.510 -12.485  -7.853  0.00  0.00     0.002 C 
ATOM     21  C   UNL d   1      27.404 -11.831  -7.022  0.00  0.00     0.002 C 
ATOM     22  C   UNL d   1      27.412 -12.557  -5.675  0.00  0.00     0.025 C 
ENDBRANCH  16  18
ENDBRANCH  13  14
BRANCH  13  23
ATOM     23  C   UNL d   1      29.610 -17.039  -2.982  0.00  0.00     0.085 C 
ATOM     24  C   UNL d   1      30.466 -17.435  -1.981  0.00  0.00     0.037 C 
ATOM     25  C   UNL d   1      31.442 -18.246  -2.574  0.00  0.00     0.027 C 
ATOM     26  C   UNL d   1      31.235 -18.166  -3.927  0.00  0.00     0.142 C 
ATOM     27  O   UNL d   1      30.187 -17.341  -4.200  0.00  0.00    -0.324 OA
ENDBRANCH  13  23
ENDBRANCH   1  13
BRANCH   2  28
ATOM     28  C   UNL d   1      28.077 -14.128   0.094  0.00  0.00     0.115 C 
ATOM     29  S   UNL d   1      26.656 -13.161   0.108  0.00  0.00     0.019 SA
ATOM     30  N   UNL d   1      26.487 -13.124   1.762  0.00  0.00    -0.203 NA
ATOM     31  C   UNL d   1      27.539 -13.751   2.310  0.00  0.00     0.155 C 
ATOM     32  C   UNL d   1      28.534 -14.246   1.385  0.00  0.00     0.065 C 
BRANCH  31  33
ATOM     33  C   UNL d   1      27.608 -14.019   3.749  0.00  0.00     0.270 C 
ATOM     34  N   UNL d   1      28.169 -15.190   4.149  0.00  0.00    -0.365 N 
ATOM     35  H   UNL d   1      28.529 -15.859   3.479  0.00  0.00     0.159 HD
ATOM     36  H   UNL d   1      28.137 -15.402   5.134  0.00  0.00     0.159 HD
ATOM     37  O   UNL d   1      27.206 -13.215   4.601  0.00  0.00    -0.266 OA
ENDBRANCH  31  33
BRANCH  32  38
ATOM     38  N   UNL d   1      29.630 -14.959   1.767  0.00  0.00    -0.299 NA
ATOM     39  H   UNL d   1      29.667 -15.201   2.767  0.00  0.00     0.124 HD
ATOM     40  H   UNL d   1      29.915 -15.773   1.228  0.00  0.00     0.124 HD
ENDBRANCH  32  38
ENDBRANCH   2  28
TORSDOF 10
ENDMDL
MODEL 4
REMARK VINA RESULT:    -8.172      2.144      4.827
REMARK INTER + INTRA:         -15.664
REMARK INTER:                 -11.155
REMARK INTRA:                  -4.509
REMARK CONF_INDEPENDENT:        2.983
REMARK UNBOUND:                -4.509
REMARK  10 active torsions:
REMARK  status: ('A' for Active; 'I' for Inactive)
REMARK    1  A    between atoms: C_2  and  O_3 
REMARK    2  A    between atoms: O_3  and  C_4 
REMARK    3  A    between atoms: C_9  and  N_10 
REMARK       I    between atoms: N_10  and  C_11 
REMARK    4  A    between atoms: N_10  and  C_22 
REMARK    5  A    between atoms: C_11  and  C_13 
REMARK    6  A    between atoms: C_16  and  C_17 
REMARK       I    between atoms: C_17  and  N_18 
REMARK    7  A    between atoms: C_20  and  N_21 
REMARK    8  A    between atoms: C_22  and  C_23 
REMARK    9  A    between atoms: C_22  and  C_31 
REMARK       I    between atoms: C_23  and  N_25 
REMARK   10  A    between atoms: N_25  and  C_26 
ROOT
ATOM      1  N   UNL d   1      28.269 -14.892  -1.710  0.00  0.00    -0.290 N 
ATOM      2  C   UNL d   1      28.782 -13.861  -0.846  0.00  0.00     0.269 C 
ATOM      3  O   UNL d   1      29.692 -13.095  -1.207  0.00  0.00    -0.266 OA
ENDROOT
BRANCH   1   4
ATOM      4  C   UNL d   1      27.122 -15.807  -1.470  0.00  0.00     0.072 C 
ATOM      5  C   UNL d   1      27.247 -16.618  -0.322  0.00  0.00     0.033 C 
ATOM      6  C   UNL d   1      26.395 -17.657   0.023  0.00  0.00     0.002 C 
ATOM      7  C   UNL d   1      25.146 -17.674  -0.533  0.00  0.00     0.003 C 
ATOM      8  C   UNL d   1      24.871 -16.799  -1.581  0.00  0.00     0.039 C 
ATOM      9  C   UNL d   1      25.853 -15.939  -2.156  0.00  0.00     0.095 C 
BRANCH   9  10
ATOM     10  O   UNL d   1      25.160 -15.158  -3.107  0.00  0.00    -0.349 OA
BRANCH  10  11
ATOM     11  C   UNL d   1      25.556 -13.898  -3.637  0.00  0.00     0.171 C 
ATOM     12  C   UNL d   1      25.910 -12.686  -2.776  0.00  0.00     0.034 C 
ENDBRANCH  10  11
ENDBRANCH   9  10
ENDBRANCH   1   4
BRANCH   1  13
ATOM     13  C   UNL d   1      28.999 -15.100  -2.938  0.00  0.00     0.242 C 
BRANCH  13  14
ATOM     14  C   UNL d   1      29.588 -16.691  -3.146  0.00  0.00     0.247 C 
ATOM     15  O   UNL d   1      29.643 -17.509  -2.223  0.00  0.00    -0.271 OA
ATOM     16  N   UNL d   1      29.893 -17.220  -4.393  0.00  0.00    -0.354 N 
ATOM     17  H   UNL d   1      29.560 -16.766  -5.213  0.00  0.00     0.162 HD
BRANCH  16  18
ATOM     18  C   UNL d   1      30.232 -18.601  -4.709  0.00  0.00     0.084 C 
ATOM     19  C   UNL d   1      30.406 -18.962  -6.183  0.00  0.00     0.025 C 
ATOM     20  C   UNL d   1      31.024 -20.351  -6.126  0.00  0.00     0.002 C 
ATOM     21  C   UNL d   1      31.919 -20.334  -4.884  0.00  0.00     0.002 C 
ATOM     22  C   UNL d   1      31.620 -19.012  -4.175  0.00  0.00     0.025 C 
ENDBRANCH  16  18
ENDBRANCH  13  14
BRANCH  13  23
ATOM     23  C   UNL d   1      28.553 -14.585  -4.286  0.00  0.00     0.085 C 
ATOM     24  C   UNL d   1      28.622 -13.353  -4.895  0.00  0.00     0.037 C 
ATOM     25  C   UNL d   1      28.232 -13.532  -6.228  0.00  0.00     0.027 C 
ATOM     26  C   UNL d   1      27.782 -14.824  -6.324  0.00  0.00     0.142 C 
ATOM     27  O   UNL d   1      27.867 -15.448  -5.117  0.00  0.00    -0.324 OA
ENDBRANCH  13  23
ENDBRANCH   1  13
BRANCH   2  28
ATOM     28  C   UNL d   1      28.249 -13.630   0.467  0.00  0.00     0.115 C 
ATOM     29  S   UNL d   1      26.656 -12.995   0.585  0.00  0.00     0.019 SA
ATOM     30  N   UNL d   1      26.457 -13.326   2.203  0.00  0.00    -0.203 NA
ATOM     31  C   UNL d   1      27.609 -13.823   2.680  0.00  0.00     0.155 C 
ATOM     32  C   UNL d   1      28.700 -13.910   1.736  0.00  0.00     0.065 C 
BRANCH  31  33
ATOM     33  C   UNL d   1      27.709 -14.355   4.042  0.00  0.00     0.270 C 
ATOM     34  N   UNL d   1      28.799 -15.105   4.349  0.00  0.00    -0.365 N 
ATOM     35  H   UNL d   1      29.520 -15.295   3.664  0.00  0.00     0.159 HD
ATOM     36  H   UNL d   1      28.819 -15.535   5.261  0.00  0.00     0.159 HD
ATOM     37  O   UNL d   1      26.864 -14.122   4.916  0.00  0.00    -0.266 OA
ENDBRANCH  31  33
BRANCH  32  38
ATOM     38  N   UNL d   1      29.915 -14.447   2.035  0.00  0.00    -0.299 NA
ATOM     39  H   UNL d   1      29.930 -15.473   2.123  0.00  0.00     0.124 HD
ATOM     40  H   UNL d   1      30.738 -14.157   1.512  0.00  0.00     0.124 HD
ENDBRANCH  32  38
ENDBRANCH   2  28
TORSDOF 10
ENDMDL
MODEL 5
REMARK VINA RESULT:    -7.513      2.883      6.320
REMARK INTER + INTRA:         -15.215
REMARK INTER:                 -10.496
REMARK INTRA:                  -4.720
REMARK CONF_INDEPENDENT:        2.983
REMARK UNBOUND:                -4.720
REMARK  10 active torsions:
REMARK  status: ('A' for Active; 'I' for Inactive)
REMARK    1  A    between atoms: C_2  and  O_3 
REMARK    2  A    between atoms: O_3  and  C_4 
REMARK    3  A    between atoms: C_9  and  N_10 
REMARK       I    between atoms: N_10  and  C_11 
REMARK    4  A    between atoms: N_10  and  C_22 
REMARK    5  A    between atoms: C_11  and  C_13 
REMARK    6  A    between atoms: C_16  and  C_17 
REMARK       I    between atoms: C_17  and  N_18 
REMARK    7  A    between atoms: C_20  and  N_21 
REMARK    8  A    between atoms: C_22  and  C_23 
REMARK    9  A    between atoms: C_22  and  C_31 
REMARK       I    between atoms: C_23  and  N_25 
REMARK   10  A    between atoms: N_25  and  C_26 
ROOT
ATOM      1  N   UNL d   1      27.343 -15.032  -0.552  0.00  0.00    -0.290 N 
ATOM      2  C   UNL d   1      28.755 -15.126  -0.819  0.00  0.00     0.269 C 
ATOM      3  O   UNL d   1      29.547 -14.227  -0.491  0.00  0.00    -0.266 OA
ENDROOT
BRANCH   1   4
ATOM      4  C   UNL d   1      26.292 -16.058  -0.781  0.00  0.00     0.072 C 
ATOM      5  C   UNL d   1      26.201 -17.041   0.227  0.00  0.00     0.033 C 
ATOM      6  C   UNL d   1      25.417 -18.185   0.163  0.00  0.00     0.002 C 
ATOM      7  C   UNL d   1      24.374 -18.199  -0.720  0.00  0.00     0.003 C 
ATOM      8  C   UNL d   1      24.287 -17.181  -1.666  0.00  0.00     0.039 C 
ATOM      9  C   UNL d   1      25.277 -16.164  -1.810  0.00  0.00     0.095 C 
BRANCH   9  10
ATOM     10  O   UNL d   1      24.776 -15.286  -2.795  0.00  0.00    -0.349 OA
BRANCH  10  11
ATOM     11  C   UNL d   1      25.530 -14.541  -3.746  0.00  0.00     0.171 C 
ATOM     12  C   UNL d   1      26.277 -15.171  -4.920  0.00  0.00     0.034 C 
ENDBRANCH  10  11
ENDBRANCH   9  10
ENDBRANCH   1   4
BRANCH   1  13
ATOM     13  C   UNL d   1      26.885 -13.757  -0.051  0.00  0.00     0.242 C 
BRANCH  13  14
ATOM     14  C   UNL d   1      27.194 -13.502   1.611  0.00  0.00     0.247 C 
ATOM     15  O   UNL d   1      26.297 -13.292   2.432  0.00  0.00    -0.271 OA
ATOM     16  N   UNL d   1      28.452 -13.672   2.174  0.00  0.00    -0.354 N 
ATOM     17  H   UNL d   1      29.151 -14.168   1.670  0.00  0.00     0.162 HD
BRANCH  16  18
ATOM     18  C   UNL d   1      28.796 -13.654   3.589  0.00  0.00     0.084 C 
ATOM     19  C   UNL d   1      28.280 -12.482   4.422  0.00  0.00     0.025 C 
ATOM     20  C   UNL d   1      28.562 -12.925   5.850  0.00  0.00     0.002 C 
ATOM     21  C   UNL d   1      28.356 -14.441   5.840  0.00  0.00     0.002 C 
ATOM     22  C   UNL d   1      28.166 -14.825   4.371  0.00  0.00     0.025 C 
ENDBRANCH  16  18
ENDBRANCH  13  14
BRANCH  13  23
ATOM     23  C   UNL d   1      27.079 -12.445  -0.771  0.00  0.00     0.085 C 
ATOM     24  C   UNL d   1      27.769 -11.294  -0.466  0.00  0.00     0.037 C 
ATOM     25  C   UNL d   1      27.755 -10.491  -1.613  0.00  0.00     0.027 C 
ATOM     26  C   UNL d   1      26.915 -11.111  -2.503  0.00  0.00     0.142 C 
ATOM     27  O   UNL d   1      26.405 -12.250  -1.961  0.00  0.00    -0.324 OA
ENDBRANCH  13  23
ENDBRANCH   1  13
BRANCH   2  28
ATOM     28  C   UNL d   1      29.336 -16.279  -1.448  0.00  0.00     0.115 C 
ATOM     29  S   UNL d   1      29.016 -16.529  -3.118  0.00  0.00     0.019 SA
ATOM     30  N   UNL d   1      30.201 -17.672  -3.353  0.00  0.00    -0.203 NA
ATOM     31  C   UNL d   1      30.774 -17.939  -2.169  0.00  0.00     0.155 C 
ATOM     32  C   UNL d   1      30.228 -17.238  -1.029  0.00  0.00     0.065 C 
BRANCH  31  33
ATOM     33  C   UNL d   1      31.958 -18.797  -2.066  0.00  0.00     0.270 C 
ATOM     34  N   UNL d   1      32.528 -19.229  -3.221  0.00  0.00    -0.365 N 
ATOM     35  H   UNL d   1      32.152 -18.971  -4.125  0.00  0.00     0.159 HD
ATOM     36  H   UNL d   1      33.291 -19.885  -3.139  0.00  0.00     0.159 HD
ATOM     37  O   UNL d   1      32.466 -19.110  -0.981  0.00  0.00    -0.266 OA
ENDBRANCH  31  33
BRANCH  32  38
ATOM     38  N   UNL d   1      30.731 -17.344   0.233  0.00  0.00    -0.299 NA
ATOM     39  H   UNL d   1      30.109 -17.006   0.981  0.00  0.00     0.124 HD
ATOM     40  H   UNL d   1      31.154 -18.218   0.535  0.00  0.00     0.124 HD
ENDBRANCH  32  38
ENDBRANCH   2  28
TORSDOF 10
ENDMDL
MODEL 6
REMARK VINA RESULT:    -6.999      3.494      7.430
REMARK INTER + INTRA:         -15.672
REMARK INTER:                  -9.982
REMARK INTRA:                  -5.689
REMARK CONF_INDEPENDENT:        2.983
REMARK UNBOUND:                -5.689
REMARK  10 active torsions:
REMARK  status: ('A' for Active; 'I' for Inactive)
REMARK    1  A    between atoms: C_2  and  O_3 
REMARK    2  A    between atoms: O_3  and  C_4 
REMARK    3  A    between atoms: C_9  and  N_10 
REMARK       I    between atoms: N_10  and  C_11 
REMARK    4  A    between atoms: N_10  and  C_22 
REMARK    5  A    between atoms: C_11  and  C_13 
REMARK    6  A    between atoms: C_16  and  C_17 
REMARK       I    between atoms: C_17  and  N_18 
REMARK    7  A    between atoms: C_20  and  N_21 
REMARK    8  A    between atoms: C_22  and  C_23 
REMARK    9  A    between atoms: C_22  and  C_31 
REMARK       I    between atoms: C_23  and  N_25 
REMARK   10  A    between atoms: N_25  and  C_26 
ROOT
ATOM      1  N   UNL d   1      28.614 -15.407  -3.757  0.00  0.00    -0.290 N 
ATOM      2  C   UNL d   1      28.780 -15.593  -5.175  0.00  0.00     0.269 C 
ATOM      3  O   UNL d   1      28.058 -15.011  -6.002  0.00  0.00    -0.266 OA
ENDROOT
BRANCH   1   4
ATOM      4  C   UNL d   1      29.457 -15.939  -2.654  0.00  0.00     0.072 C 
ATOM      5  C   UNL d   1      30.816 -15.564  -2.719  0.00  0.00     0.033 C 
ATOM      6  C   UNL d   1      31.825 -16.061  -1.906  0.00  0.00     0.002 C 
ATOM      7  C   UNL d   1      31.467 -16.640  -0.721  0.00  0.00     0.003 C 
ATOM      8  C   UNL d   1      30.121 -16.915  -0.493  0.00  0.00     0.039 C 
ATOM      9  C   UNL d   1      29.104 -16.693  -1.468  0.00  0.00     0.095 C 
BRANCH   9  10
ATOM     10  O   UNL d   1      27.887 -17.002  -0.822  0.00  0.00    -0.349 OA
BRANCH  10  11
ATOM     11  C   UNL d   1      27.593 -16.869   0.565  0.00  0.00     0.171 C 
ATOM     12  C   UNL d   1      27.780 -15.574   1.353  0.00  0.00     0.034 C 
ENDBRANCH  10  11
ENDBRANCH   9  10
ENDBRANCH   1   4
BRANCH   1  13
ATOM     13  C   UNL d   1      27.448 -14.655  -3.356  0.00  0.00     0.242 C 
BRANCH  13  14
ATOM     14  C   UNL d   1      26.031 -15.595  -3.179  0.00  0.00     0.247 C 
ATOM     15  O   UNL d   1      25.410 -16.053  -4.142  0.00  0.00    -0.271 OA
ATOM     16  N   UNL d   1      25.577 -16.040  -1.944  0.00  0.00    -0.354 N 
ATOM     17  H   UNL d   1      26.188 -16.016  -1.160  0.00  0.00     0.162 HD
BRANCH  16  18
ATOM     18  C   UNL d   1      24.496 -16.980  -1.688  0.00  0.00     0.084 C 
ATOM     19  C   UNL d   1      24.774 -18.121  -0.709  0.00  0.00     0.025 C 
ATOM     20  C   UNL d   1      23.392 -18.705  -0.461  0.00  0.00     0.002 C 
ATOM     21  C   UNL d   1      22.441 -17.507  -0.512  0.00  0.00     0.002 C 
ATOM     22  C   UNL d   1      23.289 -16.325  -0.985  0.00  0.00     0.025 C 
ENDBRANCH  16  18
ENDBRANCH  13  14
BRANCH  13  23
ATOM     23  C   UNL d   1      27.450 -13.601  -2.276  0.00  0.00     0.085 C 
ATOM     24  C   UNL d   1      27.839 -12.281  -2.246  0.00  0.00     0.037 C 
ATOM     25  C   UNL d   1      27.411 -11.755  -1.021  0.00  0.00     0.027 C 
ATOM     26  C   UNL d   1      26.936 -12.817  -0.294  0.00  0.00     0.142 C 
ATOM     27  O   UNL d   1      27.057 -13.972  -1.005  0.00  0.00    -0.324 OA
ENDBRANCH  13  23
ENDBRANCH   1  13
BRANCH   2  28
ATOM     28  C   UNL d   1      29.811 -16.432  -5.719  0.00  0.00     0.115 C 
ATOM     29  S   UNL d   1      30.031 -17.986  -5.020  0.00  0.00     0.019 SA
ATOM     30  N   UNL d   1      30.983 -18.593  -6.241  0.00  0.00    -0.203 NA
ATOM     31  C   UNL d   1      31.217 -17.610  -7.125  0.00  0.00     0.155 C 
ATOM     32  C   UNL d   1      30.651 -16.320  -6.801  0.00  0.00     0.065 C 
BRANCH  31  33
ATOM     33  C   UNL d   1      31.903 -17.867  -8.394  0.00  0.00     0.270 C 
ATOM     34  N   UNL d   1      31.924 -19.145  -8.854  0.00  0.00    -0.365 N 
ATOM     35  H   UNL d   1      31.484 -19.898  -8.341  0.00  0.00     0.159 HD
ATOM     36  H   UNL d   1      32.468 -19.325  -9.685  0.00  0.00     0.159 HD
ATOM     37  O   UNL d   1      32.427 -16.969  -9.066  0.00  0.00    -0.266 OA
ENDBRANCH  31  33
BRANCH  32  38
ATOM     38  N   UNL d   1      30.738 -15.232  -7.617  0.00  0.00    -0.299 NA
ATOM     39  H   UNL d   1      31.300 -15.370  -8.469  0.00  0.00     0.124 HD
ATOM     40  H   UNL d   1      29.896 -14.719  -7.865  0.00  0.00     0.124 HD
ENDBRANCH  32  38
ENDBRANCH   2  28
TORSDOF 10
ENDMDL
MODEL 7
REMARK VINA RESULT:    -6.773      2.842      7.345
REMARK INTER + INTRA:         -15.731
REMARK INTER:                  -9.756
REMARK INTRA:                  -5.976
REMARK CONF_INDEPENDENT:        2.983
REMARK UNBOUND:                -5.976
REMARK  10 active torsions:
REMARK  status: ('A' for Active; 'I' for Inactive)
REMARK    1  A    between atoms: C_2  and  O_3 
REMARK    2  A    between atoms: O_3  and  C_4 
REMARK    3  A    between atoms: C_9  and  N_10 
REMARK       I    between atoms: N_10  and  C_11 
REMARK    4  A    between atoms: N_10  and  C_22 
REMARK    5  A    between atoms: C_11  and  C_13 
REMARK    6  A    between atoms: C_16  and  C_17 
REMARK       I    between atoms: C_17  and  N_18 
REMARK    7  A    between atoms: C_20  and  N_21 
REMARK    8  A    between atoms: C_22  and  C_23 
REMARK    9  A    between atoms: C_22  and  C_31 
REMARK       I    between atoms: C_23  and  N_25 
REMARK   10  A    between atoms: N_25  and  C_26 
ROOT
ATOM      1  N   UNL d   1      26.902 -13.811  -1.987  0.00  0.00    -0.290 N 
ATOM      2  C   UNL d   1      26.012 -13.724  -3.115  0.00  0.00     0.269 C 
ATOM      3  O   UNL d   1      24.777 -13.752  -2.980  0.00  0.00    -0.266 OA
ENDROOT
BRANCH   1   4
ATOM      4  C   UNL d   1      28.383 -13.683  -1.971  0.00  0.00     0.072 C 
ATOM      5  C   UNL d   1      28.870 -12.585  -1.231  0.00  0.00     0.033 C 
ATOM      6  C   UNL d   1      30.191 -12.162  -1.200  0.00  0.00     0.002 C 
ATOM      7  C   UNL d   1      31.159 -13.053  -1.568  0.00  0.00     0.003 C 
ATOM      8  C   UNL d   1      30.772 -14.245  -2.174  0.00  0.00     0.039 C 
ATOM      9  C   UNL d   1      29.417 -14.550  -2.499  0.00  0.00     0.095 C 
BRANCH   9  10
ATOM     10  O   UNL d   1      29.437 -15.870  -3.001  0.00  0.00    -0.349 OA
BRANCH  10  11
ATOM     11  C   UNL d   1      29.506 -17.075  -2.246  0.00  0.00     0.171 C 
ATOM     12  C   UNL d   1      28.790 -17.285  -0.912  0.00  0.00     0.034 C 
ENDBRANCH  10  11
ENDBRANCH   9  10
ENDBRANCH   1   4
BRANCH   1  13
ATOM     13  C   UNL d   1      26.280 -14.120  -0.721  0.00  0.00     0.242 C 
BRANCH  13  14
ATOM     14  C   UNL d   1      25.574 -15.675  -0.644  0.00  0.00     0.247 C 
ATOM     15  O   UNL d   1      25.876 -16.503   0.222  0.00  0.00    -0.271 OA
ATOM     16  N   UNL d   1      24.505 -16.053  -1.445  0.00  0.00    -0.354 N 
ATOM     17  H   UNL d   1      23.978 -15.356  -1.919  0.00  0.00     0.162 HD
BRANCH  16  18
ATOM     18  C   UNL d   1      23.717 -17.274  -1.348  0.00  0.00     0.084 C 
ATOM     19  C   UNL d   1      24.391 -18.497  -0.725  0.00  0.00     0.025 C 
ATOM     20  C   UNL d   1      23.231 -19.460  -0.520  0.00  0.00     0.002 C 
ATOM     21  C   UNL d   1      22.035 -18.570  -0.177  0.00  0.00     0.002 C 
ATOM     22  C   UNL d   1      22.510 -17.132  -0.399  0.00  0.00     0.025 C 
ENDBRANCH  16  18
ENDBRANCH  13  14
BRANCH  13  23
ATOM     23  C   UNL d   1      26.899 -13.818   0.623  0.00  0.00     0.085 C 
ATOM     24  C   UNL d   1      26.650 -12.866   1.583  0.00  0.00     0.037 C 
ATOM     25  C   UNL d   1      27.407 -13.211   2.710  0.00  0.00     0.027 C 
ATOM     26  C   UNL d   1      28.208 -14.255   2.325  0.00  0.00     0.142 C 
ATOM     27  O   UNL d   1      27.990 -14.566   1.018  0.00  0.00    -0.324 OA
ENDBRANCH  13  23
ENDBRANCH   1  13
BRANCH   2  28
ATOM     28  C   UNL d   1      26.495 -13.560  -4.457  0.00  0.00     0.115 C 
ATOM     29  S   UNL d   1      26.167 -12.072  -5.252  0.00  0.00     0.019 SA
ATOM     30  N   UNL d   1      27.249 -12.296  -6.494  0.00  0.00    -0.203 NA
ATOM     31  C   UNL d   1      27.788 -13.519  -6.373  0.00  0.00     0.155 C 
ATOM     32  C   UNL d   1      27.297 -14.321  -5.275  0.00  0.00     0.065 C 
BRANCH  31  33
ATOM     33  C   UNL d   1      28.892 -13.960  -7.230  0.00  0.00     0.270 C 
ATOM     34  N   UNL d   1      29.298 -13.123  -8.220  0.00  0.00    -0.365 N 
ATOM     35  H   UNL d   1      28.856 -12.224  -8.365  0.00  0.00     0.159 HD
ATOM     36  H   UNL d   1      30.000 -13.469  -8.855  0.00  0.00     0.159 HD
ATOM     37  O   UNL d   1      29.478 -15.039  -7.066  0.00  0.00    -0.266 OA
ENDBRANCH  31  33
BRANCH  32  38
ATOM     38  N   UNL d   1      27.779 -15.558  -4.970  0.00  0.00    -0.299 NA
ATOM     39  H   UNL d   1      28.791 -15.681  -5.117  0.00  0.00     0.124 HD
ATOM     40  H   UNL d   1      27.527 -15.994  -4.085  0.00  0.00     0.124 HD
ENDBRANCH  32  38
ENDBRANCH   2  28
TORSDOF 10
ENDMDL
