MODEL 1
REMARK VINA RESULT:    -6.399      0.000      0.000
REMARK INTER + INTRA:         -10.322
REMARK INTER:                  -8.785
REMARK INTRA:                  -1.536
REMARK CONF_INDEPENDENT:        2.386
REMARK UNBOUND:                -1.536
REMARK  8 active torsions:
REMARK  status: ('A' for Active; 'I' for Inactive)
REMARK    1  A    between atoms: C_2  and  C_3 
REMARK    2  A    between atoms: C_3  and  N_4 
REMARK    3  A    between atoms: N_4  and  C_5 
REMARK    4  A    between atoms: C_5  and  N_7 
REMARK    5  A    between atoms: N_7  and  N_8 
REMARK       I    between atoms: N_8  and  C_9 
REMARK    6  A    between atoms: C_9  and  C_11 
REMARK    7  A    between atoms: C_11  and  O_12 
REMARK    8  A    between atoms: O_12  and  C_13 
ROOT
ATOM      1  N   UNL d   1      23.641 -18.028  -0.758  0.00  0.00    -0.266 N 
ATOM      2  C   UNL d   1      25.006 -17.847  -0.544  0.00  0.00     0.260 C 
ATOM      3  O   UNL d   1      25.610 -18.519   0.299  0.00  0.00    -0.269 OA
ATOM      4  H   UNL d   1      23.098 -17.501  -1.440  0.00  0.00     0.190 HD
ENDROOT
BRANCH   1   5
ATOM      5  N   UNL d   1      22.898 -19.020  -0.002  0.00  0.00    -0.274 N 
ATOM      6  H   UNL d   1      23.467 -19.644   0.567  0.00  0.00     0.189 HD
BRANCH   5   7
ATOM      7  C   UNL d   1      21.504 -19.082  -0.084  0.00  0.00     0.186 C 
ATOM      8  S   UNL d   1      20.655 -18.240  -1.270  0.00  0.00    -0.040 SA
BRANCH   7   9
ATOM      9  N   UNL d   1      20.889 -19.885   0.882  0.00  0.00    -0.363 N 
ATOM     10  H   UNL d   1      21.230 -20.824   1.039  0.00  0.00     0.162 HD
BRANCH   9  11
ATOM     11  C   UNL d   1      19.750 -19.426   1.696  0.00  0.00     0.148 C 
BRANCH  11  12
ATOM     12  C   UNL d   1      18.527 -20.295   1.596  0.00  0.00    -0.018 C 
ATOM     13  C   UNL d   1      18.392 -21.215   0.622  0.00  0.00     0.008 C 
ENDBRANCH  11  12
ENDBRANCH   9  11
ENDBRANCH   7   9
ENDBRANCH   5   7
ENDBRANCH   1   5
BRANCH   2  14
ATOM     14  C   UNL d   1      25.702 -16.748  -1.414  0.00  0.00     0.280 C 
BRANCH  14  15
ATOM     15  O   UNL d   1      24.762 -16.092  -2.283  0.00  0.00    -0.342 OA
BRANCH  15  16
ATOM     16  C   UNL d   1      25.237 -15.163  -3.176  0.00  0.00     0.070 A 
ATOM     17  C   UNL d   1      24.687 -13.893  -3.360  0.00  0.00     0.037 A 
ATOM     18  C   UNL d   1      25.284 -12.981  -4.244  0.00  0.00     0.004 A 
ATOM     19  C   UNL d   1      26.432 -13.330  -4.954  0.00  0.00     0.024 A 
ATOM     20  C   UNL d   1      26.991 -14.590  -4.761  0.00  0.00     0.036 A 
ATOM     21 CL   UNL d   1      28.404 -15.027  -5.647  0.00  0.00    -0.084 Cl
ATOM     22  C   UNL d   1      26.412 -15.496  -3.863  0.00  0.00     0.060 A 
ENDBRANCH  15  16
ENDBRANCH  14  15
ENDBRANCH   2  14
TORSDOF 8
ENDMDL
MODEL 2
REMARK VINA RESULT:    -6.371      5.271      9.015
REMARK INTER + INTRA:          -9.741
REMARK INTER:                  -8.758
REMARK INTRA:                  -0.983
REMARK CONF_INDEPENDENT:        2.386
REMARK UNBOUND:                -0.983
REMARK  8 active torsions:
REMARK  status: ('A' for Active; 'I' for Inactive)
REMARK    1  A    between atoms: C_2  and  C_3 
REMARK    2  A    between atoms: C_3  and  N_4 
REMARK    3  A    between atoms: N_4  and  C_5 
REMARK    4  A    between atoms: C_5  and  N_7 
REMARK    5  A    between atoms: N_7  and  N_8 
REMARK       I    between atoms: N_8  and  C_9 
REMARK    6  A    between atoms: C_9  and  C_11 
REMARK    7  A    between atoms: C_11  and  O_12 
REMARK    8  A    between atoms: O_12  and  C_13 
ROOT
ATOM      1  N   UNL d   1      26.009 -12.597  -3.352  0.00  0.00    -0.266 N 
ATOM      2  C   UNL d   1      25.398 -13.824  -3.604  0.00  0.00     0.260 C 
ATOM      3  O   UNL d   1      24.410 -13.900  -4.343  0.00  0.00    -0.269 OA
ATOM      4  H   UNL d   1      26.824 -12.481  -2.752  0.00  0.00     0.190 HD
ENDROOT
BRANCH   1   5
ATOM      5  N   UNL d   1      25.505 -11.381  -3.962  0.00  0.00    -0.274 N 
ATOM      6  H   UNL d   1      24.778 -11.517  -4.662  0.00  0.00     0.189 HD
BRANCH   5   7
ATOM      7  C   UNL d   1      26.016 -10.133  -3.591  0.00  0.00     0.186 C 
ATOM      8  S   UNL d   1      27.561  -9.974  -2.939  0.00  0.00    -0.040 SA
BRANCH   7   9
ATOM      9  N   UNL d   1      25.153  -9.053  -3.803  0.00  0.00    -0.363 N 
ATOM     10  H   UNL d   1      24.406  -8.877  -3.144  0.00  0.00     0.162 HD
BRANCH   9  11
ATOM     11  C   UNL d   1      25.277  -8.144  -4.956  0.00  0.00     0.148 C 
BRANCH  11  12
ATOM     12  C   UNL d   1      24.056  -8.084  -5.831  0.00  0.00    -0.018 C 
ATOM     13  C   UNL d   1      22.900  -7.547  -5.397  0.00  0.00     0.008 C 
ENDBRANCH  11  12
ENDBRANCH   9  11
ENDBRANCH   7   9
ENDBRANCH   5   7
ENDBRANCH   1   5
BRANCH   2  14
ATOM     14  C   UNL d   1      26.024 -15.068  -2.890  0.00  0.00     0.280 C 
BRANCH  14  15
ATOM     15  O   UNL d   1      25.155 -16.211  -2.965  0.00  0.00    -0.342 OA
BRANCH  15  16
ATOM     16  C   UNL d   1      24.956 -16.956  -1.828  0.00  0.00     0.070 A 
ATOM     17  C   UNL d   1      25.906 -17.124  -0.819  0.00  0.00     0.037 A 
ATOM     18  C   UNL d   1      25.589 -17.845   0.343  0.00  0.00     0.004 A 
ATOM     19  C   UNL d   1      24.323 -18.405   0.505  0.00  0.00     0.024 A 
ATOM     20  C   UNL d   1      23.369 -18.227  -0.493  0.00  0.00     0.036 A 
ATOM     21 CL   UNL d   1      21.808 -18.930  -0.298  0.00  0.00    -0.084 Cl
ATOM     22  C   UNL d   1      23.673 -17.490  -1.644  0.00  0.00     0.060 A 
ENDBRANCH  15  16
ENDBRANCH  14  15
ENDBRANCH   2  14
TORSDOF 8
ENDMDL
MODEL 3
REMARK VINA RESULT:    -6.293      1.593      1.825
REMARK INTER + INTRA:          -9.733
REMARK INTER:                  -8.680
REMARK INTRA:                  -1.054
REMARK CONF_INDEPENDENT:        2.386
REMARK UNBOUND:                -1.054
REMARK  8 active torsions:
REMARK  status: ('A' for Active; 'I' for Inactive)
REMARK    1  A    between atoms: C_2  and  C_3 
REMARK    2  A    between atoms: C_3  and  N_4 
REMARK    3  A    between atoms: N_4  and  C_5 
REMARK    4  A    between atoms: C_5  and  N_7 
REMARK    5  A    between atoms: N_7  and  N_8 
REMARK       I    between atoms: N_8  and  C_9 
REMARK    6  A    between atoms: C_9  and  C_11 
REMARK    7  A    between atoms: C_11  and  O_12 
REMARK    8  A    between atoms: O_12  and  C_13 
ROOT
ATOM      1  N   UNL d   1      23.430 -16.092  -1.380  0.00  0.00    -0.266 N 
ATOM      2  C   UNL d   1      24.769 -16.473  -1.308  0.00  0.00     0.260 C 
ATOM      3  O   UNL d   1      25.141 -17.332  -0.501  0.00  0.00    -0.269 OA
ATOM      4  H   UNL d   1      23.073 -15.391  -2.027  0.00  0.00     0.190 HD
ENDROOT
BRANCH   1   5
ATOM      5  N   UNL d   1      22.439 -16.703  -0.513  0.00  0.00    -0.274 N 
ATOM      6  H   UNL d   1      22.108 -16.112   0.247  0.00  0.00     0.189 HD
BRANCH   5   7
ATOM      7  C   UNL d   1      22.006 -18.012  -0.737  0.00  0.00     0.186 C 
ATOM      8  S   UNL d   1      23.035 -19.328  -0.523  0.00  0.00    -0.040 SA
BRANCH   7   9
ATOM      9  N   UNL d   1      20.674 -18.134  -1.147  0.00  0.00    -0.363 N 
ATOM     10  H   UNL d   1      20.236 -17.372  -1.647  0.00  0.00     0.162 HD
BRANCH   9  11
ATOM     11  C   UNL d   1      19.862 -19.334  -0.882  0.00  0.00     0.148 C 
BRANCH  11  12
ATOM     12  C   UNL d   1      19.378 -19.454   0.536  0.00  0.00    -0.018 C 
ATOM     13  C   UNL d   1      20.075 -20.132   1.467  0.00  0.00     0.008 C 
ENDBRANCH  11  12
ENDBRANCH   9  11
ENDBRANCH   7   9
ENDBRANCH   5   7
ENDBRANCH   1   5
BRANCH   2  14
ATOM     14  C   UNL d   1      25.748 -15.746  -2.288  0.00  0.00     0.280 C 
BRANCH  14  15
ATOM     15  O   UNL d   1      25.033 -14.999  -3.288  0.00  0.00    -0.342 OA
BRANCH  15  16
ATOM     16  C   UNL d   1      25.751 -14.202  -4.146  0.00  0.00     0.070 A 
ATOM     17  C   UNL d   1      25.533 -12.835  -4.323  0.00  0.00     0.037 A 
ATOM     18  C   UNL d   1      26.365 -12.085  -5.169  0.00  0.00     0.004 A 
ATOM     19  C   UNL d   1      27.417 -12.695  -5.848  0.00  0.00     0.024 A 
ATOM     20  C   UNL d   1      27.647 -14.056  -5.663  0.00  0.00     0.036 A 
ATOM     21 CL   UNL d   1      28.942 -14.812  -6.513  0.00  0.00    -0.084 Cl
ATOM     22  C   UNL d   1      26.834 -14.804  -4.803  0.00  0.00     0.060 A 
ENDBRANCH  15  16
ENDBRANCH  14  15
ENDBRANCH   2  14
TORSDOF 8
ENDMDL
MODEL 4
REMARK VINA RESULT:    -6.242      1.448      1.630
REMARK INTER + INTRA:         -10.193
REMARK INTER:                  -8.629
REMARK INTRA:                  -1.564
REMARK CONF_INDEPENDENT:        2.386
REMARK UNBOUND:                -1.564
REMARK  8 active torsions:
REMARK  status: ('A' for Active; 'I' for Inactive)
REMARK    1  A    between atoms: C_2  and  C_3 
REMARK    2  A    between atoms: C_3  and  N_4 
REMARK    3  A    between atoms: N_4  and  C_5 
REMARK    4  A    between atoms: C_5  and  N_7 
REMARK    5  A    between atoms: N_7  and  N_8 
REMARK       I    between atoms: N_8  and  C_9 
REMARK    6  A    between atoms: C_9  and  C_11 
REMARK    7  A    between atoms: C_11  and  O_12 
REMARK    8  A    between atoms: O_12  and  C_13 
ROOT
ATOM      1  N   UNL d   1      25.039 -17.713  -0.478  0.00  0.00    -0.266 N 
ATOM      2  C   UNL d   1      26.338 -17.941  -0.028  0.00  0.00     0.260 C 
ATOM      3  O   UNL d   1      26.612 -18.951   0.630  0.00  0.00    -0.269 OA
ATOM      4  H   UNL d   1      24.761 -16.898  -1.023  0.00  0.00     0.190 HD
ENDROOT
BRANCH   1   5
ATOM      5  N   UNL d   1      23.979 -18.661  -0.193  0.00  0.00    -0.274 N 
ATOM      6  H   UNL d   1      24.292 -19.593   0.074  0.00  0.00     0.189 HD
BRANCH   5   7
ATOM      7  C   UNL d   1      22.637 -18.285  -0.297  0.00  0.00     0.186 C 
ATOM      8  S   UNL d   1      22.193 -16.683  -0.571  0.00  0.00    -0.040 SA
BRANCH   7   9
ATOM      9  N   UNL d   1      21.716 -19.327  -0.156  0.00  0.00    -0.363 N 
ATOM     10  H   UNL d   1      21.917 -20.086   0.480  0.00  0.00     0.162 HD
BRANCH   9  11
ATOM     11  C   UNL d   1      20.444 -19.377  -0.899  0.00  0.00     0.148 C 
BRANCH  11  12
ATOM     12  C   UNL d   1      19.242 -19.683  -0.050  0.00  0.00    -0.018 C 
ATOM     13  C   UNL d   1      19.132 -20.841   0.629  0.00  0.00     0.008 C 
ENDBRANCH  11  12
ENDBRANCH   9  11
ENDBRANCH   7   9
ENDBRANCH   5   7
ENDBRANCH   1   5
BRANCH   2  14
ATOM     14  C   UNL d   1      27.397 -16.849  -0.392  0.00  0.00     0.280 C 
BRANCH  14  15
ATOM     15  O   UNL d   1      26.774 -15.581  -0.663  0.00  0.00    -0.342 OA
BRANCH  15  16
ATOM     16  C   UNL d   1      26.458 -15.274  -1.963  0.00  0.00     0.070 A 
ATOM     17  C   UNL d   1      25.216 -14.792  -2.381  0.00  0.00     0.037 A 
ATOM     18  C   UNL d   1      25.005 -14.435  -3.722  0.00  0.00     0.004 A 
ATOM     19  C   UNL d   1      26.031 -14.560  -4.657  0.00  0.00     0.024 A 
ATOM     20  C   UNL d   1      27.275 -15.026  -4.241  0.00  0.00     0.036 A 
ATOM     21 CL   UNL d   1      28.540 -15.191  -5.400  0.00  0.00    -0.084 Cl
ATOM     22  C   UNL d   1      27.497 -15.362  -2.900  0.00  0.00     0.060 A 
ENDBRANCH  15  16
ENDBRANCH  14  15
ENDBRANCH   2  14
TORSDOF 8
ENDMDL
MODEL 5
REMARK VINA RESULT:    -6.124      1.802      2.278
REMARK INTER + INTRA:         -10.169
REMARK INTER:                  -8.510
REMARK INTRA:                  -1.659
REMARK CONF_INDEPENDENT:        2.386
REMARK UNBOUND:                -1.659
REMARK  8 active torsions:
REMARK  status: ('A' for Active; 'I' for Inactive)
REMARK    1  A    between atoms: C_2  and  C_3 
REMARK    2  A    between atoms: C_3  and  N_4 
REMARK    3  A    between atoms: N_4  and  C_5 
REMARK    4  A    between atoms: C_5  and  N_7 
REMARK    5  A    between atoms: N_7  and  N_8 
REMARK       I    between atoms: N_8  and  C_9 
REMARK    6  A    between atoms: C_9  and  C_11 
REMARK    7  A    between atoms: C_11  and  O_12 
REMARK    8  A    between atoms: O_12  and  C_13 
ROOT
ATOM      1  N   UNL d   1      22.418 -17.469  -0.616  0.00  0.00    -0.266 N 
ATOM      2  C   UNL d   1      23.456 -18.398  -0.637  0.00  0.00     0.260 C 
ATOM      3  O   UNL d   1      23.258 -19.561  -1.003  0.00  0.00    -0.269 OA
ATOM      4  H   UNL d   1      22.529 -16.500  -0.323  0.00  0.00     0.190 HD
ENDROOT
BRANCH   1   5
ATOM      5  N   UNL d   1      21.080 -17.844  -1.034  0.00  0.00    -0.274 N 
ATOM      6  H   UNL d   1      20.654 -17.227  -1.724  0.00  0.00     0.189 HD
BRANCH   5   7
ATOM      7  C   UNL d   1      20.455 -18.973  -0.499  0.00  0.00     0.186 C 
ATOM      8  S   UNL d   1      19.145 -19.700  -1.268  0.00  0.00    -0.040 SA
BRANCH   7   9
ATOM      9  N   UNL d   1      20.997 -19.437   0.704  0.00  0.00    -0.363 N 
ATOM     10  H   UNL d   1      21.921 -19.848   0.707  0.00  0.00     0.162 HD
BRANCH   9  11
ATOM     11  C   UNL d   1      20.280 -19.356   1.989  0.00  0.00     0.148 C 
BRANCH  11  12
ATOM     12  C   UNL d   1      18.932 -20.021   1.988  0.00  0.00    -0.018 C 
ATOM     13  C   UNL d   1      18.725 -21.200   1.371  0.00  0.00     0.008 C 
ENDBRANCH  11  12
ENDBRANCH   9  11
ENDBRANCH   7   9
ENDBRANCH   5   7
ENDBRANCH   1   5
BRANCH   2  14
ATOM     14  C   UNL d   1      24.855 -17.883  -0.160  0.00  0.00     0.280 C 
BRANCH  14  15
ATOM     15  O   UNL d   1      24.861 -16.454   0.004  0.00  0.00    -0.342 OA
BRANCH  15  16
ATOM     16  C   UNL d   1      25.709 -15.710  -0.780  0.00  0.00     0.070 A 
ATOM     17  C   UNL d   1      26.935 -15.200  -0.352  0.00  0.00     0.037 A 
ATOM     18  C   UNL d   1      27.770 -14.511  -1.246  0.00  0.00     0.004 A 
ATOM     19  C   UNL d   1      27.385 -14.324  -2.572  0.00  0.00     0.024 A 
ATOM     20  C   UNL d   1      26.170 -14.844  -3.006  0.00  0.00     0.036 A 
ATOM     21 CL   UNL d   1      25.689 -14.602  -4.644  0.00  0.00    -0.084 Cl
ATOM     22  C   UNL d   1      25.343 -15.551  -2.124  0.00  0.00     0.060 A 
ENDBRANCH  15  16
ENDBRANCH  14  15
ENDBRANCH   2  14
TORSDOF 8
ENDMDL
MODEL 6
REMARK VINA RESULT:    -5.946      4.025      4.666
REMARK INTER + INTRA:          -9.850
REMARK INTER:                  -8.332
REMARK INTRA:                  -1.518
REMARK CONF_INDEPENDENT:        2.386
REMARK UNBOUND:                -1.518
REMARK  8 active torsions:
REMARK  status: ('A' for Active; 'I' for Inactive)
REMARK    1  A    between atoms: C_2  and  C_3 
REMARK    2  A    between atoms: C_3  and  N_4 
REMARK    3  A    between atoms: N_4  and  C_5 
REMARK    4  A    between atoms: C_5  and  N_7 
REMARK    5  A    between atoms: N_7  and  N_8 
REMARK       I    between atoms: N_8  and  C_9 
REMARK    6  A    between atoms: C_9  and  C_11 
REMARK    7  A    between atoms: C_11  and  O_12 
REMARK    8  A    between atoms: O_12  and  C_13 
ROOT
ATOM      1  N   UNL d   1      25.411 -17.521  -0.209  0.00  0.00    -0.266 N 
ATOM      2  C   UNL d   1      26.685 -17.835   0.261  0.00  0.00     0.260 C 
ATOM      3  O   UNL d   1      26.929 -18.950   0.733  0.00  0.00    -0.269 OA
ATOM      4  H   UNL d   1      25.158 -16.618  -0.607  0.00  0.00     0.190 HD
ENDROOT
BRANCH   1   5
ATOM      5  N   UNL d   1      24.343 -18.503  -0.165  0.00  0.00    -0.274 N 
ATOM      6  H   UNL d   1      24.648 -19.468  -0.052  0.00  0.00     0.189 HD
BRANCH   5   7
ATOM      7  C   UNL d   1      23.007 -18.109  -0.280  0.00  0.00     0.186 C 
ATOM      8  S   UNL d   1      22.584 -16.497  -0.519  0.00  0.00    -0.040 SA
BRANCH   7   9
ATOM      9  N   UNL d   1      22.073 -19.145  -0.181  0.00  0.00    -0.363 N 
ATOM     10  H   UNL d   1      22.295 -19.964   0.369  0.00  0.00     0.162 HD
BRANCH   9  11
ATOM     11  C   UNL d   1      20.760 -19.106  -0.849  0.00  0.00     0.148 C 
BRANCH  11  12
ATOM     12  C   UNL d   1      19.593 -19.356   0.065  0.00  0.00    -0.018 C 
ATOM     13  C   UNL d   1      19.088 -20.591   0.244  0.00  0.00     0.008 C 
ENDBRANCH  11  12
ENDBRANCH   9  11
ENDBRANCH   7   9
ENDBRANCH   5   7
ENDBRANCH   1   5
BRANCH   2  14
ATOM     14  C   UNL d   1      27.755 -16.697   0.166  0.00  0.00     0.280 C 
BRANCH  14  15
ATOM     15  O   UNL d   1      27.145 -15.419  -0.081  0.00  0.00    -0.342 OA
BRANCH  15  16
ATOM     16  C   UNL d   1      27.218 -14.459   0.898  0.00  0.00     0.070 A 
ATOM     17  C   UNL d   1      26.685 -13.174   0.786  0.00  0.00     0.037 A 
ATOM     18  C   UNL d   1      26.744 -12.282   1.867  0.00  0.00     0.004 A 
ATOM     19  C   UNL d   1      27.337 -12.665   3.069  0.00  0.00     0.024 A 
ATOM     20  C   UNL d   1      27.855 -13.951   3.190  0.00  0.00     0.036 A 
ATOM     21 CL   UNL d   1      28.599 -14.421   4.672  0.00  0.00    -0.084 Cl
ATOM     22  C   UNL d   1      27.780 -14.852   2.121  0.00  0.00     0.060 A 
ENDBRANCH  15  16
ENDBRANCH  14  15
ENDBRANCH   2  14
TORSDOF 8
ENDMDL
MODEL 7
REMARK VINA RESULT:    -5.734      5.148      9.008
REMARK INTER + INTRA:          -9.610
REMARK INTER:                  -8.121
REMARK INTRA:                  -1.490
REMARK CONF_INDEPENDENT:        2.386
REMARK UNBOUND:                -1.490
REMARK  8 active torsions:
REMARK  status: ('A' for Active; 'I' for Inactive)
REMARK    1  A    between atoms: C_2  and  C_3 
REMARK    2  A    between atoms: C_3  and  N_4 
REMARK    3  A    between atoms: N_4  and  C_5 
REMARK    4  A    between atoms: C_5  and  N_7 
REMARK    5  A    between atoms: N_7  and  N_8 
REMARK       I    between atoms: N_8  and  C_9 
REMARK    6  A    between atoms: C_9  and  C_11 
REMARK    7  A    between atoms: C_11  and  O_12 
REMARK    8  A    between atoms: O_12  and  C_13 
ROOT
ATOM      1  N   UNL d   1      26.908 -14.926  -4.280  0.00  0.00    -0.266 N 
ATOM      2  C   UNL d   1      25.663 -14.481  -3.840  0.00  0.00     0.260 C 
ATOM      3  O   UNL d   1      24.760 -14.229  -4.645  0.00  0.00    -0.269 OA
ATOM      4  H   UNL d   1      27.684 -15.147  -3.658  0.00  0.00     0.190 HD
ENDROOT
BRANCH   1   5
ATOM      5  N   UNL d   1      27.170 -15.113  -5.695  0.00  0.00    -0.274 N 
ATOM      6  H   UNL d   1      26.346 -15.283  -6.268  0.00  0.00     0.189 HD
BRANCH   5   7
ATOM      7  C   UNL d   1      28.476 -15.063  -6.191  0.00  0.00     0.186 C 
ATOM      8  S   UNL d   1      29.710 -15.987  -5.512  0.00  0.00    -0.040 SA
BRANCH   7   9
ATOM      9  N   UNL d   1      28.666 -14.199  -7.273  0.00  0.00    -0.363 N 
ATOM     10  H   UNL d   1      28.905 -14.580  -8.179  0.00  0.00     0.162 HD
BRANCH   9  11
ATOM     11  C   UNL d   1      28.536 -12.735  -7.161  0.00  0.00     0.148 C 
BRANCH  11  12
ATOM     12  C   UNL d   1      28.579 -12.007  -8.476  0.00  0.00    -0.018 C 
ATOM     13  C   UNL d   1      28.149 -12.580  -9.616  0.00  0.00     0.008 C 
ENDBRANCH  11  12
ENDBRANCH   9  11
ENDBRANCH   7   9
ENDBRANCH   5   7
ENDBRANCH   1   5
BRANCH   2  14
ATOM     14  C   UNL d   1      25.495 -14.313  -2.293  0.00  0.00     0.280 C 
BRANCH  14  15
ATOM     15  O   UNL d   1      26.453 -15.107  -1.571  0.00  0.00    -0.342 OA
BRANCH  15  16
ATOM     16  C   UNL d   1      26.025 -16.274  -0.988  0.00  0.00     0.070 A 
ATOM     17  C   UNL d   1      26.806 -17.069  -0.147  0.00  0.00     0.037 A 
ATOM     18  C   UNL d   1      26.262 -18.210   0.462  0.00  0.00     0.004 A 
ATOM     19  C   UNL d   1      24.934 -18.568   0.235  0.00  0.00     0.024 A 
ATOM     20  C   UNL d   1      24.148 -17.769  -0.591  0.00  0.00     0.036 A 
ATOM     21 CL   UNL d   1      22.509 -18.219  -0.882  0.00  0.00    -0.084 Cl
ATOM     22  C   UNL d   1      24.680 -16.618  -1.184  0.00  0.00     0.060 A 
ENDBRANCH  15  16
ENDBRANCH  14  15
ENDBRANCH   2  14
TORSDOF 8
ENDMDL
MODEL 8
REMARK VINA RESULT:    -5.390      2.928      4.394
REMARK INTER + INTRA:          -9.584
REMARK INTER:                  -7.777
REMARK INTRA:                  -1.808
REMARK CONF_INDEPENDENT:        2.386
REMARK UNBOUND:                -1.808
REMARK  8 active torsions:
REMARK  status: ('A' for Active; 'I' for Inactive)
REMARK    1  A    between atoms: C_2  and  C_3 
REMARK    2  A    between atoms: C_3  and  N_4 
REMARK    3  A    between atoms: N_4  and  C_5 
REMARK    4  A    between atoms: C_5  and  N_7 
REMARK    5  A    between atoms: N_7  and  N_8 
REMARK       I    between atoms: N_8  and  C_9 
REMARK    6  A    between atoms: C_9  and  C_11 
REMARK    7  A    between atoms: C_11  and  O_12 
REMARK    8  A    between atoms: O_12  and  C_13 
ROOT
ATOM      1  N   UNL d   1      26.316 -15.674  -2.660  0.00  0.00    -0.266 N 
ATOM      2  C   UNL d   1      25.496 -14.964  -3.535  0.00  0.00     0.260 C 
ATOM      3  O   UNL d   1      24.443 -14.451  -3.142  0.00  0.00    -0.269 OA
ATOM      4  H   UNL d   1      27.193 -16.114  -2.933  0.00  0.00     0.190 HD
ENDROOT
BRANCH   1   5
ATOM      5  N   UNL d   1      25.956 -15.819  -1.262  0.00  0.00    -0.274 N 
ATOM      6  H   UNL d   1      26.396 -15.152  -0.630  0.00  0.00     0.189 HD
BRANCH   5   7
ATOM      7  C   UNL d   1      25.071 -16.821  -0.853  0.00  0.00     0.186 C 
ATOM      8  S   UNL d   1      25.600 -18.151   0.035  0.00  0.00    -0.040 SA
BRANCH   7   9
ATOM      9  N   UNL d   1      23.740 -16.629  -1.236  0.00  0.00    -0.363 N 
ATOM     10  H   UNL d   1      23.535 -16.090  -2.067  0.00  0.00     0.162 HD
BRANCH   9  11
ATOM     11  C   UNL d   1      22.602 -17.179  -0.479  0.00  0.00     0.148 C 
BRANCH  11  12
ATOM     12  C   UNL d   1      22.187 -18.561  -0.902  0.00  0.00    -0.018 C 
ATOM     13  C   UNL d   1      20.932 -19.010  -0.716  0.00  0.00     0.008 C 
ENDBRANCH  11  12
ENDBRANCH   9  11
ENDBRANCH   7   9
ENDBRANCH   5   7
ENDBRANCH   1   5
BRANCH   2  14
ATOM     14  C   UNL d   1      25.984 -14.876  -5.020  0.00  0.00     0.280 C 
BRANCH  14  15
ATOM     15  O   UNL d   1      27.227 -15.573  -5.208  0.00  0.00    -0.342 OA
BRANCH  15  16
ATOM     16  C   UNL d   1      28.221 -14.954  -5.925  0.00  0.00     0.070 A 
ATOM     17  C   UNL d   1      28.194 -13.615  -6.319  0.00  0.00     0.037 A 
ATOM     18  C   UNL d   1      29.289 -13.047  -6.988  0.00  0.00     0.004 A 
ATOM     19  C   UNL d   1      30.419 -13.812  -7.271  0.00  0.00     0.024 A 
ATOM     20  C   UNL d   1      30.457 -15.143  -6.865  0.00  0.00     0.036 A 
ATOM     21 CL   UNL d   1      31.850 -16.092  -7.226  0.00  0.00    -0.084 Cl
ATOM     22  C   UNL d   1      29.375 -15.709  -6.179  0.00  0.00     0.060 A 
ENDBRANCH  15  16
ENDBRANCH  14  15
ENDBRANCH   2  14
TORSDOF 8
ENDMDL
MODEL 9
REMARK VINA RESULT:    -5.143      5.232      8.353
REMARK INTER + INTRA:          -9.570
REMARK INTER:                  -7.529
REMARK INTRA:                  -2.040
REMARK CONF_INDEPENDENT:        2.386
REMARK UNBOUND:                -2.040
REMARK  8 active torsions:
REMARK  status: ('A' for Active; 'I' for Inactive)
REMARK    1  A    between atoms: C_2  and  C_3 
REMARK    2  A    between atoms: C_3  and  N_4 
REMARK    3  A    between atoms: N_4  and  C_5 
REMARK    4  A    between atoms: C_5  and  N_7 
REMARK    5  A    between atoms: N_7  and  N_8 
REMARK       I    between atoms: N_8  and  C_9 
REMARK    6  A    between atoms: C_9  and  C_11 
REMARK    7  A    between atoms: C_11  and  O_12 
REMARK    8  A    between atoms: O_12  and  C_13 
ROOT
ATOM      1  N   UNL d   1      28.005 -15.063  -3.564  0.00  0.00    -0.266 N 
ATOM      2  C   UNL d   1      26.997 -15.201  -4.517  0.00  0.00     0.260 C 
ATOM      3  O   UNL d   1      27.269 -15.476  -5.690  0.00  0.00    -0.269 OA
ATOM      4  H   UNL d   1      27.834 -14.838  -2.585  0.00  0.00     0.190 HD
ENDROOT
BRANCH   1   5
ATOM      5  N   UNL d   1      29.397 -15.250  -3.926  0.00  0.00    -0.274 N 
ATOM      6  H   UNL d   1      29.947 -14.395  -3.987  0.00  0.00     0.189 HD
BRANCH   5   7
ATOM      7  C   UNL d   1      29.905 -16.529  -4.172  0.00  0.00     0.186 C 
ATOM      8  S   UNL d   1      30.588 -17.454  -2.942  0.00  0.00    -0.040 SA
BRANCH   7   9
ATOM      9  N   UNL d   1      29.800 -16.963  -5.497  0.00  0.00    -0.363 N 
ATOM     10  H   UNL d   1      28.962 -16.757  -6.023  0.00  0.00     0.162 HD
BRANCH   9  11
ATOM     11  C   UNL d   1      30.866 -17.720  -6.177  0.00  0.00     0.148 C 
BRANCH  11  12
ATOM     12  C   UNL d   1      30.497 -19.135  -6.523  0.00  0.00    -0.018 C 
ATOM     13  C   UNL d   1      30.406 -20.093  -5.581  0.00  0.00     0.008 C 
ENDBRANCH  11  12
ENDBRANCH   9  11
ENDBRANCH   7   9
ENDBRANCH   5   7
ENDBRANCH   1   5
BRANCH   2  14
ATOM     14  C   UNL d   1      25.533 -14.973  -4.013  0.00  0.00     0.280 C 
BRANCH  14  15
ATOM     15  O   UNL d   1      25.486 -14.825  -2.583  0.00  0.00    -0.342 OA
BRANCH  15  16
ATOM     16  C   UNL d   1      25.400 -15.957  -1.811  0.00  0.00     0.070 A 
ATOM     17  C   UNL d   1      26.485 -16.566  -1.179  0.00  0.00     0.037 A 
ATOM     18  C   UNL d   1      26.291 -17.681  -0.349  0.00  0.00     0.004 A 
ATOM     19  C   UNL d   1      25.012 -18.198  -0.146  0.00  0.00     0.024 A 
ATOM     20  C   UNL d   1      23.926 -17.584  -0.762  0.00  0.00     0.036 A 
ATOM     21 CL   UNL d   1      22.347 -18.230  -0.520  0.00  0.00    -0.084 Cl
ATOM     22  C   UNL d   1      24.112 -16.458  -1.574  0.00  0.00     0.060 A 
ENDBRANCH  15  16
ENDBRANCH  14  15
ENDBRANCH   2  14
TORSDOF 8
ENDMDL
