MODEL 1
REMARK VINA RESULT:    -8.015      0.000      0.000
REMARK INTER + INTRA:         -11.330
REMARK INTER:                  -9.506
REMARK INTRA:                  -1.823
REMARK CONF_INDEPENDENT:        1.492
REMARK UNBOUND:                -1.823
REMARK  5 active torsions:
REMARK  status: ('A' for Active; 'I' for Inactive)
REMARK    1  A    between atoms: C_2  and  N_4 
REMARK       I    between atoms: N_4  and  C_5 
REMARK       I    between atoms: C_5  and  N_7 
REMARK    2  A    between atoms: N_7  and  N_8 
REMARK       I    between atoms: N_8  and  C_9 
REMARK    3  A    between atoms: C_11  and  C_9 
REMARK    4  A    between atoms: C_11  and  O_13 
REMARK    5  A    between atoms: O_13  and  C_14 
ROOT
ATOM      1  N   UNL d   1      23.532 -17.651  -0.785  0.00  0.00    -0.264 N 
ATOM      2  C   UNL d   1      24.912 -17.565  -0.713  0.00  0.00     0.265 C 
ATOM      3  O   UNL d   1      25.565 -18.233   0.094  0.00  0.00    -0.269 OA
ATOM      4  H   UNL d   1      22.972 -17.158  -1.482  0.00  0.00     0.190 HD
ENDROOT
BRANCH   2   5
ATOM      5  C   UNL d   1      25.606 -16.657  -1.774  0.00  0.00     0.218 C 
ATOM      6  C   UNL d   1      26.529 -15.686  -1.028  0.00  0.00     0.050 C 
BRANCH   5   7
ATOM      7  O   UNL d   1      24.778 -15.886  -2.660  0.00  0.00    -0.337 OA
BRANCH   7   8
ATOM      8  C   UNL d   1      25.405 -14.910  -3.395  0.00  0.00     0.071 A 
ATOM      9  C   UNL d   1      25.179 -13.545  -3.206  0.00  0.00     0.037 A 
ATOM     10  C   UNL d   1      25.876 -12.577  -3.923  0.00  0.00     0.004 A 
ATOM     11  C   UNL d   1      26.845 -12.963  -4.833  0.00  0.00     0.024 A 
ATOM     12  C   UNL d   1      27.108 -14.320  -5.016  0.00  0.00     0.036 A 
ATOM     13 CL   UNL d   1      28.322 -14.782  -6.147  0.00  0.00    -0.084 Cl
ATOM     14  C   UNL d   1      26.402 -15.296  -4.296  0.00  0.00     0.060 A 
ENDBRANCH   7   8
ENDBRANCH   5   7
ENDBRANCH   2   5
BRANCH   1  15
ATOM     15  N   UNL d   1      22.832 -18.600   0.018  0.00  0.00    -0.249 N 
ATOM     16  C   UNL d   1      21.458 -18.666  -0.092  0.00  0.00     0.335 C 
ATOM     17  N   UNL d   1      20.839 -19.537   0.782  0.00  0.00    -0.338 N 
ATOM     18  O   UNL d   1      20.847 -17.959  -0.898  0.00  0.00    -0.246 OA
ATOM     19  H   UNL d   1      21.405 -20.129   1.372  0.00  0.00     0.164 HD
ATOM     20  H   UNL d   1      23.393 -19.192   0.622  0.00  0.00     0.192 HD
BRANCH  17  21
ATOM     21  C   UNL d   1      19.374 -19.685   0.834  0.00  0.00     0.078 C 
ATOM     22  C   UNL d   1      18.765 -20.074  -0.520  0.00  0.00     0.032 C 
ATOM     23  C   UNL d   1      18.956 -20.740   1.862  0.00  0.00     0.032 C 
ENDBRANCH  17  21
ENDBRANCH   1  15
TORSDOF 5
ENDMDL
MODEL 2
REMARK VINA RESULT:    -7.938      1.170      1.578
REMARK INTER + INTRA:         -11.233
REMARK INTER:                  -9.429
REMARK INTRA:                  -1.804
REMARK CONF_INDEPENDENT:        1.492
REMARK UNBOUND:                -1.804
REMARK  5 active torsions:
REMARK  status: ('A' for Active; 'I' for Inactive)
REMARK    1  A    between atoms: C_2  and  N_4 
REMARK       I    between atoms: N_4  and  C_5 
REMARK       I    between atoms: C_5  and  N_7 
REMARK    2  A    between atoms: N_7  and  N_8 
REMARK       I    between atoms: N_8  and  C_9 
REMARK    3  A    between atoms: C_11  and  C_9 
REMARK    4  A    between atoms: C_11  and  O_13 
REMARK    5  A    between atoms: O_13  and  C_14 
ROOT
ATOM      1  N   UNL d   1      23.575 -17.724  -0.772  0.00  0.00    -0.264 N 
ATOM      2  C   UNL d   1      24.951 -17.621  -0.652  0.00  0.00     0.265 C 
ATOM      3  O   UNL d   1      25.583 -18.269   0.186  0.00  0.00    -0.269 OA
ATOM      4  H   UNL d   1      23.036 -17.248  -1.496  0.00  0.00     0.190 HD
ENDROOT
BRANCH   2   5
ATOM      5  C   UNL d   1      25.672 -16.718  -1.700  0.00  0.00     0.218 C 
ATOM      6  C   UNL d   1      26.614 -15.778  -0.940  0.00  0.00     0.050 C 
BRANCH   5   7
ATOM      7  O   UNL d   1      24.867 -15.918  -2.582  0.00  0.00    -0.337 OA
BRANCH   7   8
ATOM      8  C   UNL d   1      25.533 -15.016  -3.376  0.00  0.00     0.071 A 
ATOM      9  C   UNL d   1      26.228 -15.379  -4.531  0.00  0.00     0.037 A 
ATOM     10  C   UNL d   1      26.840 -14.434  -5.349  0.00  0.00     0.004 A 
ATOM     11  C   UNL d   1      26.740 -13.089  -5.038  0.00  0.00     0.024 A 
ATOM     12  C   UNL d   1      26.025 -12.702  -3.904  0.00  0.00     0.036 A 
ATOM     13 CL   UNL d   1      25.905 -11.024  -3.536  0.00  0.00    -0.084 Cl
ATOM     14  C   UNL d   1      25.412 -13.656  -3.077  0.00  0.00     0.060 A 
ENDBRANCH   7   8
ENDBRANCH   5   7
ENDBRANCH   2   5
BRANCH   1  15
ATOM     15  N   UNL d   1      22.858 -18.670   0.018  0.00  0.00    -0.249 N 
ATOM     16  C   UNL d   1      21.484 -18.713  -0.095  0.00  0.00     0.335 C 
ATOM     17  N   UNL d   1      20.849 -19.583   0.768  0.00  0.00    -0.338 N 
ATOM     18  O   UNL d   1      20.886 -17.987  -0.894  0.00  0.00    -0.246 OA
ATOM     19  H   UNL d   1      21.404 -20.191   1.352  0.00  0.00     0.164 HD
ATOM     20  H   UNL d   1      23.408 -19.279   0.617  0.00  0.00     0.192 HD
BRANCH  17  21
ATOM     21  C   UNL d   1      19.381 -19.708   0.816  0.00  0.00     0.078 C 
ATOM     22  C   UNL d   1      18.770 -20.075  -0.544  0.00  0.00     0.032 C 
ATOM     23  C   UNL d   1      18.944 -20.766   1.833  0.00  0.00     0.032 C 
ENDBRANCH  17  21
ENDBRANCH   1  15
TORSDOF 5
ENDMDL
MODEL 3
REMARK VINA RESULT:    -7.303      1.158      1.261
REMARK INTER + INTRA:         -10.698
REMARK INTER:                  -8.794
REMARK INTRA:                  -1.904
REMARK CONF_INDEPENDENT:        1.492
REMARK UNBOUND:                -1.904
REMARK  5 active torsions:
REMARK  status: ('A' for Active; 'I' for Inactive)
REMARK    1  A    between atoms: C_2  and  N_4 
REMARK       I    between atoms: N_4  and  C_5 
REMARK       I    between atoms: C_5  and  N_7 
REMARK    2  A    between atoms: N_7  and  N_8 
REMARK       I    between atoms: N_8  and  C_9 
REMARK    3  A    between atoms: C_11  and  C_9 
REMARK    4  A    between atoms: C_11  and  O_13 
REMARK    5  A    between atoms: O_13  and  C_14 
ROOT
ATOM      1  N   UNL d   1      24.405 -17.531  -0.232  0.00  0.00    -0.264 N 
ATOM      2  C   UNL d   1      25.765 -17.714  -0.044  0.00  0.00     0.265 C 
ATOM      3  O   UNL d   1      26.219 -18.741   0.468  0.00  0.00    -0.269 OA
ATOM      4  H   UNL d   1      24.007 -16.721  -0.708  0.00  0.00     0.190 HD
ENDROOT
BRANCH   2   5
ATOM      5  C   UNL d   1      26.698 -16.599  -0.605  0.00  0.00     0.218 C 
ATOM      6  C   UNL d   1      27.787 -16.329   0.440  0.00  0.00     0.050 C 
BRANCH   5   7
ATOM      7  O   UNL d   1      26.114 -15.337  -0.969  0.00  0.00    -0.337 OA
BRANCH   7   8
ATOM      8  C   UNL d   1      26.101 -15.027  -2.307  0.00  0.00     0.071 A 
ATOM      9  C   UNL d   1      25.024 -14.400  -2.938  0.00  0.00     0.037 A 
ATOM     10  C   UNL d   1      25.066 -14.041  -4.282  0.00  0.00     0.004 A 
ATOM     11  C   UNL d   1      26.212 -14.279  -5.021  0.00  0.00     0.024 A 
ATOM     12  C   UNL d   1      27.310 -14.877  -4.402  0.00  0.00     0.036 A 
ATOM     13 CL   UNL d   1      28.731 -15.158  -5.334  0.00  0.00    -0.084 Cl
ATOM     14  C   UNL d   1      27.266 -15.242  -3.048  0.00  0.00     0.060 A 
ENDBRANCH   7   8
ENDBRANCH   5   7
ENDBRANCH   2   5
BRANCH   1  15
ATOM     15  N   UNL d   1      23.493 -18.583   0.077  0.00  0.00    -0.249 N 
ATOM     16  C   UNL d   1      22.147 -18.371  -0.145  0.00  0.00     0.335 C 
ATOM     17  N   UNL d   1      21.316 -19.393   0.266  0.00  0.00    -0.338 N 
ATOM     18  O   UNL d   1      21.740 -17.318  -0.643  0.00  0.00    -0.246 OA
ATOM     19  H   UNL d   1      21.721 -20.252   0.609  0.00  0.00     0.164 HD
ATOM     20  H   UNL d   1      23.891 -19.447   0.433  0.00  0.00     0.192 HD
BRANCH  17  21
ATOM     21  C   UNL d   1      19.849 -19.302   0.154  0.00  0.00     0.078 C 
ATOM     22  C   UNL d   1      19.332 -19.691  -1.238  0.00  0.00     0.032 C 
ATOM     23  C   UNL d   1      19.154 -20.198   1.184  0.00  0.00     0.032 C 
ENDBRANCH  17  21
ENDBRANCH   1  15
TORSDOF 5
ENDMDL
MODEL 4
REMARK VINA RESULT:    -7.063      3.162      4.231
REMARK INTER + INTRA:          -9.945
REMARK INTER:                  -8.554
REMARK INTRA:                  -1.391
REMARK CONF_INDEPENDENT:        1.492
REMARK UNBOUND:                -1.391
REMARK  5 active torsions:
REMARK  status: ('A' for Active; 'I' for Inactive)
REMARK    1  A    between atoms: C_2  and  N_4 
REMARK       I    between atoms: N_4  and  C_5 
REMARK       I    between atoms: C_5  and  N_7 
REMARK    2  A    between atoms: N_7  and  N_8 
REMARK       I    between atoms: N_8  and  C_9 
REMARK    3  A    between atoms: C_11  and  C_9 
REMARK    4  A    between atoms: C_11  and  O_13 
REMARK    5  A    between atoms: O_13  and  C_14 
ROOT
ATOM      1  N   UNL d   1      23.730 -17.501  -0.266  0.00  0.00    -0.264 N 
ATOM      2  C   UNL d   1      25.103 -17.380  -0.137  0.00  0.00     0.265 C 
ATOM      3  O   UNL d   1      25.788 -18.259   0.394  0.00  0.00    -0.269 OA
ATOM      4  H   UNL d   1      23.148 -16.820  -0.755  0.00  0.00     0.190 HD
ENDROOT
BRANCH   2   5
ATOM      5  C   UNL d   1      25.751 -16.120  -0.788  0.00  0.00     0.218 C 
ATOM      6  C   UNL d   1      25.752 -16.326  -2.307  0.00  0.00     0.050 C 
BRANCH   5   7
ATOM      7  O   UNL d   1      27.083 -15.754  -0.391  0.00  0.00    -0.337 OA
BRANCH   7   8
ATOM      8  C   UNL d   1      27.195 -14.758   0.549  0.00  0.00     0.071 A 
ATOM      9  C   UNL d   1      26.650 -13.483   0.382  0.00  0.00     0.037 A 
ATOM     10  C   UNL d   1      26.725 -12.515   1.380  0.00  0.00     0.004 A 
ATOM     11  C   UNL d   1      27.329 -12.820   2.588  0.00  0.00     0.024 A 
ATOM     12  C   UNL d   1      27.853 -14.097   2.786  0.00  0.00     0.036 A 
ATOM     13 CL   UNL d   1      28.593 -14.461   4.297  0.00  0.00    -0.084 Cl
ATOM     14  C   UNL d   1      27.780 -15.071   1.779  0.00  0.00     0.060 A 
ENDBRANCH   7   8
ENDBRANCH   5   7
ENDBRANCH   2   5
BRANCH   1  15
ATOM     15  N   UNL d   1      23.078 -18.707   0.129  0.00  0.00    -0.249 N 
ATOM     16  C   UNL d   1      21.730 -18.840  -0.131  0.00  0.00     0.335 C 
ATOM     17  N   UNL d   1      21.146 -19.988   0.364  0.00  0.00    -0.338 N 
ATOM     18  O   UNL d   1      21.106 -17.963  -0.734  0.00  0.00    -0.246 OA
ATOM     19  H   UNL d   1      21.728 -20.692   0.794  0.00  0.00     0.164 HD
ATOM     20  H   UNL d   1      23.654 -19.416   0.572  0.00  0.00     0.192 HD
BRANCH  17  21
ATOM     21  C   UNL d   1      19.704 -20.257   0.223  0.00  0.00     0.078 C 
ATOM     22  C   UNL d   1      18.872 -19.665   1.370  0.00  0.00     0.032 C 
ATOM     23  C   UNL d   1      19.157 -19.700  -1.094  0.00  0.00     0.032 C 
ENDBRANCH  17  21
ENDBRANCH   1  15
TORSDOF 5
ENDMDL
MODEL 5
REMARK VINA RESULT:    -6.647      4.673      8.399
REMARK INTER + INTRA:          -9.581
REMARK INTER:                  -8.139
REMARK INTRA:                  -1.442
REMARK CONF_INDEPENDENT:        1.492
REMARK UNBOUND:                -1.442
REMARK  5 active torsions:
REMARK  status: ('A' for Active; 'I' for Inactive)
REMARK    1  A    between atoms: C_2  and  N_4 
REMARK       I    between atoms: N_4  and  C_5 
REMARK       I    between atoms: C_5  and  N_7 
REMARK    2  A    between atoms: N_7  and  N_8 
REMARK       I    between atoms: N_8  and  C_9 
REMARK    3  A    between atoms: C_11  and  C_9 
REMARK    4  A    between atoms: C_11  and  O_13 
REMARK    5  A    between atoms: O_13  and  C_14 
ROOT
ATOM      1  N   UNL d   1      25.977 -16.556   0.213  0.00  0.00    -0.264 N 
ATOM      2  C   UNL d   1      25.527 -17.841  -0.041  0.00  0.00     0.265 C 
ATOM      3  O   UNL d   1      26.250 -18.828   0.123  0.00  0.00    -0.269 OA
ATOM      4  H   UNL d   1      25.383 -15.729   0.145  0.00  0.00     0.190 HD
ENDROOT
BRANCH   2   5
ATOM      5  C   UNL d   1      24.029 -17.984  -0.448  0.00  0.00     0.218 C 
ATOM      6  C   UNL d   1      23.629 -16.716  -1.213  0.00  0.00     0.050 C 
BRANCH   5   7
ATOM      7  O   UNL d   1      23.057 -18.200   0.588  0.00  0.00    -0.337 OA
BRANCH   7   8
ATOM      8  C   UNL d   1      21.851 -18.733   0.200  0.00  0.00     0.071 A 
ATOM      9  C   UNL d   1      21.484 -18.904  -1.136  0.00  0.00     0.037 A 
ATOM     10  C   UNL d   1      20.281 -19.505  -1.497  0.00  0.00     0.004 A 
ATOM     11  C   UNL d   1      19.429 -19.979  -0.515  0.00  0.00     0.024 A 
ATOM     12  C   UNL d   1      19.791 -19.846   0.825  0.00  0.00     0.036 A 
ATOM     13 CL   UNL d   1      18.722 -20.449   2.034  0.00  0.00    -0.084 Cl
ATOM     14  C   UNL d   1      21.001 -19.236   1.189  0.00  0.00     0.060 A 
ENDBRANCH   7   8
ENDBRANCH   5   7
ENDBRANCH   2   5
BRANCH   1  15
ATOM     15  N   UNL d   1      27.272 -16.349   0.772  0.00  0.00    -0.249 N 
ATOM     16  C   UNL d   1      27.626 -15.070   1.152  0.00  0.00     0.335 C 
ATOM     17  N   UNL d   1      28.926 -14.927   1.593  0.00  0.00    -0.338 N 
ATOM     18  O   UNL d   1      26.830 -14.133   1.059  0.00  0.00    -0.246 OA
ATOM     19  H   UNL d   1      29.504 -15.747   1.702  0.00  0.00     0.164 HD
ATOM     20  H   UNL d   1      27.864 -17.167   0.874  0.00  0.00     0.192 HD
BRANCH  17  21
ATOM     21  C   UNL d   1      29.481 -13.618   1.983  0.00  0.00     0.078 C 
ATOM     22  C   UNL d   1      29.309 -12.550   0.894  0.00  0.00     0.032 C 
ATOM     23  C   UNL d   1      28.830 -13.095   3.266  0.00  0.00     0.032 C 
ENDBRANCH  17  21
ENDBRANCH   1  15
TORSDOF 5
ENDMDL
MODEL 6
REMARK VINA RESULT:    -6.632      4.616      8.684
REMARK INTER + INTRA:          -9.661
REMARK INTER:                  -8.123
REMARK INTRA:                  -1.538
REMARK CONF_INDEPENDENT:        1.492
REMARK UNBOUND:                -1.538
REMARK  5 active torsions:
REMARK  status: ('A' for Active; 'I' for Inactive)
REMARK    1  A    between atoms: C_2  and  N_4 
REMARK       I    between atoms: N_4  and  C_5 
REMARK       I    between atoms: C_5  and  N_7 
REMARK    2  A    between atoms: N_7  and  N_8 
REMARK       I    between atoms: N_8  and  C_9 
REMARK    3  A    between atoms: C_11  and  C_9 
REMARK    4  A    between atoms: C_11  and  O_13 
REMARK    5  A    between atoms: O_13  and  C_14 
ROOT
ATOM      1  N   UNL d   1      25.889 -12.599  -3.170  0.00  0.00    -0.264 N 
ATOM      2  C   UNL d   1      25.587 -13.930  -3.405  0.00  0.00     0.265 C 
ATOM      3  O   UNL d   1      24.773 -14.271  -4.268  0.00  0.00    -0.269 OA
ATOM      4  H   UNL d   1      26.602 -12.292  -2.506  0.00  0.00     0.190 HD
ENDROOT
BRANCH   2   5
ATOM      5  C   UNL d   1      26.404 -14.980  -2.592  0.00  0.00     0.218 C 
ATOM      6  C   UNL d   1      27.885 -14.793  -2.942  0.00  0.00     0.050 C 
BRANCH   5   7
ATOM      7  O   UNL d   1      26.084 -16.371  -2.756  0.00  0.00    -0.337 OA
BRANCH   7   8
ATOM      8  C   UNL d   1      25.556 -17.015  -1.663  0.00  0.00     0.071 A 
ATOM      9  C   UNL d   1      26.293 -17.298  -0.511  0.00  0.00     0.037 A 
ATOM     10  C   UNL d   1      25.713 -17.895   0.605  0.00  0.00     0.004 A 
ATOM     11  C   UNL d   1      24.362 -18.197   0.597  0.00  0.00     0.024 A 
ATOM     12  C   UNL d   1      23.601 -17.895  -0.533  0.00  0.00     0.036 A 
ATOM     13 CL   UNL d   1      21.921 -18.270  -0.522  0.00  0.00    -0.084 Cl
ATOM     14  C   UNL d   1      24.187 -17.297  -1.658  0.00  0.00     0.060 A 
ENDBRANCH   7   8
ENDBRANCH   5   7
ENDBRANCH   2   5
BRANCH   1  15
ATOM     15  N   UNL d   1      25.331 -11.582  -3.999  0.00  0.00    -0.249 N 
ATOM     16  C   UNL d   1      25.602 -10.264  -3.693  0.00  0.00     0.335 C 
ATOM     17  N   UNL d   1      24.952  -9.333  -4.478  0.00  0.00    -0.338 N 
ATOM     18  O   UNL d   1      26.347  -9.966  -2.756  0.00  0.00    -0.246 OA
ATOM     19  H   UNL d   1      24.405  -9.647  -5.266  0.00  0.00     0.164 HD
ATOM     20  H   UNL d   1      24.770 -11.889  -4.787  0.00  0.00     0.192 HD
BRANCH  17  21
ATOM     21  C   UNL d   1      25.087  -7.883  -4.247  0.00  0.00     0.078 C 
ATOM     22  C   UNL d   1      26.492  -7.357  -4.571  0.00  0.00     0.032 C 
ATOM     23  C   UNL d   1      24.080  -7.089  -5.084  0.00  0.00     0.032 C 
ENDBRANCH  17  21
ENDBRANCH   1  15
TORSDOF 5
ENDMDL
MODEL 7
REMARK VINA RESULT:    -6.605      4.826      7.594
REMARK INTER + INTRA:          -9.734
REMARK INTER:                  -8.096
REMARK INTRA:                  -1.637
REMARK CONF_INDEPENDENT:        1.492
REMARK UNBOUND:                -1.637
REMARK  5 active torsions:
REMARK  status: ('A' for Active; 'I' for Inactive)
REMARK    1  A    between atoms: C_2  and  N_4 
REMARK       I    between atoms: N_4  and  C_5 
REMARK       I    between atoms: C_5  and  N_7 
REMARK    2  A    between atoms: N_7  and  N_8 
REMARK       I    between atoms: N_8  and  C_9 
REMARK    3  A    between atoms: C_11  and  C_9 
REMARK    4  A    between atoms: C_11  and  O_13 
REMARK    5  A    between atoms: O_13  and  C_14 
ROOT
ATOM      1  N   UNL d   1      27.299 -14.774   0.711  0.00  0.00    -0.264 N 
ATOM      2  C   UNL d   1      27.750 -15.118  -0.553  0.00  0.00     0.265 C 
ATOM      3  O   UNL d   1      28.878 -15.584  -0.737  0.00  0.00    -0.269 OA
ATOM      4  H   UNL d   1      26.351 -14.444   0.900  0.00  0.00     0.190 HD
ENDROOT
BRANCH   2   5
ATOM      5  C   UNL d   1      26.722 -14.980  -1.717  0.00  0.00     0.218 C 
ATOM      6  C   UNL d   1      26.916 -13.597  -2.351  0.00  0.00     0.050 C 
BRANCH   5   7
ATOM      7  O   UNL d   1      25.326 -15.136  -1.418  0.00  0.00    -0.337 OA
BRANCH   7   8
ATOM      8  C   UNL d   1      24.912 -16.392  -1.042  0.00  0.00     0.071 A 
ATOM      9  C   UNL d   1      25.756 -17.327  -0.438  0.00  0.00     0.037 A 
ATOM     10  C   UNL d   1      25.292 -18.568  -0.011  0.00  0.00     0.004 A 
ATOM     11  C   UNL d   1      23.953 -18.887  -0.156  0.00  0.00     0.024 A 
ATOM     12  C   UNL d   1      23.087 -17.956  -0.729  0.00  0.00     0.036 A 
ATOM     13 CL   UNL d   1      21.423 -18.367  -0.894  0.00  0.00    -0.084 Cl
ATOM     14  C   UNL d   1      23.556 -16.706  -1.163  0.00  0.00     0.060 A 
ENDBRANCH   7   8
ENDBRANCH   5   7
ENDBRANCH   2   5
BRANCH   1  15
ATOM     15  N   UNL d   1      28.103 -15.046   1.856  0.00  0.00    -0.249 N 
ATOM     16  C   UNL d   1      27.781 -14.428   3.047  0.00  0.00     0.335 C 
ATOM     17  N   UNL d   1      28.658 -14.662   4.087  0.00  0.00    -0.338 N 
ATOM     18  O   UNL d   1      26.794 -13.692   3.139  0.00  0.00    -0.246 OA
ATOM     19  H   UNL d   1      29.410 -15.322   3.959  0.00  0.00     0.164 HD
ATOM     20  H   UNL d   1      28.869 -15.702   1.734  0.00  0.00     0.192 HD
BRANCH  17  21
ATOM     21  C   UNL d   1      28.491 -14.031   5.409  0.00  0.00     0.078 C 
ATOM     22  C   UNL d   1      29.646 -14.349   6.370  0.00  0.00     0.032 C 
ATOM     23  C   UNL d   1      28.379 -12.508   5.291  0.00  0.00     0.032 C 
ENDBRANCH  17  21
ENDBRANCH   1  15
TORSDOF 5
ENDMDL
MODEL 8
REMARK VINA RESULT:    -6.531      4.574      8.658
REMARK INTER + INTRA:          -9.541
REMARK INTER:                  -8.023
REMARK INTRA:                  -1.518
REMARK CONF_INDEPENDENT:        1.492
REMARK UNBOUND:                -1.518
REMARK  5 active torsions:
REMARK  status: ('A' for Active; 'I' for Inactive)
REMARK    1  A    between atoms: C_2  and  N_4 
REMARK       I    between atoms: N_4  and  C_5 
REMARK       I    between atoms: C_5  and  N_7 
REMARK    2  A    between atoms: N_7  and  N_8 
REMARK       I    between atoms: N_8  and  C_9 
REMARK    3  A    between atoms: C_11  and  C_9 
REMARK    4  A    between atoms: C_11  and  O_13 
REMARK    5  A    between atoms: O_13  and  C_14 
ROOT
ATOM      1  N   UNL d   1      26.865 -17.602  -0.701  0.00  0.00    -0.264 N 
ATOM      2  C   UNL d   1      25.798 -18.047   0.060  0.00  0.00     0.265 C 
ATOM      3  O   UNL d   1      25.961 -18.575   1.164  0.00  0.00    -0.269 OA
ATOM      4  H   UNL d   1      26.756 -17.106  -1.588  0.00  0.00     0.190 HD
ENDROOT
BRANCH   2   5
ATOM      5  C   UNL d   1      24.374 -17.755  -0.504  0.00  0.00     0.218 C 
ATOM      6  C   UNL d   1      24.434 -16.422  -1.259  0.00  0.00     0.050 C 
BRANCH   5   7
ATOM      7  O   UNL d   1      23.273 -17.692   0.417  0.00  0.00    -0.337 OA
BRANCH   7   8
ATOM      8  C   UNL d   1      22.129 -18.363   0.057  0.00  0.00     0.071 A 
ATOM      9  C   UNL d   1      21.758 -18.587  -1.270  0.00  0.00     0.037 A 
ATOM     10  C   UNL d   1      20.626 -19.326  -1.602  0.00  0.00     0.004 A 
ATOM     11  C   UNL d   1      19.852 -19.885  -0.600  0.00  0.00     0.024 A 
ATOM     12  C   UNL d   1      20.222 -19.698   0.732  0.00  0.00     0.036 A 
ATOM     13 CL   UNL d   1      19.252 -20.406   1.966  0.00  0.00    -0.084 Cl
ATOM     14  C   UNL d   1      21.361 -18.950   1.067  0.00  0.00     0.060 A 
ENDBRANCH   7   8
ENDBRANCH   5   7
ENDBRANCH   2   5
BRANCH   1  15
ATOM     15  N   UNL d   1      28.190 -17.655  -0.176  0.00  0.00    -0.249 N 
ATOM     16  C   UNL d   1      29.230 -17.221  -0.973  0.00  0.00     0.335 C 
ATOM     17  N   UNL d   1      30.491 -17.391  -0.438  0.00  0.00    -0.338 N 
ATOM     18  O   UNL d   1      29.022 -16.752  -2.095  0.00  0.00    -0.246 OA
ATOM     19  H   UNL d   1      30.584 -17.725   0.510  0.00  0.00     0.164 HD
ATOM     20  H   UNL d   1      28.294 -17.999   0.773  0.00  0.00     0.192 HD
BRANCH  17  21
ATOM     21  C   UNL d   1      31.712 -17.033  -1.181  0.00  0.00     0.078 C 
ATOM     22  C   UNL d   1      32.498 -15.891  -0.522  0.00  0.00     0.032 C 
ATOM     23  C   UNL d   1      32.652 -18.234  -1.322  0.00  0.00     0.032 C 
ENDBRANCH  17  21
ENDBRANCH   1  15
TORSDOF 5
ENDMDL
MODEL 9
REMARK VINA RESULT:    -6.293      4.851      9.445
REMARK INTER + INTRA:          -9.447
REMARK INTER:                  -7.784
REMARK INTRA:                  -1.663
REMARK CONF_INDEPENDENT:        1.492
REMARK UNBOUND:                -1.663
REMARK  5 active torsions:
REMARK  status: ('A' for Active; 'I' for Inactive)
REMARK    1  A    between atoms: C_2  and  N_4 
REMARK       I    between atoms: N_4  and  C_5 
REMARK       I    between atoms: C_5  and  N_7 
REMARK    2  A    between atoms: N_7  and  N_8 
REMARK       I    between atoms: N_8  and  C_9 
REMARK    3  A    between atoms: C_11  and  C_9 
REMARK    4  A    between atoms: C_11  and  O_13 
REMARK    5  A    between atoms: O_13  and  C_14 
ROOT
ATOM      1  N   UNL d   1      27.339 -14.396  -5.085  0.00  0.00    -0.264 N 
ATOM      2  C   UNL d   1      26.226 -15.196  -4.890  0.00  0.00     0.265 C 
ATOM      3  O   UNL d   1      25.799 -15.945  -5.773  0.00  0.00    -0.269 OA
ATOM      4  H   UNL d   1      27.750 -13.814  -4.353  0.00  0.00     0.190 HD
ENDROOT
BRANCH   2   5
ATOM      5  C   UNL d   1      25.600 -15.176  -3.462  0.00  0.00     0.218 C 
ATOM      6  C   UNL d   1      24.967 -13.795  -3.248  0.00  0.00     0.050 C 
BRANCH   5   7
ATOM      7  O   UNL d   1      26.451 -15.450  -2.338  0.00  0.00    -0.337 OA
BRANCH   7   8
ATOM      8  C   UNL d   1      26.007 -16.395  -1.444  0.00  0.00     0.071 A 
ATOM      9  C   UNL d   1      26.807 -16.925  -0.430  0.00  0.00     0.037 A 
ATOM     10  C   UNL d   1      26.310 -17.834   0.500  0.00  0.00     0.004 A 
ATOM     11  C   UNL d   1      24.978 -18.210   0.448  0.00  0.00     0.024 A 
ATOM     12  C   UNL d   1      24.155 -17.669  -0.539  0.00  0.00     0.036 A 
ATOM     13 CL   UNL d   1      22.499 -18.141  -0.584  0.00  0.00    -0.084 Cl
ATOM     14  C   UNL d   1      24.657 -16.756  -1.478  0.00  0.00     0.060 A 
ENDBRANCH   7   8
ENDBRANCH   5   7
ENDBRANCH   2   5
BRANCH   1  15
ATOM     15  N   UNL d   1      28.087 -14.494  -6.295  0.00  0.00    -0.249 N 
ATOM     16  C   UNL d   1      29.241 -13.747  -6.416  0.00  0.00     0.335 C 
ATOM     17  N   UNL d   1      29.860 -13.817  -7.648  0.00  0.00    -0.338 N 
ATOM     18  O   UNL d   1      29.648 -13.045  -5.487  0.00  0.00    -0.246 OA
ATOM     19  H   UNL d   1      29.507 -14.459  -8.342  0.00  0.00     0.164 HD
ATOM     20  H   UNL d   1      27.733 -15.130  -7.003  0.00  0.00     0.192 HD
BRANCH  17  21
ATOM     21  C   UNL d   1      31.070 -13.036  -7.962  0.00  0.00     0.078 C 
ATOM     22  C   UNL d   1      32.304 -13.917  -8.200  0.00  0.00     0.032 C 
ATOM     23  C   UNL d   1      30.864 -12.164  -9.205  0.00  0.00     0.032 C 
ENDBRANCH  17  21
ENDBRANCH   1  15
TORSDOF 5
ENDMDL
