MODEL 1
REMARK VINA RESULT:    -8.739      0.000      0.000
REMARK INTER + INTRA:         -12.100
REMARK INTER:                 -10.528
REMARK INTRA:                  -1.572
REMARK CONF_INDEPENDENT:        1.790
REMARK UNBOUND:                -1.572
REMARK  6 active torsions:
REMARK  status: ('A' for Active; 'I' for Inactive)
REMARK       I    between atoms: C_2  and  N_3 
REMARK       I    between atoms: C_2  and  N_12 
REMARK    1  A    between atoms: N_3  and  C_4 
REMARK    2  A    between atoms: C_4  and  C_5 
REMARK    3  A    between atoms: N_12  and  C_13 
REMARK    4  A    between atoms: C_15  and  N_16 
REMARK       I    between atoms: N_16  and  C_17 
REMARK    5  A    between atoms: C_17  and  C_19 
REMARK    6  A    between atoms: C_28  and  N_29 
ROOT
ATOM      1  C   UNL d   1      26.459 -11.701  -2.511  0.00  0.00     0.065 C 
ATOM      2  C   UNL d   1      26.876 -12.201  -1.249  0.00  0.00     0.061 C 
ATOM      3  C   UNL d   1      27.896 -11.550  -0.529  0.00  0.00     0.037 C 
ATOM      4  C   UNL d   1      28.554 -10.492  -1.149  0.00  0.00     0.032 C 
ATOM      5  C   UNL d   1      28.114  -9.964  -2.349  0.00  0.00     0.034 C 
ATOM      6  C   UNL d   1      27.034 -10.516  -3.024  0.00  0.00     0.057 C 
ENDROOT
BRANCH   1   7
ATOM      7  N   UNL d   1      25.434 -12.392  -3.222  0.00  0.00    -0.307 N 
ATOM      8  C   UNL d   1      25.209 -13.752  -3.326  0.00  0.00     0.321 C 
ATOM      9  O   UNL d   1      24.542 -14.202  -4.263  0.00  0.00    -0.247 OA
ATOM     10  N   UNL d   1      25.700 -14.539  -2.316  0.00  0.00    -0.339 N 
ATOM     11  H   UNL d   1      26.452 -14.084  -1.825  0.00  0.00     0.164 HD
ATOM     12  H   UNL d   1      24.918 -11.841  -3.897  0.00  0.00     0.170 HD
BRANCH  10  13
ATOM     13  C   UNL d   1      25.755 -16.004  -2.390  0.00  0.00     0.162 C 
BRANCH  13  14
ATOM     14  C   UNL d   1      24.708 -16.723  -1.523  0.00  0.00    -0.040 A 
ATOM     15  C   UNL d   1      24.983 -17.968  -0.895  0.00  0.00     0.012 A 
ATOM     16  C   UNL d   1      24.046 -18.585  -0.053  0.00  0.00     0.043 A 
ATOM     17  C   UNL d   1      22.813 -17.981   0.144  0.00  0.00     0.116 A 
ATOM     18  F   UNL d   1      21.899 -18.579   0.920  0.00  0.00    -0.206 F 
ATOM     19  C   UNL d   1      22.520 -16.760  -0.451  0.00  0.00     0.043 A 
ATOM     20  C   UNL d   1      23.465 -16.128  -1.270  0.00  0.00     0.012 A 
ENDBRANCH  13  14
ENDBRANCH  10  13
ENDBRANCH   1   7
BRANCH   6  21
ATOM     21  N   UNL d   1      26.561  -9.829  -4.118  0.00  0.00    -0.379 N 
ATOM     22  C   UNL d   1      25.899  -8.548  -3.978  0.00  0.00     0.123 C 
ATOM     23  C   UNL d   1      24.581  -8.498  -4.696  0.00  0.00     0.020 C 
ATOM     24  C   UNL d   1      24.783  -8.956  -6.145  0.00  0.00     0.003 C 
ATOM     25  C   UNL d   1      25.529 -10.295  -6.222  0.00  0.00     0.020 C 
ATOM     26  C   UNL d   1      26.860 -10.243  -5.479  0.00  0.00     0.123 C 
ENDBRANCH   6  21
BRANCH   3  27
ATOM     27  N   UNL d   1      28.231 -11.923   0.806  0.00  0.00    -0.323 N 
ATOM     28  C   UNL d   1      27.358 -12.557   1.687  0.00  0.00     0.257 C 
ATOM     29  O   UNL d   1      26.184 -12.871   1.453  0.00  0.00    -0.267 OA
ATOM     30  H   UNL d   1      29.189 -11.776   1.107  0.00  0.00     0.169 HD
BRANCH  28  31
ATOM     31  C   UNL d   1      27.804 -12.930   3.045  0.00  0.00     0.054 A 
ATOM     32  C   UNL d   1      28.033 -14.310   3.260  0.00  0.00     0.019 A 
ATOM     33  C   UNL d   1      28.158 -14.825   4.547  0.00  0.00     0.001 A 
ATOM     34  C   UNL d   1      28.129 -13.958   5.632  0.00  0.00     0.002 A 
ATOM     35  C   UNL d   1      27.949 -12.587   5.428  0.00  0.00     0.025 A 
ATOM     36  C   UNL d   1      27.781 -12.066   4.139  0.00  0.00     0.049 A 
ATOM     37 CL   UNL d   1      27.505 -10.368   4.004  0.00  0.00    -0.083 Cl
ENDBRANCH  28  31
ENDBRANCH   3  27
TORSDOF 6
ENDMDL
MODEL 2
REMARK VINA RESULT:    -8.603      5.315      7.100
REMARK INTER + INTRA:         -11.896
REMARK INTER:                 -10.393
REMARK INTRA:                  -1.503
REMARK CONF_INDEPENDENT:        1.790
REMARK UNBOUND:                -1.503
REMARK  6 active torsions:
REMARK  status: ('A' for Active; 'I' for Inactive)
REMARK       I    between atoms: C_2  and  N_3 
REMARK       I    between atoms: C_2  and  N_12 
REMARK    1  A    between atoms: N_3  and  C_4 
REMARK    2  A    between atoms: C_4  and  C_5 
REMARK    3  A    between atoms: N_12  and  C_13 
REMARK    4  A    between atoms: C_15  and  N_16 
REMARK       I    between atoms: N_16  and  C_17 
REMARK    5  A    between atoms: C_17  and  C_19 
REMARK    6  A    between atoms: C_28  and  N_29 
ROOT
ATOM      1  C   UNL d   1      27.818 -14.245  -5.998  0.00  0.00     0.065 C 
ATOM      2  C   UNL d   1      27.270 -15.208  -5.109  0.00  0.00     0.061 C 
ATOM      3  C   UNL d   1      26.319 -14.822  -4.145  0.00  0.00     0.037 C 
ATOM      4  C   UNL d   1      26.038 -13.465  -4.017  0.00  0.00     0.032 C 
ATOM      5  C   UNL d   1      26.522 -12.533  -4.917  0.00  0.00     0.034 C 
ATOM      6  C   UNL d   1      27.371 -12.905  -5.950  0.00  0.00     0.057 C 
ENDROOT
BRANCH   1   7
ATOM      7  N   UNL d   1      28.791 -14.665  -6.953  0.00  0.00    -0.307 N 
ATOM      8  C   UNL d   1      29.888 -15.488  -6.778  0.00  0.00     0.321 C 
ATOM      9  O   UNL d   1      30.830 -15.447  -7.577  0.00  0.00    -0.247 OA
ATOM     10  N   UNL d   1      29.834 -16.375  -5.734  0.00  0.00    -0.339 N 
ATOM     11  H   UNL d   1      29.181 -16.076  -5.028  0.00  0.00     0.164 HD
ATOM     12  H   UNL d   1      28.804 -14.148  -7.825  0.00  0.00     0.170 HD
BRANCH  10  13
ATOM     13  C   UNL d   1      30.996 -17.143  -5.271  0.00  0.00     0.162 C 
BRANCH  13  14
ATOM     14  C   UNL d   1      31.173 -18.504  -5.964  0.00  0.00    -0.040 A 
ATOM     15  C   UNL d   1      31.108 -19.727  -5.243  0.00  0.00     0.012 A 
ATOM     16  C   UNL d   1      31.206 -20.966  -5.893  0.00  0.00     0.043 A 
ATOM     17  C   UNL d   1      31.404 -20.995  -7.266  0.00  0.00     0.116 A 
ATOM     18  F   UNL d   1      31.533 -22.173  -7.892  0.00  0.00    -0.206 F 
ATOM     19  C   UNL d   1      31.464 -19.815  -7.998  0.00  0.00     0.043 A 
ATOM     20  C   UNL d   1      31.338 -18.577  -7.354  0.00  0.00     0.012 A 
ENDBRANCH  13  14
ENDBRANCH  10  13
ENDBRANCH   1   7
BRANCH   6  21
ATOM     21  N   UNL d   1      27.667 -11.949  -6.893  0.00  0.00    -0.379 N 
ATOM     22  C   UNL d   1      26.645 -11.074  -7.429  0.00  0.00     0.123 C 
ATOM     23  C   UNL d   1      26.640 -11.043  -8.931  0.00  0.00     0.020 C 
ATOM     24  C   UNL d   1      28.059 -10.746  -9.430  0.00  0.00     0.003 C 
ATOM     25  C   UNL d   1      29.096 -11.678  -8.788  0.00  0.00     0.020 C 
ATOM     26  C   UNL d   1      29.035 -11.628  -7.266  0.00  0.00     0.123 C 
ENDBRANCH   6  21
BRANCH   3  27
ATOM     27  N   UNL d   1      25.628 -15.779  -3.345  0.00  0.00    -0.323 N 
ATOM     28  C   UNL d   1      25.518 -15.710  -1.958  0.00  0.00     0.257 C 
ATOM     29  O   UNL d   1      26.005 -14.835  -1.230  0.00  0.00    -0.267 OA
ATOM     30  H   UNL d   1      25.128 -16.519  -3.826  0.00  0.00     0.169 HD
BRANCH  28  31
ATOM     31  C   UNL d   1      24.757 -16.734  -1.214  0.00  0.00     0.054 A 
ATOM     32  C   UNL d   1      23.349 -16.616  -1.270  0.00  0.00     0.019 A 
ATOM     33  C   UNL d   1      22.534 -17.315  -0.384  0.00  0.00     0.001 A 
ATOM     34  C   UNL d   1      23.112 -18.200   0.518  0.00  0.00     0.002 A 
ATOM     35  C   UNL d   1      24.500 -18.359   0.551  0.00  0.00     0.025 A 
ATOM     36  C   UNL d   1      25.330 -17.627  -0.308  0.00  0.00     0.049 A 
ATOM     37 CL   UNL d   1      27.033 -17.854  -0.145  0.00  0.00    -0.083 Cl
ENDBRANCH  28  31
ENDBRANCH   3  27
TORSDOF 6
ENDMDL
MODEL 3
REMARK VINA RESULT:    -8.529      2.947      4.070
REMARK INTER + INTRA:         -12.445
REMARK INTER:                 -10.319
REMARK INTRA:                  -2.126
REMARK CONF_INDEPENDENT:        1.790
REMARK UNBOUND:                -2.126
REMARK  6 active torsions:
REMARK  status: ('A' for Active; 'I' for Inactive)
REMARK       I    between atoms: C_2  and  N_3 
REMARK       I    between atoms: C_2  and  N_12 
REMARK    1  A    between atoms: N_3  and  C_4 
REMARK    2  A    between atoms: C_4  and  C_5 
REMARK    3  A    between atoms: N_12  and  C_13 
REMARK    4  A    between atoms: C_15  and  N_16 
REMARK       I    between atoms: N_16  and  C_17 
REMARK    5  A    between atoms: C_17  and  C_19 
REMARK    6  A    between atoms: C_28  and  N_29 
ROOT
ATOM      1  C   UNL d   1      28.361 -14.674   0.158  0.00  0.00     0.065 C 
ATOM      2  C   UNL d   1      28.865 -14.393   1.456  0.00  0.00     0.061 C 
ATOM      3  C   UNL d   1      28.587 -13.159   2.073  0.00  0.00     0.037 C 
ATOM      4  C   UNL d   1      27.919 -12.194   1.323  0.00  0.00     0.032 C 
ATOM      5  C   UNL d   1      27.376 -12.482   0.085  0.00  0.00     0.034 C 
ATOM      6  C   UNL d   1      27.535 -13.732  -0.497  0.00  0.00     0.057 C 
ENDROOT
BRANCH   1   7
ATOM      7  N   UNL d   1      28.673 -15.928  -0.445  0.00  0.00    -0.307 N 
ATOM      8  C   UNL d   1      28.000 -17.133  -0.354  0.00  0.00     0.321 C 
ATOM      9  O   UNL d   1      28.585 -18.192  -0.603  0.00  0.00    -0.247 OA
ATOM     10  N   UNL d   1      26.665 -17.073  -0.049  0.00  0.00    -0.339 N 
ATOM     11  H   UNL d   1      26.430 -16.210   0.414  0.00  0.00     0.164 HD
ATOM     12  H   UNL d   1      29.607 -16.011  -0.831  0.00  0.00     0.170 HD
BRANCH  10  13
ATOM     13  C   UNL d   1      25.869 -18.251   0.315  0.00  0.00     0.162 C 
BRANCH  13  14
ATOM     14  C   UNL d   1      24.385 -18.160  -0.079  0.00  0.00    -0.040 A 
ATOM     15  C   UNL d   1      23.736 -16.912  -0.277  0.00  0.00     0.012 A 
ATOM     16  C   UNL d   1      22.401 -16.841  -0.699  0.00  0.00     0.043 A 
ATOM     17  C   UNL d   1      21.690 -18.015  -0.895  0.00  0.00     0.116 A 
ATOM     18  F   UNL d   1      20.404 -17.957  -1.266  0.00  0.00    -0.206 F 
ATOM     19  C   UNL d   1      22.301 -19.251  -0.717  0.00  0.00     0.043 A 
ATOM     20  C   UNL d   1      23.643 -19.325  -0.323  0.00  0.00     0.012 A 
ENDBRANCH  13  14
ENDBRANCH  10  13
ENDBRANCH   1   7
BRANCH   6  21
ATOM     21  N   UNL d   1      26.823 -13.984  -1.646  0.00  0.00    -0.379 N 
ATOM     22  C   UNL d   1      25.643 -14.824  -1.635  0.00  0.00     0.123 C 
ATOM     23  C   UNL d   1      25.688 -15.899  -2.683  0.00  0.00     0.020 C 
ATOM     24  C   UNL d   1      26.003 -15.260  -4.041  0.00  0.00     0.003 C 
ATOM     25  C   UNL d   1      27.236 -14.349  -3.971  0.00  0.00     0.020 C 
ATOM     26  C   UNL d   1      27.089 -13.282  -2.891  0.00  0.00     0.123 C 
ENDBRANCH   6  21
BRANCH   3  27
ATOM     27  N   UNL d   1      28.936 -12.900   3.431  0.00  0.00    -0.323 N 
ATOM     28  C   UNL d   1      28.234 -13.390   4.529  0.00  0.00     0.257 C 
ATOM     29  O   UNL d   1      27.217 -14.095   4.490  0.00  0.00    -0.267 OA
ATOM     30  H   UNL d   1      29.791 -12.381   3.604  0.00  0.00     0.169 HD
BRANCH  28  31
ATOM     31  C   UNL d   1      28.687 -13.092   5.903  0.00  0.00     0.054 A 
ATOM     32  C   UNL d   1      28.897 -14.214   6.739  0.00  0.00     0.019 A 
ATOM     33  C   UNL d   1      29.026 -14.068   8.117  0.00  0.00     0.001 A 
ATOM     34  C   UNL d   1      29.022 -12.793   8.670  0.00  0.00     0.002 A 
ATOM     35  C   UNL d   1      28.861 -11.674   7.847  0.00  0.00     0.025 A 
ATOM     36  C   UNL d   1      28.689 -11.815   6.464  0.00  0.00     0.049 A 
ATOM     37 CL   UNL d   1      28.438 -10.374   5.548  0.00  0.00    -0.083 Cl
ENDBRANCH  28  31
ENDBRANCH   3  27
TORSDOF 6
ENDMDL
MODEL 4
REMARK VINA RESULT:    -8.226      1.611      1.999
REMARK INTER + INTRA:         -12.157
REMARK INTER:                 -10.015
REMARK INTRA:                  -2.142
REMARK CONF_INDEPENDENT:        1.790
REMARK UNBOUND:                -2.142
REMARK  6 active torsions:
REMARK  status: ('A' for Active; 'I' for Inactive)
REMARK       I    between atoms: C_2  and  N_3 
REMARK       I    between atoms: C_2  and  N_12 
REMARK    1  A    between atoms: N_3  and  C_4 
REMARK    2  A    between atoms: C_4  and  C_5 
REMARK    3  A    between atoms: N_12  and  C_13 
REMARK    4  A    between atoms: C_15  and  N_16 
REMARK       I    between atoms: N_16  and  C_17 
REMARK    5  A    between atoms: C_17  and  C_19 
REMARK    6  A    between atoms: C_28  and  N_29 
ROOT
ATOM      1  C   UNL d   1      26.334 -11.724  -2.725  0.00  0.00     0.065 C 
ATOM      2  C   UNL d   1      26.752 -12.345  -1.518  0.00  0.00     0.061 C 
ATOM      3  C   UNL d   1      27.769 -11.764  -0.736  0.00  0.00     0.037 C 
ATOM      4  C   UNL d   1      28.424 -10.648  -1.249  0.00  0.00     0.032 C 
ATOM      5  C   UNL d   1      27.983 -10.006  -2.392  0.00  0.00     0.034 C 
ATOM      6  C   UNL d   1      26.906 -10.493  -3.119  0.00  0.00     0.057 C 
ENDROOT
BRANCH   1   7
ATOM      7  N   UNL d   1      25.312 -12.346  -3.501  0.00  0.00    -0.307 N 
ATOM      8  C   UNL d   1      25.037 -13.691  -3.665  0.00  0.00     0.321 C 
ATOM      9  O   UNL d   1      24.391 -14.078  -4.645  0.00  0.00    -0.247 OA
ATOM     10  N   UNL d   1      25.453 -14.533  -2.667  0.00  0.00    -0.339 N 
ATOM     11  H   UNL d   1      26.203 -14.129  -2.130  0.00  0.00     0.164 HD
ATOM     12  H   UNL d   1      24.847 -11.749  -4.175  0.00  0.00     0.170 HD
BRANCH  10  13
ATOM     13  C   UNL d   1      25.451 -15.995  -2.794  0.00  0.00     0.162 C 
BRANCH  13  14
ATOM     14  C   UNL d   1      25.758 -16.747  -1.488  0.00  0.00    -0.040 A 
ATOM     15  C   UNL d   1      24.759 -17.479  -0.792  0.00  0.00     0.012 A 
ATOM     16  C   UNL d   1      25.064 -18.215   0.363  0.00  0.00     0.043 A 
ATOM     17  C   UNL d   1      26.361 -18.200   0.852  0.00  0.00     0.116 A 
ATOM     18  F   UNL d   1      26.655 -18.873   1.973  0.00  0.00    -0.206 F 
ATOM     19  C   UNL d   1      27.360 -17.500   0.187  0.00  0.00     0.043 A 
ATOM     20  C   UNL d   1      27.065 -16.786  -0.983  0.00  0.00     0.012 A 
ENDBRANCH  13  14
ENDBRANCH  10  13
ENDBRANCH   1   7
BRANCH   6  21
ATOM     21  N   UNL d   1      26.431  -9.703  -4.140  0.00  0.00    -0.379 N 
ATOM     22  C   UNL d   1      25.670  -8.500  -3.874  0.00  0.00     0.123 C 
ATOM     23  C   UNL d   1      24.384  -8.446  -4.648  0.00  0.00     0.020 C 
ATOM     24  C   UNL d   1      24.682  -8.697  -6.131  0.00  0.00     0.003 C 
ATOM     25  C   UNL d   1      25.529  -9.960  -6.337  0.00  0.00     0.020 C 
ATOM     26  C   UNL d   1      26.819  -9.915  -5.525  0.00  0.00     0.123 C 
ENDBRANCH   6  21
BRANCH   3  27
ATOM     27  N   UNL d   1      28.105 -12.265   0.556  0.00  0.00    -0.323 N 
ATOM     28  C   UNL d   1      27.542 -13.404   1.127  0.00  0.00     0.257 C 
ATOM     29  O   UNL d   1      26.676 -14.125   0.617  0.00  0.00    -0.267 OA
ATOM     30  H   UNL d   1      28.852 -11.798   1.060  0.00  0.00     0.169 HD
BRANCH  28  31
ATOM     31  C   UNL d   1      27.973 -13.864   2.463  0.00  0.00     0.054 A 
ATOM     32  C   UNL d   1      27.030 -13.699   3.505  0.00  0.00     0.019 A 
ATOM     33  C   UNL d   1      27.410 -13.805   4.840  0.00  0.00     0.001 A 
ATOM     34  C   UNL d   1      28.720 -14.149   5.150  0.00  0.00     0.002 A 
ATOM     35  C   UNL d   1      29.649 -14.359   4.127  0.00  0.00     0.025 A 
ATOM     36  C   UNL d   1      29.285 -14.214   2.782  0.00  0.00     0.049 A 
ATOM     37 CL   UNL d   1      30.523 -14.436   1.600  0.00  0.00    -0.083 Cl
ENDBRANCH  28  31
ENDBRANCH   3  27
TORSDOF 6
ENDMDL
MODEL 5
REMARK VINA RESULT:    -8.213      2.651      3.685
REMARK INTER + INTRA:         -12.150
REMARK INTER:                 -10.002
REMARK INTRA:                  -2.147
REMARK CONF_INDEPENDENT:        1.790
REMARK UNBOUND:                -2.147
REMARK  6 active torsions:
REMARK  status: ('A' for Active; 'I' for Inactive)
REMARK       I    between atoms: C_2  and  N_3 
REMARK       I    between atoms: C_2  and  N_12 
REMARK    1  A    between atoms: N_3  and  C_4 
REMARK    2  A    between atoms: C_4  and  C_5 
REMARK    3  A    between atoms: N_12  and  C_13 
REMARK    4  A    between atoms: C_15  and  N_16 
REMARK       I    between atoms: N_16  and  C_17 
REMARK    5  A    between atoms: C_17  and  C_19 
REMARK    6  A    between atoms: C_28  and  N_29 
ROOT
ATOM      1  C   UNL d   1      28.072 -14.055  -0.616  0.00  0.00     0.065 C 
ATOM      2  C   UNL d   1      28.476 -13.666   0.690  0.00  0.00     0.061 C 
ATOM      3  C   UNL d   1      28.114 -12.403   1.197  0.00  0.00     0.037 C 
ATOM      4  C   UNL d   1      27.467 -11.520   0.339  0.00  0.00     0.032 C 
ATOM      5  C   UNL d   1      27.019 -11.913  -0.910  0.00  0.00     0.034 C 
ATOM      6  C   UNL d   1      27.261 -13.193  -1.389  0.00  0.00     0.057 C 
ENDROOT
BRANCH   1   7
ATOM      7  N   UNL d   1      28.468 -15.334  -1.106  0.00  0.00    -0.307 N 
ATOM      8  C   UNL d   1      27.915 -16.576  -0.853  0.00  0.00     0.321 C 
ATOM      9  O   UNL d   1      28.582 -17.601  -1.028  0.00  0.00    -0.247 OA
ATOM     10  N   UNL d   1      26.597 -16.599  -0.475  0.00  0.00    -0.339 N 
ATOM     11  H   UNL d   1      26.307 -15.716  -0.088  0.00  0.00     0.164 HD
ATOM     12  H   UNL d   1      29.385 -15.376  -1.537  0.00  0.00     0.170 HD
BRANCH  10  13
ATOM     13  C   UNL d   1      25.933 -17.797   0.054  0.00  0.00     0.162 C 
BRANCH  13  14
ATOM     14  C   UNL d   1      24.425 -17.868  -0.239  0.00  0.00    -0.040 A 
ATOM     15  C   UNL d   1      23.669 -16.710  -0.566  0.00  0.00     0.012 A 
ATOM     16  C   UNL d   1      22.308 -16.794  -0.895  0.00  0.00     0.043 A 
ATOM     17  C   UNL d   1      21.681 -18.031  -0.869  0.00  0.00     0.116 A 
ATOM     18  F   UNL d   1      20.374 -18.117  -1.150  0.00  0.00    -0.206 F 
ATOM     19  C   UNL d   1      22.398 -19.181  -0.561  0.00  0.00     0.043 A 
ATOM     20  C   UNL d   1      23.763 -19.104  -0.259  0.00  0.00     0.012 A 
ENDBRANCH  13  14
ENDBRANCH  10  13
ENDBRANCH   1   7
BRANCH   6  21
ATOM     21  N   UNL d   1      26.639 -13.551  -2.562  0.00  0.00    -0.379 N 
ATOM     22  C   UNL d   1      25.502 -14.449  -2.570  0.00  0.00     0.123 C 
ATOM     23  C   UNL d   1      25.668 -15.581  -3.544  0.00  0.00     0.020 C 
ATOM     24  C   UNL d   1      26.040 -15.010  -4.917  0.00  0.00     0.003 C 
ATOM     25  C   UNL d   1      27.220 -14.033  -4.828  0.00  0.00     0.020 C 
ATOM     26  C   UNL d   1      26.952 -12.912  -3.830  0.00  0.00     0.123 C 
ENDBRANCH   6  21
BRANCH   3  27
ATOM     27  N   UNL d   1      28.360 -12.039   2.554  0.00  0.00    -0.323 N 
ATOM     28  C   UNL d   1      27.798 -12.682   3.654  0.00  0.00     0.257 C 
ATOM     29  O   UNL d   1      27.010 -13.635   3.619  0.00  0.00    -0.267 OA
ATOM     30  H   UNL d   1      29.041 -11.306   2.726  0.00  0.00     0.169 HD
BRANCH  28  31
ATOM     31  C   UNL d   1      28.133 -12.251   5.027  0.00  0.00     0.054 A 
ATOM     32  C   UNL d   1      28.187 -10.853   5.236  0.00  0.00     0.019 A 
ATOM     33  C   UNL d   1      28.778 -10.321   6.379  0.00  0.00     0.001 A 
ATOM     34  C   UNL d   1      29.256 -11.180   7.361  0.00  0.00     0.002 A 
ATOM     35  C   UNL d   1      29.166 -12.564   7.184  0.00  0.00     0.025 A 
ATOM     36  C   UNL d   1      28.611 -13.107   6.019  0.00  0.00     0.049 A 
ATOM     37 CL   UNL d   1      28.604 -14.827   5.874  0.00  0.00    -0.083 Cl
ENDBRANCH  28  31
ENDBRANCH   3  27
TORSDOF 6
ENDMDL
MODEL 6
REMARK VINA RESULT:    -8.002      4.210      6.334
REMARK INTER + INTRA:         -11.968
REMARK INTER:                  -9.792
REMARK INTRA:                  -2.176
REMARK CONF_INDEPENDENT:        1.790
REMARK UNBOUND:                -2.176
REMARK  6 active torsions:
REMARK  status: ('A' for Active; 'I' for Inactive)
REMARK       I    between atoms: C_2  and  N_3 
REMARK       I    between atoms: C_2  and  N_12 
REMARK    1  A    between atoms: N_3  and  C_4 
REMARK    2  A    between atoms: C_4  and  C_5 
REMARK    3  A    between atoms: N_12  and  C_13 
REMARK    4  A    between atoms: C_15  and  N_16 
REMARK       I    between atoms: N_16  and  C_17 
REMARK    5  A    between atoms: C_17  and  C_19 
REMARK    6  A    between atoms: C_28  and  N_29 
ROOT
ATOM      1  C   UNL d   1      28.446 -14.028   3.441  0.00  0.00     0.065 C 
ATOM      2  C   UNL d   1      28.120 -14.221   4.810  0.00  0.00     0.061 C 
ATOM      3  C   UNL d   1      29.125 -14.549   5.740  0.00  0.00     0.037 C 
ATOM      4  C   UNL d   1      30.405 -14.797   5.251  0.00  0.00     0.032 C 
ATOM      5  C   UNL d   1      30.741 -14.553   3.932  0.00  0.00     0.034 C 
ATOM      6  C   UNL d   1      29.792 -14.115   3.018  0.00  0.00     0.057 C 
ENDROOT
BRANCH   1   7
ATOM      7  N   UNL d   1      27.402 -13.711   2.523  0.00  0.00    -0.307 N 
ATOM      8  C   UNL d   1      27.047 -14.351   1.350  0.00  0.00     0.321 C 
ATOM      9  O   UNL d   1      26.396 -13.752   0.487  0.00  0.00    -0.247 OA
ATOM     10  N   UNL d   1      27.391 -15.674   1.240  0.00  0.00    -0.339 N 
ATOM     11  H   UNL d   1      28.154 -15.910   1.852  0.00  0.00     0.164 HD
ATOM     12  H   UNL d   1      26.987 -12.792   2.628  0.00  0.00     0.170 HD
BRANCH  10  13
ATOM     13  C   UNL d   1      27.301 -16.426  -0.017  0.00  0.00     0.162 C 
BRANCH  13  14
ATOM     14  C   UNL d   1      25.890 -16.942  -0.349  0.00  0.00    -0.040 A 
ATOM     15  C   UNL d   1      25.424 -18.202   0.114  0.00  0.00     0.012 A 
ATOM     16  C   UNL d   1      24.114 -18.635  -0.139  0.00  0.00     0.043 A 
ATOM     17  C   UNL d   1      23.267 -17.828  -0.884  0.00  0.00     0.116 A 
ATOM     18  F   UNL d   1      22.025 -18.247  -1.159  0.00  0.00    -0.206 F 
ATOM     19  C   UNL d   1      23.693 -16.587  -1.342  0.00  0.00     0.043 A 
ATOM     20  C   UNL d   1      24.992 -16.140  -1.067  0.00  0.00     0.012 A 
ENDBRANCH  13  14
ENDBRANCH  10  13
ENDBRANCH   1   7
BRANCH   6  21
ATOM     21  N   UNL d   1      30.246 -13.738   1.776  0.00  0.00    -0.379 N 
ATOM     22  C   UNL d   1      30.428 -12.343   1.430  0.00  0.00     0.123 C 
ATOM     23  C   UNL d   1      29.760 -11.977   0.135  0.00  0.00     0.020 C 
ATOM     24  C   UNL d   1      30.199 -12.966  -0.951  0.00  0.00     0.003 C 
ATOM     25  C   UNL d   1      30.022 -14.423  -0.502  0.00  0.00     0.020 C 
ATOM     26  C   UNL d   1      30.747 -14.701   0.810  0.00  0.00     0.123 C 
ENDBRANCH   6  21
BRANCH   3  27
ATOM     27  N   UNL d   1      28.869 -14.593   7.141  0.00  0.00    -0.323 N 
ATOM     28  C   UNL d   1      29.331 -13.647   8.054  0.00  0.00     0.257 C 
ATOM     29  O   UNL d   1      30.027 -12.659   7.792  0.00  0.00    -0.267 OA
ATOM     30  H   UNL d   1      28.254 -15.325   7.483  0.00  0.00     0.169 HD
BRANCH  28  31
ATOM     31  C   UNL d   1      28.991 -13.761   9.487  0.00  0.00     0.054 A 
ATOM     32  C   UNL d   1      27.983 -12.884   9.952  0.00  0.00     0.019 A 
ATOM     33  C   UNL d   1      27.785 -12.676  11.314  0.00  0.00     0.001 A 
ATOM     34  C   UNL d   1      28.541 -13.397  12.230  0.00  0.00     0.002 A 
ATOM     35  C   UNL d   1      29.508 -14.301  11.781  0.00  0.00     0.025 A 
ATOM     36  C   UNL d   1      29.743 -14.485  10.413  0.00  0.00     0.049 A 
ATOM     37 CL   UNL d   1      31.001 -15.578   9.967  0.00  0.00    -0.083 Cl
ENDBRANCH  28  31
ENDBRANCH   3  27
TORSDOF 6
ENDMDL
MODEL 7
REMARK VINA RESULT:    -7.967      3.688      5.314
REMARK INTER + INTRA:         -11.826
REMARK INTER:                  -9.757
REMARK INTRA:                  -2.070
REMARK CONF_INDEPENDENT:        1.790
REMARK UNBOUND:                -2.070
REMARK  6 active torsions:
REMARK  status: ('A' for Active; 'I' for Inactive)
REMARK       I    between atoms: C_2  and  N_3 
REMARK       I    between atoms: C_2  and  N_12 
REMARK    1  A    between atoms: N_3  and  C_4 
REMARK    2  A    between atoms: C_4  and  C_5 
REMARK    3  A    between atoms: N_12  and  C_13 
REMARK    4  A    between atoms: C_15  and  N_16 
REMARK       I    between atoms: N_16  and  C_17 
REMARK    5  A    between atoms: C_17  and  C_19 
REMARK    6  A    between atoms: C_28  and  N_29 
ROOT
ATOM      1  C   UNL d   1      28.798 -14.160   2.000  0.00  0.00     0.065 C 
ATOM      2  C   UNL d   1      28.796 -13.937   3.403  0.00  0.00     0.061 C 
ATOM      3  C   UNL d   1      29.961 -14.167   4.160  0.00  0.00     0.037 C 
ATOM      4  C   UNL d   1      31.056 -14.732   3.511  0.00  0.00     0.032 C 
ATOM      5  C   UNL d   1      31.084 -14.896   2.138  0.00  0.00     0.034 C 
ATOM      6  C   UNL d   1      29.988 -14.566   1.352  0.00  0.00     0.057 C 
ENDROOT
BRANCH   1   7
ATOM      7  N   UNL d   1      27.598 -13.932   1.265  0.00  0.00    -0.307 N 
ATOM      8  C   UNL d   1      26.938 -14.773   0.388  0.00  0.00     0.321 C 
ATOM      9  O   UNL d   1      26.153 -14.310  -0.446  0.00  0.00    -0.247 OA
ATOM     10  N   UNL d   1      27.150 -16.119   0.544  0.00  0.00    -0.339 N 
ATOM     11  H   UNL d   1      28.014 -16.303   1.028  0.00  0.00     0.164 HD
ATOM     12  H   UNL d   1      27.287 -12.969   1.218  0.00  0.00     0.170 HD
BRANCH  10  13
ATOM     13  C   UNL d   1      26.721 -17.121  -0.438  0.00  0.00     0.162 C 
BRANCH  13  14
ATOM     14  C   UNL d   1      25.207 -17.392  -0.447  0.00  0.00    -0.040 A 
ATOM     15  C   UNL d   1      24.269 -16.395  -0.826  0.00  0.00     0.012 A 
ATOM     16  C   UNL d   1      22.895 -16.671  -0.895  0.00  0.00     0.043 A 
ATOM     17  C   UNL d   1      22.442 -17.936  -0.553  0.00  0.00     0.116 A 
ATOM     18  F   UNL d   1      21.129 -18.200  -0.584  0.00  0.00    -0.206 F 
ATOM     19  C   UNL d   1      23.337 -18.934  -0.187  0.00  0.00     0.043 A 
ATOM     20  C   UNL d   1      24.712 -18.669  -0.145  0.00  0.00     0.012 A 
ENDBRANCH  13  14
ENDBRANCH  10  13
ENDBRANCH   1   7
BRANCH   6  21
ATOM     21  N   UNL d   1      30.161 -14.601  -0.011  0.00  0.00    -0.379 N 
ATOM     22  C   UNL d   1      29.959 -13.422  -0.829  0.00  0.00     0.123 C 
ATOM     23  C   UNL d   1      29.049 -13.679  -1.997  0.00  0.00     0.020 C 
ATOM     24  C   UNL d   1      29.552 -14.907  -2.763  0.00  0.00     0.003 C 
ATOM     25  C   UNL d   1      29.789 -16.104  -1.831  0.00  0.00     0.020 C 
ATOM     26  C   UNL d   1      30.736 -15.752  -0.689  0.00  0.00     0.123 C 
ENDBRANCH   6  21
BRANCH   3  27
ATOM     27  N   UNL d   1      30.049 -13.804   5.536  0.00  0.00    -0.323 N 
ATOM     28  C   UNL d   1      28.958 -13.732   6.400  0.00  0.00     0.257 C 
ATOM     29  O   UNL d   1      27.777 -13.954   6.105  0.00  0.00    -0.267 OA
ATOM     30  H   UNL d   1      30.975 -13.656   5.923  0.00  0.00     0.169 HD
BRANCH  28  31
ATOM     31  C   UNL d   1      29.150 -13.374   7.820  0.00  0.00     0.054 A 
ATOM     32  C   UNL d   1      29.098 -14.449   8.738  0.00  0.00     0.019 A 
ATOM     33  C   UNL d   1      28.960 -14.219  10.104  0.00  0.00     0.001 A 
ATOM     34  C   UNL d   1      28.947 -12.913  10.577  0.00  0.00     0.002 A 
ATOM     35  C   UNL d   1      29.044 -11.844   9.682  0.00  0.00     0.025 A 
ATOM     36  C   UNL d   1      29.141 -12.065   8.302  0.00  0.00     0.049 A 
ATOM     37 CL   UNL d   1      29.194 -10.675   7.281  0.00  0.00    -0.083 Cl
ENDBRANCH  28  31
ENDBRANCH   3  27
TORSDOF 6
ENDMDL
MODEL 8
REMARK VINA RESULT:    -7.703      3.952      6.262
REMARK INTER + INTRA:         -11.831
REMARK INTER:                  -9.493
REMARK INTRA:                  -2.339
REMARK CONF_INDEPENDENT:        1.790
REMARK UNBOUND:                -2.339
REMARK  6 active torsions:
REMARK  status: ('A' for Active; 'I' for Inactive)
REMARK       I    between atoms: C_2  and  N_3 
REMARK       I    between atoms: C_2  and  N_12 
REMARK    1  A    between atoms: N_3  and  C_4 
REMARK    2  A    between atoms: C_4  and  C_5 
REMARK    3  A    between atoms: N_12  and  C_13 
REMARK    4  A    between atoms: C_15  and  N_16 
REMARK       I    between atoms: N_16  and  C_17 
REMARK    5  A    between atoms: C_17  and  C_19 
REMARK    6  A    between atoms: C_28  and  N_29 
ROOT
ATOM      1  C   UNL d   1      29.537 -13.706   3.219  0.00  0.00     0.065 C 
ATOM      2  C   UNL d   1      29.939 -14.098   4.524  0.00  0.00     0.061 C 
ATOM      3  C   UNL d   1      29.112 -13.831   5.631  0.00  0.00     0.037 C 
ATOM      4  C   UNL d   1      27.966 -13.069   5.417  0.00  0.00     0.032 C 
ATOM      5  C   UNL d   1      27.541 -12.736   4.144  0.00  0.00     0.034 C 
ATOM      6  C   UNL d   1      28.279 -13.090   3.024  0.00  0.00     0.057 C 
ENDROOT
BRANCH   1   7
ATOM      7  N   UNL d   1      30.405 -13.978   2.120  0.00  0.00    -0.307 N 
ATOM      8  C   UNL d   1      30.337 -14.993   1.184  0.00  0.00     0.321 C 
ATOM      9  O   UNL d   1      31.344 -15.322   0.550  0.00  0.00    -0.247 OA
ATOM     10  N   UNL d   1      29.102 -15.546   0.962  0.00  0.00    -0.339 N 
ATOM     11  H   UNL d   1      28.485 -15.400   1.744  0.00  0.00     0.164 HD
ATOM     12  H   UNL d   1      31.295 -13.492   2.132  0.00  0.00     0.170 HD
BRANCH  10  13
ATOM     13  C   UNL d   1      28.899 -16.776   0.187  0.00  0.00     0.162 C 
BRANCH  13  14
ATOM     14  C   UNL d   1      27.428 -17.092  -0.128  0.00  0.00    -0.040 A 
ATOM     15  C   UNL d   1      26.816 -16.681  -1.343  0.00  0.00     0.012 A 
ATOM     16  C   UNL d   1      25.493 -17.031  -1.650  0.00  0.00     0.043 A 
ATOM     17  C   UNL d   1      24.757 -17.766  -0.732  0.00  0.00     0.116 A 
ATOM     18  F   UNL d   1      23.482 -18.077  -1.002  0.00  0.00    -0.206 F 
ATOM     19  C   UNL d   1      25.332 -18.189   0.460  0.00  0.00     0.043 A 
ATOM     20  C   UNL d   1      26.663 -17.865   0.757  0.00  0.00     0.012 A 
ENDBRANCH  13  14
ENDBRANCH  10  13
ENDBRANCH   1   7
BRANCH   6  21
ATOM     21  N   UNL d   1      27.701 -12.869   1.796  0.00  0.00    -0.379 N 
ATOM     22  C   UNL d   1      26.365 -13.339   1.494  0.00  0.00     0.123 C 
ATOM     23  C   UNL d   1      26.301 -14.114   0.209  0.00  0.00     0.020 C 
ATOM     24  C   UNL d   1      26.953 -13.288  -0.906  0.00  0.00     0.003 C 
ATOM     25  C   UNL d   1      28.345 -12.784  -0.503  0.00  0.00     0.020 C 
ATOM     26  C   UNL d   1      28.306 -11.997   0.802  0.00  0.00     0.123 C 
ENDBRANCH   6  21
BRANCH   3  27
ATOM     27  N   UNL d   1      29.400 -14.347   6.929  0.00  0.00    -0.323 N 
ATOM     28  C   UNL d   1      30.003 -13.615   7.949  0.00  0.00     0.257 C 
ATOM     29  O   UNL d   1      30.381 -12.439   7.879  0.00  0.00    -0.267 OA
ATOM     30  H   UNL d   1      29.083 -15.287   7.140  0.00  0.00     0.169 HD
BRANCH  28  31
ATOM     31  C   UNL d   1      30.238 -14.227   9.273  0.00  0.00     0.054 A 
ATOM     32  C   UNL d   1      31.353 -15.092   9.361  0.00  0.00     0.019 A 
ATOM     33  C   UNL d   1      31.507 -15.955  10.442  0.00  0.00     0.001 A 
ATOM     34  C   UNL d   1      30.590 -15.912  11.485  0.00  0.00     0.002 A 
ATOM     35  C   UNL d   1      29.509 -15.027  11.429  0.00  0.00     0.025 A 
ATOM     36  C   UNL d   1      29.323 -14.185  10.325  0.00  0.00     0.049 A 
ATOM     37 CL   UNL d   1      27.924 -13.175  10.329  0.00  0.00    -0.083 Cl
ENDBRANCH  28  31
ENDBRANCH   3  27
TORSDOF 6
ENDMDL
MODEL 9
REMARK VINA RESULT:    -7.162      5.445      8.404
REMARK INTER + INTRA:         -11.879
REMARK INTER:                  -8.952
REMARK INTRA:                  -2.927
REMARK CONF_INDEPENDENT:        1.790
REMARK UNBOUND:                -2.927
REMARK  6 active torsions:
REMARK  status: ('A' for Active; 'I' for Inactive)
REMARK       I    between atoms: C_2  and  N_3 
REMARK       I    between atoms: C_2  and  N_12 
REMARK    1  A    between atoms: N_3  and  C_4 
REMARK    2  A    between atoms: C_4  and  C_5 
REMARK    3  A    between atoms: N_12  and  C_13 
REMARK    4  A    between atoms: C_15  and  N_16 
REMARK       I    between atoms: N_16  and  C_17 
REMARK    5  A    between atoms: C_17  and  C_19 
REMARK    6  A    between atoms: C_28  and  N_29 
ROOT
ATOM      1  C   UNL d   1      25.792 -16.512  -1.333  0.00  0.00     0.065 C 
ATOM      2  C   UNL d   1      27.191 -16.454  -1.574  0.00  0.00     0.061 C 
ATOM      3  C   UNL d   1      28.072 -17.263  -0.831  0.00  0.00     0.037 C 
ATOM      4  C   UNL d   1      27.541 -18.013   0.214  0.00  0.00     0.032 C 
ATOM      5  C   UNL d   1      26.176 -18.119   0.414  0.00  0.00     0.034 C 
ATOM      6  C   UNL d   1      25.277 -17.422  -0.381  0.00  0.00     0.057 C 
ENDROOT
BRANCH   1   7
ATOM      7  N   UNL d   1      24.928 -15.669  -2.092  0.00  0.00    -0.307 N 
ATOM      8  C   UNL d   1      25.157 -15.050  -3.306  0.00  0.00     0.321 C 
ATOM      9  O   UNL d   1      24.486 -14.067  -3.640  0.00  0.00    -0.247 OA
ATOM     10  N   UNL d   1      26.099 -15.621  -4.123  0.00  0.00    -0.339 N 
ATOM     11  H   UNL d   1      26.744 -16.190  -3.601  0.00  0.00     0.164 HD
ATOM     12  H   UNL d   1      24.117 -15.312  -1.599  0.00  0.00     0.170 HD
BRANCH  10  13
ATOM     13  C   UNL d   1      26.625 -14.965  -5.325  0.00  0.00     0.162 C 
BRANCH  13  14
ATOM     14  C   UNL d   1      28.154 -14.796  -5.339  0.00  0.00    -0.040 A 
ATOM     15  C   UNL d   1      28.862 -14.286  -4.217  0.00  0.00     0.012 A 
ATOM     16  C   UNL d   1      30.261 -14.196  -4.215  0.00  0.00     0.043 A 
ATOM     17  C   UNL d   1      30.966 -14.585  -5.345  0.00  0.00     0.116 A 
ATOM     18  F   UNL d   1      32.301 -14.473  -5.365  0.00  0.00    -0.206 F 
ATOM     19  C   UNL d   1      30.300 -15.095  -6.453  0.00  0.00     0.043 A 
ATOM     20  C   UNL d   1      28.904 -15.212  -6.447  0.00  0.00     0.012 A 
ENDBRANCH  13  14
ENDBRANCH  10  13
ENDBRANCH   1   7
BRANCH   6  21
ATOM     21  N   UNL d   1      23.943 -17.715  -0.224  0.00  0.00    -0.379 N 
ATOM     22  C   UNL d   1      23.468 -19.083  -0.191  0.00  0.00     0.123 C 
ATOM     23  C   UNL d   1      22.327 -19.322  -1.137  0.00  0.00     0.020 C 
ATOM     24  C   UNL d   1      21.244 -18.265  -0.892  0.00  0.00     0.003 C 
ATOM     25  C   UNL d   1      21.822 -16.843  -0.895  0.00  0.00     0.020 C 
ATOM     26  C   UNL d   1      22.961 -16.695   0.108  0.00  0.00     0.123 C 
ENDBRANCH   6  21
BRANCH   3  27
ATOM     27  N   UNL d   1      29.459 -17.354  -1.149  0.00  0.00    -0.323 N 
ATOM     28  C   UNL d   1      29.979 -17.243  -2.437  0.00  0.00     0.257 C 
ATOM     29  O   UNL d   1      29.328 -17.066  -3.474  0.00  0.00    -0.267 OA
ATOM     30  H   UNL d   1      30.112 -17.438  -0.377  0.00  0.00     0.169 HD
BRANCH  28  31
ATOM     31  C   UNL d   1      31.436 -17.323  -2.667  0.00  0.00     0.054 A 
ATOM     32  C   UNL d   1      32.225 -16.402  -1.938  0.00  0.00     0.019 A 
ATOM     33  C   UNL d   1      33.553 -16.167  -2.280  0.00  0.00     0.001 A 
ATOM     34  C   UNL d   1      34.132 -16.903  -3.307  0.00  0.00     0.002 A 
ATOM     35  C   UNL d   1      33.373 -17.847  -4.005  0.00  0.00     0.025 A 
ATOM     36  C   UNL d   1      32.024 -18.060  -3.694  0.00  0.00     0.049 A 
ATOM     37 CL   UNL d   1      31.163 -19.205  -4.655  0.00  0.00    -0.083 Cl
ENDBRANCH  28  31
ENDBRANCH   3  27
TORSDOF 6
ENDMDL
