MODEL 1
REMARK VINA RESULT:   -31.200      0.000      0.000
REMARK INTER + INTRA:         -33.722
REMARK INTER:                 -32.990
REMARK INTRA:                  -0.732
REMARK CONF_INDEPENDENT:        1.790
REMARK UNBOUND:                -0.732
REMARK  6 active torsions:
REMARK  status: ('A' for Active; 'I' for Inactive)
REMARK    1  A    between atoms: C_6  and  S_7 
REMARK    2  A    between atoms: S_7  and  C_8 
REMARK    3  A    between atoms: C_8  and  C_9 
REMARK       I    between atoms: C_9  and  N_11 
REMARK    4  A    between atoms: N_11  and  C_12 
REMARK    5  A    between atoms: C_16  and  S_17 
REMARK    6  A    between atoms: S_17  and  N_18 
ROOT
ATOM      1  C   UNL d   1      26.195 -15.394  -2.462  0.00  0.00     0.078 A 
ATOM      2  C   UNL d   1      25.951 -14.674  -3.651  0.00  0.00     0.064 A 
ATOM      3 CL   UNL d   1      24.530 -13.709  -3.897  0.00  0.00    -0.082 Cl
ATOM      4  C   UNL d   1      26.920 -14.573  -4.654  0.00  0.00     0.051 A 
ATOM      5  C   UNL d   1      28.165 -15.171  -4.488  0.00  0.00     0.082 A 
ATOM      6  C   UNL d   1      28.460 -15.862  -3.311  0.00  0.00     0.051 A 
ATOM      7  C   UNL d   1      27.483 -15.957  -2.300  0.00  0.00     0.064 A 
ATOM      8 CL   UNL d   1      27.900 -16.849  -0.876  0.00  0.00    -0.082 Cl
ENDROOT
BRANCH   1   9
ATOM      9  N   UNL d   1      25.183 -15.538  -1.446  0.00  0.00    -0.324 N 
ATOM     10  C   UNL d   1      24.351 -16.668  -1.445  0.00  0.00     0.232 C 
ATOM     11  O   UNL d   1      24.513 -17.597  -2.234  0.00  0.00    -0.272 OA
ATOM     12  H   UNL d   1      25.344 -15.056  -0.568  0.00  0.00     0.169 HD
BRANCH  10  13
ATOM     13  C   UNL d   1      23.278 -16.713  -0.348  0.00  0.00     0.185 C 
BRANCH  13  14
ATOM     14  S   UNL d   1      22.978 -18.434   0.172  0.00  0.00    -0.080 SA
BRANCH  14  15
ATOM     15  C   UNL d   1      21.352 -18.898  -0.174  0.00  0.00     0.198 A 
ATOM     16  N   UNL d   1      20.849 -18.918  -1.392  0.00  0.00    -0.135 NA
ATOM     17  N   UNL d   1      19.543 -19.322  -1.270  0.00  0.00     0.018 NA
ATOM     18  N   UNL d   1      19.238 -19.550  -0.002  0.00  0.00    -0.003 NA
ATOM     19  N   UNL d   1      20.366 -19.288   0.683  0.00  0.00    -0.259 N 
ATOM     20  C   UNL d   1      20.372 -19.447   2.104  0.00  0.00     0.177 C 
ENDBRANCH  14  15
ENDBRANCH  13  14
ENDBRANCH  10  13
ENDBRANCH   1   9
BRANCH   5  21
ATOM     21  S   UNL d   1      29.366 -15.023  -5.789  0.00  0.00     0.256 S 
ATOM     22  O   UNL d   1      29.995 -13.726  -5.655  0.00  0.00    -0.201 OA
ATOM     23  O   UNL d   1      30.105 -16.254  -5.872  0.00  0.00    -0.201 OA
BRANCH  21  24
ATOM     24  N   UNL d   1      28.378 -14.971  -7.122  0.00  0.00    -0.324 N 
ATOM     25  H   UNL d   1      28.806 -14.859  -8.033  0.00  0.00     0.169 HD
ATOM     26  H   UNL d   1      27.382 -14.846  -6.967  0.00  0.00     0.169 HD
ENDBRANCH  21  24
ENDBRANCH   5  21
TORSDOF 6
ENDMDL
MODEL 2
REMARK VINA RESULT:   -30.894      1.204      1.312
REMARK INTER + INTRA:         -33.440
REMARK INTER:                 -32.684
REMARK INTRA:                  -0.755
REMARK CONF_INDEPENDENT:        1.790
REMARK UNBOUND:                -0.755
REMARK  6 active torsions:
REMARK  status: ('A' for Active; 'I' for Inactive)
REMARK    1  A    between atoms: C_6  and  S_7 
REMARK    2  A    between atoms: S_7  and  C_8 
REMARK    3  A    between atoms: C_8  and  C_9 
REMARK       I    between atoms: C_9  and  N_11 
REMARK    4  A    between atoms: N_11  and  C_12 
REMARK    5  A    between atoms: C_16  and  S_17 
REMARK    6  A    between atoms: S_17  and  N_18 
ROOT
ATOM      1  C   UNL d   1      26.868 -15.492  -2.596  0.00  0.00     0.078 A 
ATOM      2  C   UNL d   1      26.491 -14.815  -3.776  0.00  0.00     0.064 A 
ATOM      3 CL   UNL d   1      25.023 -13.900  -3.913  0.00  0.00    -0.082 Cl
ATOM      4  C   UNL d   1      27.359 -14.716  -4.867  0.00  0.00     0.051 A 
ATOM      5  C   UNL d   1      28.632 -15.272  -4.803  0.00  0.00     0.082 A 
ATOM      6  C   UNL d   1      29.058 -15.919  -3.640  0.00  0.00     0.051 A 
ATOM      7  C   UNL d   1      28.182 -16.012  -2.539  0.00  0.00     0.064 A 
ATOM      8 CL   UNL d   1      28.758 -16.848  -1.137  0.00  0.00    -0.082 Cl
ENDROOT
BRANCH   1   9
ATOM      9  N   UNL d   1      25.959 -15.635  -1.485  0.00  0.00    -0.324 N 
ATOM     10  C   UNL d   1      24.968 -16.627  -1.518  0.00  0.00     0.232 C 
ATOM     11  O   UNL d   1      24.900 -17.451  -2.429  0.00  0.00    -0.272 OA
ATOM     12  H   UNL d   1      26.285 -15.308  -0.582  0.00  0.00     0.169 HD
BRANCH  10  13
ATOM     13  C   UNL d   1      24.024 -16.676  -0.308  0.00  0.00     0.185 C 
BRANCH  13  14
ATOM     14  S   UNL d   1      22.301 -16.409  -0.840  0.00  0.00    -0.080 SA
BRANCH  14  15
ATOM     15  C   UNL d   1      21.445 -17.907  -0.895  0.00  0.00     0.198 A 
ATOM     16  N   UNL d   1      20.144 -17.990  -1.094  0.00  0.00    -0.135 NA
ATOM     17  N   UNL d   1      19.828 -19.325  -1.062  0.00  0.00     0.018 NA
ATOM     18  N   UNL d   1      20.908 -20.059  -0.848  0.00  0.00    -0.003 NA
ATOM     19  N   UNL d   1      21.918 -19.177  -0.747  0.00  0.00    -0.259 N 
ATOM     20  C   UNL d   1      23.245 -19.658  -0.516  0.00  0.00     0.177 C 
ENDBRANCH  14  15
ENDBRANCH  13  14
ENDBRANCH  10  13
ENDBRANCH   1   9
BRANCH   5  21
ATOM     21  S   UNL d   1      29.701 -15.128  -6.214  0.00  0.00     0.256 S 
ATOM     22  O   UNL d   1      30.730 -14.165  -5.885  0.00  0.00    -0.201 OA
ATOM     23  O   UNL d   1      29.985 -16.449  -6.709  0.00  0.00    -0.201 OA
BRANCH  21  24
ATOM     24  N   UNL d   1      28.677 -14.420  -7.311  0.00  0.00    -0.324 N 
ATOM     25  H   UNL d   1      28.778 -14.663  -8.290  0.00  0.00     0.169 HD
ATOM     26  H   UNL d   1      28.129 -13.624  -7.000  0.00  0.00     0.169 HD
ENDBRANCH  21  24
ENDBRANCH   5  21
TORSDOF 6
ENDMDL
MODEL 3
REMARK VINA RESULT:   -30.870      2.743      3.264
REMARK INTER + INTRA:         -33.354
REMARK INTER:                 -32.659
REMARK INTRA:                  -0.694
REMARK CONF_INDEPENDENT:        1.790
REMARK UNBOUND:                -0.694
REMARK  6 active torsions:
REMARK  status: ('A' for Active; 'I' for Inactive)
REMARK    1  A    between atoms: C_6  and  S_7 
REMARK    2  A    between atoms: S_7  and  C_8 
REMARK    3  A    between atoms: C_8  and  C_9 
REMARK       I    between atoms: C_9  and  N_11 
REMARK    4  A    between atoms: N_11  and  C_12 
REMARK    5  A    between atoms: C_16  and  S_17 
REMARK    6  A    between atoms: S_17  and  N_18 
ROOT
ATOM      1  C   UNL d   1      26.401 -16.865  -1.319  0.00  0.00     0.078 A 
ATOM      2  C   UNL d   1      26.936 -15.885  -2.183  0.00  0.00     0.064 A 
ATOM      3 CL   UNL d   1      26.043 -15.201  -3.504  0.00  0.00    -0.082 Cl
ATOM      4  C   UNL d   1      28.177 -15.293  -1.933  0.00  0.00     0.051 A 
ATOM      5  C   UNL d   1      28.908 -15.647  -0.804  0.00  0.00     0.082 A 
ATOM      6  C   UNL d   1      28.398 -16.586   0.096  0.00  0.00     0.051 A 
ATOM      7  C   UNL d   1      27.143 -17.177  -0.156  0.00  0.00     0.064 A 
ATOM      8 CL   UNL d   1      26.578 -18.351   0.982  0.00  0.00    -0.082 Cl
ENDROOT
BRANCH   1   9
ATOM      9  N   UNL d   1      25.142 -17.509  -1.598  0.00  0.00    -0.324 N 
ATOM     10  C   UNL d   1      23.985 -17.104  -0.915  0.00  0.00     0.232 C 
ATOM     11  O   UNL d   1      23.985 -16.145  -0.144  0.00  0.00    -0.272 OA
ATOM     12  H   UNL d   1      25.038 -17.936  -2.512  0.00  0.00     0.169 HD
BRANCH  10  13
ATOM     13  C   UNL d   1      22.700 -17.875  -1.250  0.00  0.00     0.185 C 
BRANCH  13  14
ATOM     14  S   UNL d   1      22.000 -18.623   0.257  0.00  0.00    -0.080 SA
BRANCH  14  15
ATOM     15  C   UNL d   1      20.483 -19.371  -0.086  0.00  0.00     0.198 A 
ATOM     16  N   UNL d   1      19.905 -19.325  -1.270  0.00  0.00    -0.135 NA
ATOM     17  N   UNL d   1      18.723 -20.014  -1.155  0.00  0.00     0.018 NA
ATOM     18  N   UNL d   1      18.569 -20.482   0.073  0.00  0.00    -0.003 NA
ATOM     19  N   UNL d   1      19.667 -20.084   0.741  0.00  0.00    -0.259 N 
ATOM     20  C   UNL d   1      19.813 -20.439   2.119  0.00  0.00     0.177 C 
ENDBRANCH  14  15
ENDBRANCH  13  14
ENDBRANCH  10  13
ENDBRANCH   1   9
BRANCH   5  21
ATOM     21  S   UNL d   1      30.483 -14.874  -0.527  0.00  0.00     0.256 S 
ATOM     22  O   UNL d   1      31.378 -15.321  -1.573  0.00  0.00    -0.201 OA
ATOM     23  O   UNL d   1      30.264 -13.487  -0.216  0.00  0.00    -0.201 OA
BRANCH  21  24
ATOM     24  N   UNL d   1      30.948 -15.610   0.887  0.00  0.00    -0.324 N 
ATOM     25  H   UNL d   1      30.239 -15.799   1.586  0.00  0.00     0.169 HD
ATOM     26  H   UNL d   1      31.941 -15.659   1.089  0.00  0.00     0.169 HD
ENDBRANCH  21  24
ENDBRANCH   5  21
TORSDOF 6
ENDMDL
MODEL 4
REMARK VINA RESULT:   -30.863      2.665      3.639
REMARK INTER + INTRA:         -33.350
REMARK INTER:                 -32.653
REMARK INTRA:                  -0.697
REMARK CONF_INDEPENDENT:        1.790
REMARK UNBOUND:                -0.697
REMARK  6 active torsions:
REMARK  status: ('A' for Active; 'I' for Inactive)
REMARK    1  A    between atoms: C_6  and  S_7 
REMARK    2  A    between atoms: S_7  and  C_8 
REMARK    3  A    between atoms: C_8  and  C_9 
REMARK       I    between atoms: C_9  and  N_11 
REMARK    4  A    between atoms: N_11  and  C_12 
REMARK    5  A    between atoms: C_16  and  S_17 
REMARK    6  A    between atoms: S_17  and  N_18 
ROOT
ATOM      1  C   UNL d   1      26.284 -16.708  -1.435  0.00  0.00     0.078 A 
ATOM      2  C   UNL d   1      27.128 -17.140  -0.389  0.00  0.00     0.064 A 
ATOM      3 CL   UNL d   1      26.818 -18.569   0.546  0.00  0.00    -0.082 Cl
ATOM      4  C   UNL d   1      28.355 -16.520  -0.140  0.00  0.00     0.051 A 
ATOM      5  C   UNL d   1      28.782 -15.465  -0.939  0.00  0.00     0.082 A 
ATOM      6  C   UNL d   1      27.995 -15.030  -2.008  0.00  0.00     0.051 A 
ATOM      7  C   UNL d   1      26.760 -15.662  -2.260  0.00  0.00     0.064 A 
ATOM      8 CL   UNL d   1      25.818 -15.062  -3.582  0.00  0.00    -0.082 Cl
ENDROOT
BRANCH   1   9
ATOM      9  N   UNL d   1      24.999 -17.317  -1.668  0.00  0.00    -0.324 N 
ATOM     10  C   UNL d   1      23.883 -16.896  -0.928  0.00  0.00     0.232 C 
ATOM     11  O   UNL d   1      23.942 -15.952  -0.142  0.00  0.00    -0.272 OA
ATOM     12  H   UNL d   1      24.843 -17.726  -2.584  0.00  0.00     0.169 HD
BRANCH  10  13
ATOM     13  C   UNL d   1      22.566 -17.629  -1.217  0.00  0.00     0.185 C 
BRANCH  13  14
ATOM     14  S   UNL d   1      22.054 -18.607   0.233  0.00  0.00    -0.080 SA
BRANCH  14  15
ATOM     15  C   UNL d   1      20.510 -19.329  -0.037  0.00  0.00     0.198 A 
ATOM     16  N   UNL d   1      19.904 -19.325  -1.207  0.00  0.00    -0.135 NA
ATOM     17  N   UNL d   1      18.708 -19.976  -1.032  0.00  0.00     0.018 NA
ATOM     18  N   UNL d   1      18.572 -20.379   0.221  0.00  0.00    -0.003 NA
ATOM     19  N   UNL d   1      19.696 -19.979   0.843  0.00  0.00    -0.259 N 
ATOM     20  C   UNL d   1      19.866 -20.270   2.233  0.00  0.00     0.177 C 
ENDBRANCH  14  15
ENDBRANCH  13  14
ENDBRANCH  10  13
ENDBRANCH   1   9
BRANCH   5  21
ATOM     21  S   UNL d   1      30.346 -14.701  -0.584  0.00  0.00     0.256 S 
ATOM     22  O   UNL d   1      31.271 -15.097  -1.624  0.00  0.00    -0.201 OA
ATOM     23  O   UNL d   1      30.112 -13.330  -0.216  0.00  0.00    -0.201 OA
BRANCH  21  24
ATOM     24  N   UNL d   1      30.776 -15.499   0.807  0.00  0.00    -0.324 N 
ATOM     25  H   UNL d   1      31.754 -15.718   0.952  0.00  0.00     0.169 HD
ATOM     26  H   UNL d   1      30.034 -15.917   1.359  0.00  0.00     0.169 HD
ENDBRANCH  21  24
ENDBRANCH   5  21
TORSDOF 6
ENDMDL
MODEL 5
REMARK VINA RESULT:   -30.784      0.445      1.961
REMARK INTER + INTRA:         -33.327
REMARK INTER:                 -32.574
REMARK INTRA:                  -0.753
REMARK CONF_INDEPENDENT:        1.790
REMARK UNBOUND:                -0.753
REMARK  6 active torsions:
REMARK  status: ('A' for Active; 'I' for Inactive)
REMARK    1  A    between atoms: C_6  and  S_7 
REMARK    2  A    between atoms: S_7  and  C_8 
REMARK    3  A    between atoms: C_8  and  C_9 
REMARK       I    between atoms: C_9  and  N_11 
REMARK    4  A    between atoms: N_11  and  C_12 
REMARK    5  A    between atoms: C_16  and  S_17 
REMARK    6  A    between atoms: S_17  and  N_18 
ROOT
ATOM      1  C   UNL d   1      26.559 -15.424  -2.351  0.00  0.00     0.078 A 
ATOM      2  C   UNL d   1      27.856 -15.957  -2.190  0.00  0.00     0.064 A 
ATOM      3 CL   UNL d   1      28.280 -17.039  -0.901  0.00  0.00    -0.082 Cl
ATOM      4  C   UNL d   1      28.848 -15.761  -3.155  0.00  0.00     0.051 A 
ATOM      5  C   UNL d   1      28.567 -15.047  -4.314  0.00  0.00     0.082 A 
ATOM      6  C   UNL d   1      27.286 -14.534  -4.530  0.00  0.00     0.051 A 
ATOM      7  C   UNL d   1      26.286 -14.738  -3.557  0.00  0.00     0.064 A 
ATOM      8 CL   UNL d   1      24.726 -14.056  -3.870  0.00  0.00    -0.082 Cl
ENDROOT
BRANCH   1   9
ATOM      9  N   UNL d   1      25.546 -15.587  -1.338  0.00  0.00    -0.324 N 
ATOM     10  C   UNL d   1      24.684 -16.693  -1.384  0.00  0.00     0.232 C 
ATOM     11  O   UNL d   1      24.820 -17.591  -2.214  0.00  0.00    -0.272 OA
ATOM     12  H   UNL d   1      25.723 -15.149  -0.439  0.00  0.00     0.169 HD
BRANCH  10  13
ATOM     13  C   UNL d   1      23.614 -16.760  -0.286  0.00  0.00     0.185 C 
BRANCH  13  14
ATOM     14  S   UNL d   1      23.288 -18.493   0.175  0.00  0.00    -0.080 SA
BRANCH  14  15
ATOM     15  C   UNL d   1      21.650 -18.914  -0.171  0.00  0.00     0.198 A 
ATOM     16  N   UNL d   1      21.161 -18.972  -1.393  0.00  0.00    -0.135 NA
ATOM     17  N   UNL d   1      19.840 -19.324  -1.270  0.00  0.00     0.018 NA
ATOM     18  N   UNL d   1      19.513 -19.484   0.003  0.00  0.00    -0.003 NA
ATOM     19  N   UNL d   1      20.641 -19.231   0.690  0.00  0.00    -0.259 N 
ATOM     20  C   UNL d   1      20.625 -19.324   2.117  0.00  0.00     0.177 C 
ENDBRANCH  14  15
ENDBRANCH  13  14
ENDBRANCH  10  13
ENDBRANCH   1   9
BRANCH   5  21
ATOM     21  S   UNL d   1      29.859 -14.817  -5.512  0.00  0.00     0.256 S 
ATOM     22  O   UNL d   1      30.673 -13.705  -5.068  0.00  0.00    -0.201 OA
ATOM     23  O   UNL d   1      30.402 -16.105  -5.853  0.00  0.00    -0.201 OA
BRANCH  21  24
ATOM     24  N   UNL d   1      28.980 -14.308  -6.826  0.00  0.00    -0.324 N 
ATOM     25  H   UNL d   1      29.185 -14.720  -7.729  0.00  0.00     0.169 HD
ATOM     26  H   UNL d   1      28.419 -13.469  -6.722  0.00  0.00     0.169 HD
ENDBRANCH  21  24
ENDBRANCH   5  21
TORSDOF 6
ENDMDL
MODEL 6
REMARK VINA RESULT:   -30.272      2.692      3.341
REMARK INTER + INTRA:         -32.825
REMARK INTER:                 -32.061
REMARK INTRA:                  -0.764
REMARK CONF_INDEPENDENT:        1.790
REMARK UNBOUND:                -0.764
REMARK  6 active torsions:
REMARK  status: ('A' for Active; 'I' for Inactive)
REMARK    1  A    between atoms: C_6  and  S_7 
REMARK    2  A    between atoms: S_7  and  C_8 
REMARK    3  A    between atoms: C_8  and  C_9 
REMARK       I    between atoms: C_9  and  N_11 
REMARK    4  A    between atoms: N_11  and  C_12 
REMARK    5  A    between atoms: C_16  and  S_17 
REMARK    6  A    between atoms: S_17  and  N_18 
ROOT
ATOM      1  C   UNL d   1      26.034 -14.967  -2.220  0.00  0.00     0.078 A 
ATOM      2  C   UNL d   1      26.316 -14.035  -1.199  0.00  0.00     0.064 A 
ATOM      3 CL   UNL d   1      26.468 -14.480   0.471  0.00  0.00    -0.082 Cl
ATOM      4  C   UNL d   1      26.641 -12.708  -1.494  0.00  0.00     0.051 A 
ATOM      5  C   UNL d   1      26.713 -12.281  -2.816  0.00  0.00     0.082 A 
ATOM      6  C   UNL d   1      26.477 -13.181  -3.858  0.00  0.00     0.051 A 
ATOM      7  C   UNL d   1      26.155 -14.520  -3.557  0.00  0.00     0.064 A 
ATOM      8 CL   UNL d   1      25.848 -15.580  -4.890  0.00  0.00    -0.082 Cl
ENDROOT
BRANCH   1   9
ATOM      9  N   UNL d   1      25.655 -16.325  -1.918  0.00  0.00    -0.324 N 
ATOM     10  C   UNL d   1      24.343 -16.609  -1.509  0.00  0.00     0.232 C 
ATOM     11  O   UNL d   1      23.467 -15.745  -1.486  0.00  0.00    -0.272 OA
ATOM     12  H   UNL d   1      26.190 -17.061  -2.367  0.00  0.00     0.169 HD
BRANCH  10  13
ATOM     13  C   UNL d   1      24.044 -18.076  -1.172  0.00  0.00     0.185 C 
BRANCH  13  14
ATOM     14  S   UNL d   1      22.987 -18.182   0.308  0.00  0.00    -0.080 SA
BRANCH  14  15
ATOM     15  C   UNL d   1      21.424 -18.788  -0.106  0.00  0.00     0.198 A 
ATOM     16  N   UNL d   1      20.947 -18.779  -1.334  0.00  0.00    -0.135 NA
ATOM     17  N   UNL d   1      19.688 -19.324  -1.269  0.00  0.00     0.018 NA
ATOM     18  N   UNL d   1      19.388 -19.666  -0.027  0.00  0.00    -0.003 NA
ATOM     19  N   UNL d   1      20.470 -19.335   0.701  0.00  0.00    -0.259 N 
ATOM     20  C   UNL d   1      20.469 -19.586   2.109  0.00  0.00     0.177 C 
ENDBRANCH  14  15
ENDBRANCH  13  14
ENDBRANCH  10  13
ENDBRANCH   1   9
BRANCH   5  21
ATOM     21  S   UNL d   1      27.125 -10.585  -3.146  0.00  0.00     0.256 S 
ATOM     22  O   UNL d   1      27.568  -9.993  -1.902  0.00  0.00    -0.201 OA
ATOM     23  O   UNL d   1      27.890 -10.528  -4.363  0.00  0.00    -0.201 OA
BRANCH  21  24
ATOM     24  N   UNL d   1      25.627  -9.963  -3.498  0.00  0.00    -0.324 N 
ATOM     25  H   UNL d   1      25.400  -9.035  -3.160  0.00  0.00     0.169 HD
ATOM     26  H   UNL d   1      24.922 -10.600  -3.856  0.00  0.00     0.169 HD
ENDBRANCH  21  24
ENDBRANCH   5  21
TORSDOF 6
ENDMDL
MODEL 7
REMARK VINA RESULT:   -29.875      3.994      4.875
REMARK INTER + INTRA:         -32.464
REMARK INTER:                 -31.665
REMARK INTRA:                  -0.799
REMARK CONF_INDEPENDENT:        1.790
REMARK UNBOUND:                -0.799
REMARK  6 active torsions:
REMARK  status: ('A' for Active; 'I' for Inactive)
REMARK    1  A    between atoms: C_6  and  S_7 
REMARK    2  A    between atoms: S_7  and  C_8 
REMARK    3  A    between atoms: C_8  and  C_9 
REMARK       I    between atoms: C_9  and  N_11 
REMARK    4  A    between atoms: N_11  and  C_12 
REMARK    5  A    between atoms: C_16  and  S_17 
REMARK    6  A    between atoms: S_17  and  N_18 
ROOT
ATOM      1  C   UNL d   1      27.717 -15.219  -0.485  0.00  0.00     0.078 A 
ATOM      2  C   UNL d   1      28.937 -15.834  -0.837  0.00  0.00     0.064 A 
ATOM      3 CL   UNL d   1      29.155 -16.725  -2.311  0.00  0.00    -0.082 Cl
ATOM      4  C   UNL d   1      30.098 -15.635  -0.085  0.00  0.00     0.051 A 
ATOM      5  C   UNL d   1      30.077 -14.801   1.027  0.00  0.00     0.082 A 
ATOM      6  C   UNL d   1      28.899 -14.143   1.390  0.00  0.00     0.051 A 
ATOM      7  C   UNL d   1      27.731 -14.342   0.625  0.00  0.00     0.064 A 
ATOM      8 CL   UNL d   1      26.298 -13.520   1.140  0.00  0.00    -0.082 Cl
ENDROOT
BRANCH   1   9
ATOM      9  N   UNL d   1      26.508 -15.457  -1.233  0.00  0.00    -0.324 N 
ATOM     10  C   UNL d   1      25.634 -16.482  -0.838  0.00  0.00     0.232 C 
ATOM     11  O   UNL d   1      25.816 -17.134   0.189  0.00  0.00    -0.272 OA
ATOM     12  H   UNL d   1      26.128 -14.672  -1.752  0.00  0.00     0.169 HD
BRANCH  10  13
ATOM     13  C   UNL d   1      24.393 -16.685  -1.718  0.00  0.00     0.185 C 
BRANCH  13  14
ATOM     14  S   UNL d   1      22.879 -16.317  -0.772  0.00  0.00    -0.080 SA
BRANCH  14  15
ATOM     15  C   UNL d   1      21.754 -17.621  -0.898  0.00  0.00     0.198 A 
ATOM     16  N   UNL d   1      20.473 -17.448  -1.155  0.00  0.00    -0.135 NA
ATOM     17  N   UNL d   1      19.904 -18.697  -1.166  0.00  0.00     0.018 NA
ATOM     18  N   UNL d   1      20.812 -19.629  -0.923  0.00  0.00    -0.003 NA
ATOM     19  N   UNL d   1      21.967 -18.960  -0.757  0.00  0.00    -0.259 N 
ATOM     20  C   UNL d   1      23.165 -19.692  -0.481  0.00  0.00     0.177 C 
ENDBRANCH  14  15
ENDBRANCH  13  14
ENDBRANCH  10  13
ENDBRANCH   1   9
BRANCH   5  21
ATOM     21  S   UNL d   1      31.573 -14.579   1.959  0.00  0.00     0.256 S 
ATOM     22  O   UNL d   1      32.504 -15.605   1.540  0.00  0.00    -0.201 OA
ATOM     23  O   UNL d   1      31.899 -13.178   1.976  0.00  0.00    -0.201 OA
BRANCH  21  24
ATOM     24  N   UNL d   1      31.050 -14.964   3.487  0.00  0.00    -0.324 N 
ATOM     25  H   UNL d   1      31.553 -14.579   4.278  0.00  0.00     0.169 HD
ATOM     26  H   UNL d   1      30.383 -15.723   3.581  0.00  0.00     0.169 HD
ENDBRANCH  21  24
ENDBRANCH   5  21
TORSDOF 6
ENDMDL
MODEL 8
REMARK VINA RESULT:   -29.720      2.569      3.380
REMARK INTER + INTRA:         -32.178
REMARK INTER:                 -31.510
REMARK INTRA:                  -0.668
REMARK CONF_INDEPENDENT:        1.790
REMARK UNBOUND:                -0.668
REMARK  6 active torsions:
REMARK  status: ('A' for Active; 'I' for Inactive)
REMARK    1  A    between atoms: C_6  and  S_7 
REMARK    2  A    between atoms: S_7  and  C_8 
REMARK    3  A    between atoms: C_8  and  C_9 
REMARK       I    between atoms: C_9  and  N_11 
REMARK    4  A    between atoms: N_11  and  C_12 
REMARK    5  A    between atoms: C_16  and  S_17 
REMARK    6  A    between atoms: S_17  and  N_18 
ROOT
ATOM      1  C   UNL d   1      26.341 -15.405  -2.122  0.00  0.00     0.078 A 
ATOM      2  C   UNL d   1      27.534 -15.445  -1.369  0.00  0.00     0.064 A 
ATOM      3 CL   UNL d   1      28.177 -16.908  -0.694  0.00  0.00    -0.082 Cl
ATOM      4  C   UNL d   1      28.355 -14.321  -1.246  0.00  0.00     0.051 A 
ATOM      5  C   UNL d   1      28.019 -13.134  -1.889  0.00  0.00     0.082 A 
ATOM      6  C   UNL d   1      26.866 -13.062  -2.674  0.00  0.00     0.051 A 
ATOM      7  C   UNL d   1      26.043 -14.200  -2.800  0.00  0.00     0.064 A 
ATOM      8 CL   UNL d   1      24.615 -14.041  -3.765  0.00  0.00    -0.082 Cl
ENDROOT
BRANCH   1   9
ATOM      9  N   UNL d   1      25.469 -16.549  -2.214  0.00  0.00    -0.324 N 
ATOM     10  C   UNL d   1      24.818 -17.025  -1.066  0.00  0.00     0.232 C 
ATOM     11  O   UNL d   1      24.892 -16.440   0.014  0.00  0.00    -0.272 OA
ATOM     12  H   UNL d   1      25.046 -16.732  -3.119  0.00  0.00     0.169 HD
BRANCH  10  13
ATOM     13  C   UNL d   1      23.941 -18.270  -1.254  0.00  0.00     0.185 C 
BRANCH  13  14
ATOM     14  S   UNL d   1      22.986 -18.607   0.261  0.00  0.00    -0.080 SA
BRANCH  14  15
ATOM     15  C   UNL d   1      21.346 -18.982  -0.127  0.00  0.00     0.198 A 
ATOM     16  N   UNL d   1      20.881 -19.001  -1.359  0.00  0.00    -0.135 NA
ATOM     17  N   UNL d   1      19.550 -19.325  -1.270  0.00  0.00     0.018 NA
ATOM     18  N   UNL d   1      19.193 -19.505  -0.008  0.00  0.00    -0.003 NA
ATOM     19  N   UNL d   1      20.314 -19.294   0.707  0.00  0.00    -0.259 N 
ATOM     20  C   UNL d   1      20.267 -19.420   2.131  0.00  0.00     0.177 C 
ENDBRANCH  14  15
ENDBRANCH  13  14
ENDBRANCH  10  13
ENDBRANCH   1   9
BRANCH   5  21
ATOM     21  S   UNL d   1      29.088 -11.727  -1.702  0.00  0.00     0.256 S 
ATOM     22  O   UNL d   1      28.861 -10.854  -2.834  0.00  0.00    -0.201 OA
ATOM     23  O   UNL d   1      29.024 -11.281  -0.336  0.00  0.00    -0.201 OA
BRANCH  21  24
ATOM     24  N   UNL d   1      30.576 -12.437  -1.901  0.00  0.00    -0.324 N 
ATOM     25  H   UNL d   1      30.641 -13.445  -1.825  0.00  0.00     0.169 HD
ATOM     26  H   UNL d   1      31.392 -11.834  -1.885  0.00  0.00     0.169 HD
ENDBRANCH  21  24
ENDBRANCH   5  21
TORSDOF 6
ENDMDL
MODEL 9
REMARK VINA RESULT:   -28.934      1.782      2.081
REMARK INTER + INTRA:         -31.432
REMARK INTER:                 -30.723
REMARK INTRA:                  -0.709
REMARK CONF_INDEPENDENT:        1.790
REMARK UNBOUND:                -0.709
REMARK  6 active torsions:
REMARK  status: ('A' for Active; 'I' for Inactive)
REMARK    1  A    between atoms: C_6  and  S_7 
REMARK    2  A    between atoms: S_7  and  C_8 
REMARK    3  A    between atoms: C_8  and  C_9 
REMARK       I    between atoms: C_9  and  N_11 
REMARK    4  A    between atoms: N_11  and  C_12 
REMARK    5  A    between atoms: C_16  and  S_17 
REMARK    6  A    between atoms: S_17  and  N_18 
ROOT
ATOM      1  C   UNL d   1      26.509 -15.447  -1.560  0.00  0.00     0.078 A 
ATOM      2  C   UNL d   1      26.109 -14.779  -2.737  0.00  0.00     0.064 A 
ATOM      3 CL   UNL d   1      24.448 -14.453  -3.121  0.00  0.00    -0.082 Cl
ATOM      4  C   UNL d   1      27.044 -14.202  -3.601  0.00  0.00     0.051 A 
ATOM      5  C   UNL d   1      28.401 -14.259  -3.304  0.00  0.00     0.082 A 
ATOM      6  C   UNL d   1      28.837 -14.878  -2.130  0.00  0.00     0.051 A 
ATOM      7  C   UNL d   1      27.891 -15.454  -1.258  0.00  0.00     0.064 A 
ATOM      8 CL   UNL d   1      28.495 -16.229   0.166  0.00  0.00    -0.082 Cl
ENDROOT
BRANCH   1   9
ATOM      9  N   UNL d   1      25.551 -16.081  -0.690  0.00  0.00    -0.324 N 
ATOM     10  C   UNL d   1      25.633 -17.461  -0.448  0.00  0.00     0.232 C 
ATOM     11  O   UNL d   1      26.559 -18.144  -0.884  0.00  0.00    -0.272 OA
ATOM     12  H   UNL d   1      25.109 -15.495   0.011  0.00  0.00     0.169 HD
BRANCH  10  13
ATOM     13  C   UNL d   1      24.547 -18.053   0.460  0.00  0.00     0.185 C 
BRANCH  13  14
ATOM     14  S   UNL d   1      23.596 -19.323  -0.437  0.00  0.00    -0.080 SA
BRANCH  14  15
ATOM     15  C   UNL d   1      22.012 -18.746  -0.807  0.00  0.00     0.198 A 
ATOM     16  N   UNL d   1      20.975 -19.540  -0.982  0.00  0.00    -0.135 NA
ATOM     17  N   UNL d   1      19.905 -18.730  -1.268  0.00  0.00     0.018 NA
ATOM     18  N   UNL d   1      20.266 -17.457  -1.270  0.00  0.00    -0.003 NA
ATOM     19  N   UNL d   1      21.580 -17.464  -0.980  0.00  0.00    -0.259 N 
ATOM     20  C   UNL d   1      22.284 -16.222  -0.898  0.00  0.00     0.177 C 
ENDBRANCH  14  15
ENDBRANCH  13  14
ENDBRANCH  10  13
ENDBRANCH   1   9
BRANCH   5  21
ATOM     21  S   UNL d   1      29.556 -13.517  -4.431  0.00  0.00     0.256 S 
ATOM     22  O   UNL d   1      30.871 -13.610  -3.832  0.00  0.00    -0.201 OA
ATOM     23  O   UNL d   1      29.261 -13.982  -5.760  0.00  0.00    -0.201 OA
BRANCH  21  24
ATOM     24  N   UNL d   1      29.081 -11.928  -4.367  0.00  0.00    -0.324 N 
ATOM     25  H   UNL d   1      29.102 -11.385  -5.222  0.00  0.00     0.169 HD
ATOM     26  H   UNL d   1      28.982 -11.501  -3.451  0.00  0.00     0.169 HD
ENDBRANCH  21  24
ENDBRANCH   5  21
TORSDOF 6
ENDMDL
