MODEL 1
REMARK VINA RESULT:    -8.686      0.000      0.000
REMARK INTER + INTRA:         -11.255
REMARK INTER:                  -9.581
REMARK INTRA:                  -1.675
REMARK CONF_INDEPENDENT:        0.895
REMARK UNBOUND:                -1.675
REMARK  3 active torsions:
REMARK  status: ('A' for Active; 'I' for Inactive)
REMARK    1  A    between atoms: C_9  and  N_10 
REMARK    2  A    between atoms: C_20  and  C_21 
REMARK    3  A    between atoms: C_26  and  N_27 
ROOT
ATOM      1  N   UNL d   1      28.530 -15.958  -4.055  0.00  0.00    -0.101 N 
ATOM      2  C   UNL d   1      28.742 -15.624  -2.858  0.00  0.00    -0.005 C 
ATOM      3  C   UNL d   1      28.998 -15.222  -1.415  0.00  0.00     0.184 C 
ATOM      4  C   UNL d   1      29.743 -16.162  -0.532  0.00  0.00     0.241 C 
ATOM      5  O   UNL d   1      30.075 -17.287  -0.878  0.00  0.00    -0.272 OA
ATOM      6  N   UNL d   1      29.987 -15.620   0.741  0.00  0.00    -0.309 N 
ATOM      7  C   UNL d   1      29.094 -14.742   1.381  0.00  0.00     0.162 C 
ATOM      8  N   UNL d   1      29.232 -14.546   2.749  0.00  0.00    -0.046 NA
ATOM      9  C   UNL d   1      28.242 -13.997   3.414  0.00  0.00     0.707 C 
ATOM     10  N   UNL d   1      27.146 -13.510   2.749  0.00  0.00    -0.154 N 
ATOM     11  C   UNL d   1      27.001 -13.555   1.399  0.00  0.00     0.270 C 
ATOM     12  O   UNL d   1      26.077 -13.011   0.805  0.00  0.00    -0.267 OA
ATOM     13  C   UNL d   1      28.017 -14.331   0.686  0.00  0.00     0.067 C 
ATOM     14  C   UNL d   1      27.731 -14.714  -0.735  0.00  0.00     0.089 C 
ATOM     15  H   UNL d   1      30.564 -16.186   1.354  0.00  0.00     0.170 HD
ATOM     16  H   UNL d   1      26.485 -12.934   3.243  0.00  0.00     0.187 HD
ENDROOT
BRANCH  14  17
ATOM     17  C   UNL d   1      26.569 -15.706  -0.930  0.00  0.00    -0.015 C 
ATOM     18  C   UNL d   1      26.556 -16.824  -0.058  0.00  0.00     0.010 C 
ATOM     19  C   UNL d   1      25.395 -17.586   0.119  0.00  0.00     0.001 C 
ATOM     20  C   UNL d   1      24.320 -17.429  -0.743  0.00  0.00     0.002 C 
ATOM     21  C   UNL d   1      24.356 -16.436  -1.702  0.00  0.00     0.037 C 
ATOM     22  C   UNL d   1      25.423 -15.534  -1.752  0.00  0.00     0.110 C 
BRANCH  22  23
ATOM     23  N   UNL d   1      25.208 -14.496  -2.763  0.00  0.00    -0.115 N 
ATOM     24  O   UNL d   1      24.780 -14.825  -3.867  0.00  0.00    -0.532 OA
ATOM     25  O   UNL d   1      25.581 -13.351  -2.484  0.00  0.00    -0.532 OA
ENDBRANCH  22  23
ENDBRANCH  14  17
BRANCH   9  26
ATOM     26  N   UNL d   1      28.229 -13.761   4.788  0.00  0.00    -0.216 N 
ATOM     27  C   UNL d   1      27.780 -12.525   5.462  0.00  0.00     0.141 C 
ATOM     28  C   UNL d   1      28.894 -11.992   6.379  0.00  0.00     0.020 C 
ATOM     29  C   UNL d   1      29.375 -13.059   7.364  0.00  0.00     0.003 C 
ATOM     30  C   UNL d   1      29.693 -14.367   6.636  0.00  0.00     0.020 C 
ATOM     31  C   UNL d   1      28.532 -14.826   5.740  0.00  0.00     0.141 C 
ENDBRANCH   9  26
TORSDOF 3
ENDMDL
MODEL 2
REMARK VINA RESULT:    -7.767      3.009      7.532
REMARK INTER + INTRA:         -10.240
REMARK INTER:                  -8.662
REMARK INTRA:                  -1.578
REMARK CONF_INDEPENDENT:        0.895
REMARK UNBOUND:                -1.578
REMARK  3 active torsions:
REMARK  status: ('A' for Active; 'I' for Inactive)
REMARK    1  A    between atoms: C_9  and  N_10 
REMARK    2  A    between atoms: C_20  and  C_21 
REMARK    3  A    between atoms: C_26  and  N_27 
ROOT
ATOM      1  N   UNL d   1      28.815 -11.026   7.583  0.00  0.00    -0.101 N 
ATOM      2  C   UNL d   1      28.536 -11.841   6.662  0.00  0.00    -0.005 C 
ATOM      3  C   UNL d   1      28.201 -12.823   5.551  0.00  0.00     0.184 C 
ATOM      4  C   UNL d   1      29.182 -13.895   5.224  0.00  0.00     0.241 C 
ATOM      5  O   UNL d   1      30.291 -13.967   5.734  0.00  0.00    -0.272 OA
ATOM      6  N   UNL d   1      28.699 -14.782   4.248  0.00  0.00    -0.309 N 
ATOM      7  C   UNL d   1      27.848 -14.378   3.203  0.00  0.00     0.162 C 
ATOM      8  N   UNL d   1      27.715 -15.215   2.103  0.00  0.00    -0.046 NA
ATOM      9  C   UNL d   1      27.194 -14.733   0.999  0.00  0.00     0.707 C 
ATOM     10  N   UNL d   1      26.673 -13.464   0.974  0.00  0.00    -0.154 N 
ATOM     11  C   UNL d   1      26.657 -12.634   2.049  0.00  0.00     0.270 C 
ATOM     12  O   UNL d   1      26.084 -11.551   2.052  0.00  0.00    -0.267 OA
ATOM     13  C   UNL d   1      27.402 -13.108   3.217  0.00  0.00     0.067 C 
ATOM     14  C   UNL d   1      27.720 -12.112   4.291  0.00  0.00     0.089 C 
ATOM     15  H   UNL d   1      29.294 -15.579   4.049  0.00  0.00     0.170 HD
ATOM     16  H   UNL d   1      26.118 -13.174   0.186  0.00  0.00     0.187 HD
ENDROOT
BRANCH  14  17
ATOM     17  C   UNL d   1      28.699 -10.994   3.886  0.00  0.00    -0.015 C 
ATOM     18  C   UNL d   1      30.034 -11.400   3.635  0.00  0.00     0.010 C 
ATOM     19  C   UNL d   1      30.914 -10.577   2.923  0.00  0.00     0.001 C 
ATOM     20  C   UNL d   1      30.587  -9.251   2.680  0.00  0.00     0.002 C 
ATOM     21  C   UNL d   1      29.340  -8.780   3.040  0.00  0.00     0.037 C 
ATOM     22  C   UNL d   1      28.377  -9.648   3.563  0.00  0.00     0.110 C 
BRANCH  22  23
ATOM     23  N   UNL d   1      27.093  -8.973   3.767  0.00  0.00    -0.115 N 
ATOM     24  O   UNL d   1      26.196  -9.575   4.353  0.00  0.00    -0.532 OA
ATOM     25  O   UNL d   1      26.944  -7.868   3.233  0.00  0.00    -0.532 OA
ENDBRANCH  22  23
ENDBRANCH  14  17
BRANCH   9  26
ATOM     26  N   UNL d   1      27.020 -15.446  -0.187  0.00  0.00    -0.216 N 
ATOM     27  C   UNL d   1      27.133 -14.908  -1.558  0.00  0.00     0.141 C 
ATOM     28  C   UNL d   1      25.847 -15.208  -2.347  0.00  0.00     0.020 C 
ATOM     29  C   UNL d   1      25.503 -16.698  -2.325  0.00  0.00     0.003 C 
ATOM     30  C   UNL d   1      25.538 -17.242  -0.896  0.00  0.00     0.020 C 
ATOM     31  C   UNL d   1      26.852 -16.896  -0.178  0.00  0.00     0.141 C 
ENDBRANCH   9  26
TORSDOF 3
ENDMDL
MODEL 3
REMARK VINA RESULT:    -7.589      2.140      3.746
REMARK INTER + INTRA:         -10.024
REMARK INTER:                  -8.484
REMARK INTRA:                  -1.540
REMARK CONF_INDEPENDENT:        0.895
REMARK UNBOUND:                -1.540
REMARK  3 active torsions:
REMARK  status: ('A' for Active; 'I' for Inactive)
REMARK    1  A    between atoms: C_9  and  N_10 
REMARK    2  A    between atoms: C_20  and  C_21 
REMARK    3  A    between atoms: C_26  and  N_27 
ROOT
ATOM      1  N   UNL d   1      25.667 -12.552  -4.989  0.00  0.00    -0.101 N 
ATOM      2  C   UNL d   1      25.935 -12.613  -3.758  0.00  0.00    -0.005 C 
ATOM      3  C   UNL d   1      26.258 -12.686  -2.274  0.00  0.00     0.184 C 
ATOM      4  C   UNL d   1      27.092 -11.611  -1.670  0.00  0.00     0.241 C 
ATOM      5  O   UNL d   1      27.616 -10.721  -2.326  0.00  0.00    -0.272 OA
ATOM      6  N   UNL d   1      27.228 -11.757  -0.280  0.00  0.00    -0.309 N 
ATOM      7  C   UNL d   1      27.277 -13.011   0.355  0.00  0.00     0.162 C 
ATOM      8  N   UNL d   1      27.766 -13.073   1.653  0.00  0.00    -0.046 NA
ATOM      9  C   UNL d   1      28.115 -14.239   2.144  0.00  0.00     0.707 C 
ATOM     10  N   UNL d   1      27.879 -15.389   1.435  0.00  0.00    -0.154 N 
ATOM     11  C   UNL d   1      27.290 -15.413   0.212  0.00  0.00     0.270 C 
ATOM     12  O   UNL d   1      26.975 -16.450  -0.360  0.00  0.00    -0.267 OA
ATOM     13  C   UNL d   1      27.075 -14.103  -0.405  0.00  0.00     0.067 C 
ATOM     14  C   UNL d   1      26.762 -14.068  -1.871  0.00  0.00     0.089 C 
ATOM     15  H   UNL d   1      27.718 -11.004   0.193  0.00  0.00     0.170 HD
ATOM     16  H   UNL d   1      27.981 -16.280   1.892  0.00  0.00     0.187 HD
ENDROOT
BRANCH  14  17
ATOM     17  C   UNL d   1      27.901 -14.527  -2.801  0.00  0.00    -0.015 C 
ATOM     18  C   UNL d   1      29.213 -14.417  -2.275  0.00  0.00     0.010 C 
ATOM     19  C   UNL d   1      30.280 -15.119  -2.848  0.00  0.00     0.001 C 
ATOM     20  C   UNL d   1      30.132 -15.722  -4.088  0.00  0.00     0.002 C 
ATOM     21  C   UNL d   1      28.894 -15.727  -4.700  0.00  0.00     0.037 C 
ATOM     22  C   UNL d   1      27.774 -15.210  -4.041  0.00  0.00     0.110 C 
BRANCH  22  23
ATOM     23  N   UNL d   1      26.547 -15.418  -4.813  0.00  0.00    -0.115 N 
ATOM     24  O   UNL d   1      25.483 -15.541  -4.209  0.00  0.00    -0.532 OA
ATOM     25  O   UNL d   1      26.666 -15.575  -6.033  0.00  0.00    -0.532 OA
ENDBRANCH  22  23
ENDBRANCH  14  17
BRANCH   9  26
ATOM     26  N   UNL d   1      28.641 -14.450   3.418  0.00  0.00    -0.216 N 
ATOM     27  C   UNL d   1      27.886 -14.844   4.625  0.00  0.00     0.141 C 
ATOM     28  C   UNL d   1      28.149 -13.839   5.760  0.00  0.00     0.020 C 
ATOM     29  C   UNL d   1      29.645 -13.669   6.030  0.00  0.00     0.003 C 
ATOM     30  C   UNL d   1      30.405 -13.404   4.729  0.00  0.00     0.020 C 
ATOM     31  C   UNL d   1      30.083 -14.448   3.649  0.00  0.00     0.141 C 
ENDBRANCH   9  26
TORSDOF 3
ENDMDL
MODEL 4
REMARK VINA RESULT:    -7.226      4.337      8.268
REMARK INTER + INTRA:         -10.094
REMARK INTER:                  -8.121
REMARK INTRA:                  -1.973
REMARK CONF_INDEPENDENT:        0.895
REMARK UNBOUND:                -1.973
REMARK  3 active torsions:
REMARK  status: ('A' for Active; 'I' for Inactive)
REMARK    1  A    between atoms: C_9  and  N_10 
REMARK    2  A    between atoms: C_20  and  C_21 
REMARK    3  A    between atoms: C_26  and  N_27 
ROOT
ATOM      1  N   UNL d   1      26.743 -12.369  -0.978  0.00  0.00    -0.101 N 
ATOM      2  C   UNL d   1      27.380 -12.934  -1.908  0.00  0.00    -0.005 C 
ATOM      3  C   UNL d   1      28.148 -13.616  -3.029  0.00  0.00     0.184 C 
ATOM      4  C   UNL d   1      27.658 -13.463  -4.427  0.00  0.00     0.241 C 
ATOM      5  O   UNL d   1      26.611 -12.899  -4.712  0.00  0.00    -0.272 OA
ATOM      6  N   UNL d   1      28.516 -14.064  -5.363  0.00  0.00    -0.309 N 
ATOM      7  C   UNL d   1      29.250 -15.231  -5.086  0.00  0.00     0.162 C 
ATOM      8  N   UNL d   1      29.776 -15.945  -6.155  0.00  0.00    -0.046 NA
ATOM      9  C   UNL d   1      30.182 -17.178  -5.955  0.00  0.00     0.707 C 
ATOM     10  N   UNL d   1      30.204 -17.704  -4.688  0.00  0.00    -0.154 N 
ATOM     11  C   UNL d   1      29.821 -17.019  -3.580  0.00  0.00     0.270 C 
ATOM     12  O   UNL d   1      29.958 -17.454  -2.443  0.00  0.00    -0.267 OA
ATOM     13  C   UNL d   1      29.199 -15.718  -3.833  0.00  0.00     0.067 C 
ATOM     14  C   UNL d   1      28.446 -15.076  -2.706  0.00  0.00     0.089 C 
ATOM     15  H   UNL d   1      28.271 -13.916  -6.337  0.00  0.00     0.170 HD
ATOM     16  H   UNL d   1      30.683 -18.574  -4.525  0.00  0.00     0.187 HD
ENDROOT
BRANCH  14  17
ATOM     17  C   UNL d   1      27.167 -15.811  -2.263  0.00  0.00    -0.015 C 
ATOM     18  C   UNL d   1      27.149 -16.269  -0.921  0.00  0.00     0.010 C 
ATOM     19  C   UNL d   1      25.945 -16.615  -0.296  0.00  0.00     0.001 C 
ATOM     20  C   UNL d   1      24.788 -16.768  -1.045  0.00  0.00     0.002 C 
ATOM     21  C   UNL d   1      24.804 -16.464  -2.392  0.00  0.00     0.037 C 
ATOM     22  C   UNL d   1      25.947 -15.919  -2.984  0.00  0.00     0.110 C 
BRANCH  22  23
ATOM     23  N   UNL d   1      25.714 -15.563  -4.385  0.00  0.00    -0.115 N 
ATOM     24  O   UNL d   1      26.515 -15.950  -5.234  0.00  0.00    -0.532 OA
ATOM     25  O   UNL d   1      24.780 -14.789  -4.624  0.00  0.00    -0.532 OA
ENDBRANCH  22  23
ENDBRANCH  14  17
BRANCH   9  26
ATOM     26  N   UNL d   1      30.708 -18.020  -6.934  0.00  0.00    -0.216 N 
ATOM     27  C   UNL d   1      30.405 -19.455  -7.111  0.00  0.00     0.141 C 
ATOM     28  C   UNL d   1      31.710 -20.271  -7.111  0.00  0.00     0.020 C 
ATOM     29  C   UNL d   1      32.706 -19.746  -8.146  0.00  0.00     0.003 C 
ATOM     30  C   UNL d   1      32.878 -18.231  -8.015  0.00  0.00     0.020 C 
ATOM     31  C   UNL d   1      31.530 -17.494  -8.020  0.00  0.00     0.141 C 
ENDBRANCH   9  26
TORSDOF 3
ENDMDL
MODEL 5
REMARK VINA RESULT:    -7.194      1.646      2.211
REMARK INTER + INTRA:          -9.758
REMARK INTER:                  -8.089
REMARK INTRA:                  -1.669
REMARK CONF_INDEPENDENT:        0.895
REMARK UNBOUND:                -1.669
REMARK  3 active torsions:
REMARK  status: ('A' for Active; 'I' for Inactive)
REMARK    1  A    between atoms: C_9  and  N_10 
REMARK    2  A    between atoms: C_20  and  C_21 
REMARK    3  A    between atoms: C_26  and  N_27 
ROOT
ATOM      1  N   UNL d   1      29.699 -17.575  -4.675  0.00  0.00    -0.101 N 
ATOM      2  C   UNL d   1      29.909 -17.111  -3.521  0.00  0.00    -0.005 C 
ATOM      3  C   UNL d   1      30.162 -16.553  -2.131  0.00  0.00     0.184 C 
ATOM      4  C   UNL d   1      30.348 -17.504  -1.001  0.00  0.00     0.241 C 
ATOM      5  O   UNL d   1      30.210 -18.715  -1.113  0.00  0.00    -0.272 OA
ATOM      6  N   UNL d   1      30.667 -16.851   0.201  0.00  0.00    -0.309 N 
ATOM      7  C   UNL d   1      30.167 -15.581   0.536  0.00  0.00     0.162 C 
ATOM      8  N   UNL d   1      30.235 -15.176   1.863  0.00  0.00    -0.046 NA
ATOM      9  C   UNL d   1      29.505 -14.156   2.253  0.00  0.00     0.707 C 
ATOM     10  N   UNL d   1      28.790 -13.426   1.339  0.00  0.00    -0.154 N 
ATOM     11  C   UNL d   1      28.777 -13.689   0.006  0.00  0.00     0.270 C 
ATOM     12  O   UNL d   1      28.234 -12.961  -0.816  0.00  0.00    -0.267 OA
ATOM     13  C   UNL d   1      29.440 -14.932  -0.392  0.00  0.00     0.067 C 
ATOM     14  C   UNL d   1      29.165 -15.457  -1.770  0.00  0.00     0.089 C 
ATOM     15  H   UNL d   1      30.887 -17.459   0.984  0.00  0.00     0.170 HD
ATOM     16  H   UNL d   1      28.386 -12.547   1.618  0.00  0.00     0.187 HD
ENDROOT
BRANCH  14  17
ATOM     17  C   UNL d   1      27.720 -15.927  -2.020  0.00  0.00    -0.015 C 
ATOM     18  C   UNL d   1      27.106 -16.638  -0.958  0.00  0.00     0.010 C 
ATOM     19  C   UNL d   1      25.716 -16.797  -0.907  0.00  0.00     0.001 C 
ATOM     20  C   UNL d   1      24.938 -16.498  -2.015  0.00  0.00     0.002 C 
ATOM     21  C   UNL d   1      25.528 -15.931  -3.128  0.00  0.00     0.037 C 
ATOM     22  C   UNL d   1      26.880 -15.575  -3.112  0.00  0.00     0.110 C 
BRANCH  22  23
ATOM     23  N   UNL d   1      27.274 -14.886  -4.343  0.00  0.00    -0.115 N 
ATOM     24  O   UNL d   1      27.879 -13.819  -4.255  0.00  0.00    -0.532 OA
ATOM     25  O   UNL d   1      26.872 -15.362  -5.410  0.00  0.00    -0.532 OA
ENDBRANCH  22  23
ENDBRANCH  14  17
BRANCH   9  26
ATOM     26  N   UNL d   1      29.454 -13.655   3.552  0.00  0.00    -0.216 N 
ATOM     27  C   UNL d   1      29.605 -14.433   4.799  0.00  0.00     0.141 C 
ATOM     28  C   UNL d   1      28.392 -14.197   5.716  0.00  0.00     0.020 C 
ATOM     29  C   UNL d   1      28.160 -12.707   5.975  0.00  0.00     0.003 C 
ATOM     30  C   UNL d   1      28.153 -11.922   4.663  0.00  0.00     0.020 C 
ATOM     31  C   UNL d   1      29.395 -12.218   3.807  0.00  0.00     0.141 C 
ENDBRANCH   9  26
TORSDOF 3
ENDMDL
MODEL 6
REMARK VINA RESULT:    -7.064      3.340      7.581
REMARK INTER + INTRA:         -10.156
REMARK INTER:                  -7.959
REMARK INTRA:                  -2.198
REMARK CONF_INDEPENDENT:        0.895
REMARK UNBOUND:                -2.198
REMARK  3 active torsions:
REMARK  status: ('A' for Active; 'I' for Inactive)
REMARK    1  A    between atoms: C_9  and  N_10 
REMARK    2  A    between atoms: C_20  and  C_21 
REMARK    3  A    between atoms: C_26  and  N_27 
ROOT
ATOM      1  N   UNL d   1      26.021 -13.534   1.284  0.00  0.00    -0.101 N 
ATOM      2  C   UNL d   1      26.694 -13.648   0.224  0.00  0.00    -0.005 C 
ATOM      3  C   UNL d   1      27.505 -13.786  -1.055  0.00  0.00     0.184 C 
ATOM      4  C   UNL d   1      27.021 -13.102  -2.286  0.00  0.00     0.241 C 
ATOM      5  O   UNL d   1      25.949 -12.516  -2.350  0.00  0.00    -0.272 OA
ATOM      6  N   UNL d   1      27.916 -13.238  -3.360  0.00  0.00    -0.309 N 
ATOM      7  C   UNL d   1      28.705 -14.385  -3.556  0.00  0.00     0.162 C 
ATOM      8  N   UNL d   1      29.276 -14.584  -4.806  0.00  0.00    -0.046 NA
ATOM      9  C   UNL d   1      29.741 -15.775  -5.108  0.00  0.00     0.707 C 
ATOM     10  N   UNL d   1      29.778 -16.765  -4.161  0.00  0.00    -0.154 N 
ATOM     11  C   UNL d   1      29.352 -16.603  -2.882  0.00  0.00     0.270 C 
ATOM     12  O   UNL d   1      29.500 -17.454  -2.012  0.00  0.00    -0.267 OA
ATOM     13  C   UNL d   1      28.667 -15.338  -2.607  0.00  0.00     0.067 C 
ATOM     14  C   UNL d   1      27.873 -15.238  -1.338  0.00  0.00     0.089 C 
ATOM     15  H   UNL d   1      27.673 -12.720  -4.198  0.00  0.00     0.170 HD
ATOM     16  H   UNL d   1      30.299 -17.606  -4.348  0.00  0.00     0.187 HD
ENDROOT
BRANCH  14  17
ATOM     17  C   UNL d   1      26.629 -16.143  -1.266  0.00  0.00    -0.015 C 
ATOM     18  C   UNL d   1      26.557 -17.009  -0.146  0.00  0.00     0.010 C 
ATOM     19  C   UNL d   1      25.345 -17.601   0.229  0.00  0.00     0.001 C 
ATOM     20  C   UNL d   1      24.256 -17.565  -0.628  0.00  0.00     0.002 C 
ATOM     21  C   UNL d   1      24.337 -16.842  -1.802  0.00  0.00     0.037 C 
ATOM     22  C   UNL d   1      25.471 -16.076  -2.088  0.00  0.00     0.110 C 
BRANCH  22  23
ATOM     23  N   UNL d   1      25.305 -15.299  -3.318  0.00  0.00    -0.115 N 
ATOM     24  O   UNL d   1      24.409 -14.459  -3.370  0.00  0.00    -0.532 OA
ATOM     25  O   UNL d   1      26.007 -15.615  -4.286  0.00  0.00    -0.532 OA
ENDBRANCH  22  23
ENDBRANCH  14  17
BRANCH   9  26
ATOM     26  N   UNL d   1      30.317 -16.126  -6.328  0.00  0.00    -0.216 N 
ATOM     27  C   UNL d   1      30.413 -17.488  -6.893  0.00  0.00     0.141 C 
ATOM     28  C   UNL d   1      31.877 -17.815  -7.231  0.00  0.00     0.020 C 
ATOM     29  C   UNL d   1      32.498 -16.755  -8.142  0.00  0.00     0.003 C 
ATOM     30  C   UNL d   1      32.250 -15.350  -7.589  0.00  0.00     0.020 C 
ATOM     31  C   UNL d   1      30.765 -15.108  -7.274  0.00  0.00     0.141 C 
ENDBRANCH   9  26
TORSDOF 3
ENDMDL
MODEL 7
REMARK VINA RESULT:    -6.841      4.680      7.209
REMARK INTER + INTRA:         -10.266
REMARK INTER:                  -7.736
REMARK INTRA:                  -2.530
REMARK CONF_INDEPENDENT:        0.895
REMARK UNBOUND:                -2.530
REMARK  3 active torsions:
REMARK  status: ('A' for Active; 'I' for Inactive)
REMARK    1  A    between atoms: C_9  and  N_10 
REMARK    2  A    between atoms: C_20  and  C_21 
REMARK    3  A    between atoms: C_26  and  N_27 
ROOT
ATOM      1  N   UNL d   1      27.649 -10.213  -7.676  0.00  0.00    -0.101 N 
ATOM      2  C   UNL d   1      27.114 -10.831  -6.716  0.00  0.00    -0.005 C 
ATOM      3  C   UNL d   1      26.469 -11.576  -5.558  0.00  0.00     0.184 C 
ATOM      4  C   UNL d   1      26.736 -11.109  -4.170  0.00  0.00     0.241 C 
ATOM      5  O   UNL d   1      27.529 -10.216  -3.903  0.00  0.00    -0.272 OA
ATOM      6  N   UNL d   1      26.002 -11.829  -3.213  0.00  0.00    -0.309 N 
ATOM      7  C   UNL d   1      25.686 -13.191  -3.360  0.00  0.00     0.162 C 
ATOM      8  N   UNL d   1      25.285 -13.898  -2.234  0.00  0.00    -0.046 NA
ATOM      9  C   UNL d   1      25.292 -15.211  -2.273  0.00  0.00     0.707 C 
ATOM     10  N   UNL d   1      25.566 -15.867  -3.446  0.00  0.00    -0.154 N 
ATOM     11  C   UNL d   1      25.844 -15.237  -4.616  0.00  0.00     0.270 C 
ATOM     12  O   UNL d   1      25.968 -15.828  -5.683  0.00  0.00    -0.267 OA
ATOM     13  C   UNL d   1      26.016 -13.787  -4.520  0.00  0.00     0.067 C 
ATOM     14  C   UNL d   1      26.659 -13.084  -5.679  0.00  0.00     0.089 C 
ATOM     15  H   UNL d   1      26.083 -11.495  -2.258  0.00  0.00     0.170 HD
ATOM     16  H   UNL d   1      25.391 -16.856  -3.509  0.00  0.00     0.187 HD
ENDROOT
BRANCH  14  17
ATOM     17  C   UNL d   1      28.140 -13.432  -5.922  0.00  0.00    -0.015 C 
ATOM     18  C   UNL d   1      28.576 -13.380  -7.270  0.00  0.00     0.010 C 
ATOM     19  C   UNL d   1      29.938 -13.314  -7.584  0.00  0.00     0.001 C 
ATOM     20  C   UNL d   1      30.892 -13.560  -6.608  0.00  0.00     0.002 C 
ATOM     21  C   UNL d   1      30.493 -13.755  -5.300  0.00  0.00     0.037 C 
ATOM     22  C   UNL d   1      29.150 -13.617  -4.939  0.00  0.00     0.110 C 
BRANCH  22  23
ATOM     23  N   UNL d   1      28.961 -13.749  -3.492  0.00  0.00    -0.115 N 
ATOM     24  O   UNL d   1      28.479 -14.791  -3.052  0.00  0.00    -0.532 OA
ATOM     25  O   UNL d   1      29.193 -12.753  -2.799  0.00  0.00    -0.532 OA
ENDBRANCH  22  23
ENDBRANCH  14  17
BRANCH   9  26
ATOM     26  N   UNL d   1      24.940 -16.049  -1.216  0.00  0.00    -0.216 N 
ATOM     27  C   UNL d   1      25.855 -16.623  -0.209  0.00  0.00     0.141 C 
ATOM     28  C   UNL d   1      25.705 -18.153  -0.175  0.00  0.00     0.020 C 
ATOM     29  C   UNL d   1      24.251 -18.575   0.043  0.00  0.00     0.003 C 
ATOM     30  C   UNL d   1      23.323 -17.846  -0.930  0.00  0.00     0.020 C 
ATOM     31  C   UNL d   1      23.540 -16.325  -0.906  0.00  0.00     0.141 C 
ENDBRANCH   9  26
TORSDOF 3
ENDMDL
MODEL 8
REMARK VINA RESULT:    -6.787      4.057      6.398
REMARK INTER + INTRA:          -9.966
REMARK INTER:                  -7.682
REMARK INTRA:                  -2.284
REMARK CONF_INDEPENDENT:        0.895
REMARK UNBOUND:                -2.284
REMARK  3 active torsions:
REMARK  status: ('A' for Active; 'I' for Inactive)
REMARK    1  A    between atoms: C_9  and  N_10 
REMARK    2  A    between atoms: C_20  and  C_21 
REMARK    3  A    between atoms: C_26  and  N_27 
ROOT
ATOM      1  N   UNL d   1      29.725 -10.855  -3.916  0.00  0.00    -0.101 N 
ATOM      2  C   UNL d   1      28.979 -11.585  -3.209  0.00  0.00    -0.005 C 
ATOM      3  C   UNL d   1      28.080 -12.465  -2.356  0.00  0.00     0.184 C 
ATOM      4  C   UNL d   1      28.710 -13.415  -1.397  0.00  0.00     0.241 C 
ATOM      5  O   UNL d   1      29.917 -13.597  -1.329  0.00  0.00    -0.272 OA
ATOM      6  N   UNL d   1      27.761 -14.091  -0.613  0.00  0.00    -0.309 N 
ATOM      7  C   UNL d   1      26.487 -14.446  -1.093  0.00  0.00     0.162 C 
ATOM      8  N   UNL d   1      25.766 -15.406  -0.395  0.00  0.00    -0.046 NA
ATOM      9  C   UNL d   1      24.738 -15.977  -0.980  0.00  0.00     0.707 C 
ATOM     10  N   UNL d   1      24.309 -15.540  -2.207  0.00  0.00    -0.154 N 
ATOM     11  C   UNL d   1      24.891 -14.521  -2.892  0.00  0.00     0.270 C 
ATOM     12  O   UNL d   1      24.428 -14.059  -3.928  0.00  0.00    -0.267 OA
ATOM     13  C   UNL d   1      26.141 -14.017  -2.320  0.00  0.00     0.067 C 
ATOM     14  C   UNL d   1      27.006 -13.155  -3.190  0.00  0.00     0.089 C 
ATOM     15  H   UNL d   1      28.141 -14.688   0.114  0.00  0.00     0.170 HD
ATOM     16  H   UNL d   1      23.421 -15.856  -2.560  0.00  0.00     0.187 HD
ENDROOT
BRANCH  14  17
ATOM     17  C   UNL d   1      27.629 -13.862  -4.409  0.00  0.00    -0.015 C 
ATOM     18  C   UNL d   1      27.603 -13.136  -5.627  0.00  0.00     0.010 C 
ATOM     19  C   UNL d   1      28.436 -13.491  -6.694  0.00  0.00     0.001 C 
ATOM     20  C   UNL d   1      29.107 -14.704  -6.682  0.00  0.00     0.002 C 
ATOM     21  C   UNL d   1      29.042 -15.507  -5.560  0.00  0.00     0.037 C 
ATOM     22  C   UNL d   1      28.382 -15.067  -4.409  0.00  0.00     0.110 C 
BRANCH  22  23
ATOM     23  N   UNL d   1      28.531 -16.016  -3.303  0.00  0.00    -0.115 N 
ATOM     24  O   UNL d   1      27.526 -16.370  -2.689  0.00  0.00    -0.532 OA
ATOM     25  O   UNL d   1      29.682 -16.322  -2.972  0.00  0.00    -0.532 OA
ENDBRANCH  22  23
ENDBRANCH  14  17
BRANCH   9  26
ATOM     26  N   UNL d   1      23.939 -16.969  -0.414  0.00  0.00    -0.216 N 
ATOM     27  C   UNL d   1      24.403 -18.254   0.149  0.00  0.00     0.141 C 
ATOM     28  C   UNL d   1      23.658 -19.420  -0.523  0.00  0.00     0.020 C 
ATOM     29  C   UNL d   1      22.141 -19.251  -0.432  0.00  0.00     0.003 C 
ATOM     30  C   UNL d   1      21.722 -17.853  -0.891  0.00  0.00     0.020 C 
ATOM     31  C   UNL d   1      22.516 -16.748  -0.176  0.00  0.00     0.141 C 
ENDBRANCH   9  26
TORSDOF 3
ENDMDL
MODEL 9
REMARK VINA RESULT:    -6.489      2.065      4.311
REMARK INTER + INTRA:          -9.887
REMARK INTER:                  -7.384
REMARK INTRA:                  -2.503
REMARK CONF_INDEPENDENT:        0.895
REMARK UNBOUND:                -2.503
REMARK  3 active torsions:
REMARK  status: ('A' for Active; 'I' for Inactive)
REMARK    1  A    between atoms: C_9  and  N_10 
REMARK    2  A    between atoms: C_20  and  C_21 
REMARK    3  A    between atoms: C_26  and  N_27 
ROOT
ATOM      1  N   UNL d   1      25.904 -15.688  -5.769  0.00  0.00    -0.101 N 
ATOM      2  C   UNL d   1      26.015 -15.435  -4.539  0.00  0.00    -0.005 C 
ATOM      3  C   UNL d   1      26.149 -15.131  -3.056  0.00  0.00     0.184 C 
ATOM      4  C   UNL d   1      25.912 -13.738  -2.587  0.00  0.00     0.241 C 
ATOM      5  O   UNL d   1      25.713 -12.800  -3.347  0.00  0.00    -0.272 OA
ATOM      6  N   UNL d   1      25.977 -13.625  -1.188  0.00  0.00    -0.309 N 
ATOM      7  C   UNL d   1      26.838 -14.408  -0.399  0.00  0.00     0.162 C 
ATOM      8  N   UNL d   1      27.098 -13.993   0.901  0.00  0.00    -0.046 NA
ATOM      9  C   UNL d   1      28.120 -14.512   1.540  0.00  0.00     0.707 C 
ATOM     10  N   UNL d   1      28.839 -15.538   0.981  0.00  0.00    -0.154 N 
ATOM     11  C   UNL d   1      28.562 -16.079  -0.234  0.00  0.00     0.270 C 
ATOM     12  O   UNL d   1      29.132 -17.072  -0.671  0.00  0.00    -0.267 OA
ATOM     13  C   UNL d   1      27.544 -15.374  -1.015  0.00  0.00     0.067 C 
ATOM     14  C   UNL d   1      27.441 -15.696  -2.476  0.00  0.00     0.089 C 
ATOM     15  H   UNL d   1      25.740 -12.713  -0.812  0.00  0.00     0.170 HD
ATOM     16  H   UNL d   1      29.497 -16.045   1.550  0.00  0.00     0.187 HD
ENDROOT
BRANCH  14  17
ATOM     17  C   UNL d   1      28.653 -15.278  -3.330  0.00  0.00    -0.015 C 
ATOM     18  C   UNL d   1      28.991 -16.150  -4.395  0.00  0.00     0.010 C 
ATOM     19  C   UNL d   1      29.812 -15.721  -5.444  0.00  0.00     0.001 C 
ATOM     20  C   UNL d   1      30.520 -14.533  -5.335  0.00  0.00     0.002 C 
ATOM     21  C   UNL d   1      30.321 -13.721  -4.236  0.00  0.00     0.037 C 
ATOM     22  C   UNL d   1      29.349 -14.039  -3.283  0.00  0.00     0.110 C 
BRANCH  22  23
ATOM     23  N   UNL d   1      29.220 -12.991  -2.269  0.00  0.00    -0.115 N 
ATOM     24  O   UNL d   1      29.610 -13.224  -1.126  0.00  0.00    -0.532 OA
ATOM     25  O   UNL d   1      28.616 -11.962  -2.592  0.00  0.00    -0.532 OA
ENDBRANCH  22  23
ENDBRANCH  14  17
BRANCH   9  26
ATOM     26  N   UNL d   1      28.515 -14.175   2.834  0.00  0.00    -0.216 N 
ATOM     27  C   UNL d   1      29.895 -13.916   3.291  0.00  0.00     0.141 C 
ATOM     28  C   UNL d   1      30.233 -14.825   4.485  0.00  0.00     0.020 C 
ATOM     29  C   UNL d   1      29.205 -14.689   5.609  0.00  0.00     0.003 C 
ATOM     30  C   UNL d   1      27.782 -14.824   5.063  0.00  0.00     0.020 C 
ATOM     31  C   UNL d   1      27.530 -13.886   3.873  0.00  0.00     0.141 C 
ENDBRANCH   9  26
TORSDOF 3
ENDMDL
