MODEL 1
REMARK VINA RESULT:    -7.067      0.000      0.000
REMARK INTER + INTRA:         -13.764
REMARK INTER:                 -10.348
REMARK INTRA:                  -3.416
REMARK CONF_INDEPENDENT:        3.281
REMARK UNBOUND:                -3.416
REMARK  11 active torsions:
REMARK  status: ('A' for Active; 'I' for Inactive)
REMARK    1  A    between atoms: N_2  and  C_4 
REMARK    2  A    between atoms: C_7  and  C_8 
REMARK    3  A    between atoms: C_8  and  C_9 
REMARK    4  A    between atoms: C_8  and  N_20 
REMARK       I    between atoms: C_9  and  N_11 
REMARK    5  A    between atoms: N_11  and  C_12 
REMARK    6  A    between atoms: C_12  and  C_15 
REMARK    7  A    between atoms: C_15  and  C_16 
REMARK       I    between atoms: N_20  and  C_21 
REMARK    8  A    between atoms: N_20  and  C_31 
REMARK    9  A    between atoms: C_21  and  C_23 
REMARK   10  A    between atoms: C_24  and  O_25 
REMARK   11  A    between atoms: C_29  and  O_30 
ROOT
ATOM      1  C   UNL d   1      26.771 -16.644  -2.029  0.00  0.00     0.213 C 
ENDROOT
BRANCH   1   2
ATOM      2  C   UNL d   1      25.396 -16.942  -1.427  0.00  0.00    -0.026 C 
ATOM      3  C   UNL d   1      24.249 -16.143  -1.357  0.00  0.00     0.012 C 
ATOM      4  C   UNL d   1      23.081 -16.653  -0.735  0.00  0.00     0.030 C 
ATOM      5  C   UNL d   1      22.987 -17.987  -0.318  0.00  0.00     0.029 C 
ATOM      6  C   UNL d   1      24.200 -18.603  -0.149  0.00  0.00     0.030 C 
ATOM      7  C   UNL d   1      25.374 -18.050  -0.618  0.00  0.00     0.012 C 
BRANCH   5   8
ATOM      8  N   UNL d   1      21.801 -18.691  -0.164  0.00  0.00    -0.390 N 
ATOM      9  C   UNL d   1      20.866 -18.953  -1.269  0.00  0.00     0.149 C 
ATOM     10  C   UNL d   1      21.335 -18.950   1.188  0.00  0.00     0.149 C 
ENDBRANCH   5   8
ENDBRANCH   1   2
BRANCH   1  11
ATOM     11  C   UNL d   1      26.350 -15.497  -2.971  0.00  0.00     0.245 C 
ATOM     12  O   UNL d   1      25.445 -15.660  -3.758  0.00  0.00    -0.271 OA
ATOM     13  N   UNL d   1      27.175 -14.369  -3.023  0.00  0.00    -0.351 N 
ATOM     14  H   UNL d   1      28.085 -14.365  -2.596  0.00  0.00     0.163 HD
BRANCH  13  15
ATOM     15  C   UNL d   1      26.851 -13.318  -3.988  0.00  0.00     0.026 C 
ATOM     16  C   UNL d   1      27.048 -13.851  -5.427  0.00  0.00     0.038 C 
ATOM     17  C   UNL d   1      25.391 -12.990  -3.657  0.00  0.00     0.038 C 
BRANCH  15  18
ATOM     18  C   UNL d   1      27.797 -12.078  -3.770  0.00  0.00     0.038 C 
BRANCH  18  19
ATOM     19  C   UNL d   1      27.280 -10.668  -4.233  0.00  0.00    -0.049 C 
ATOM     20  C   UNL d   1      26.538 -10.703  -5.578  0.00  0.00     0.014 C 
ATOM     21  C   UNL d   1      26.395  -9.998  -3.176  0.00  0.00     0.014 C 
ATOM     22  C   UNL d   1      28.471  -9.719  -4.448  0.00  0.00     0.014 C 
ENDBRANCH  18  19
ENDBRANCH  15  18
ENDBRANCH  13  15
ENDBRANCH   1  11
BRANCH   1  23
ATOM     23  N   UNL d   1      27.978 -16.114  -1.061  0.00  0.00    -0.322 N 
ATOM     24  C   UNL d   1      29.393 -16.498  -1.093  0.00  0.00     0.261 C 
ATOM     25  O   UNL d   1      30.165 -16.353  -0.138  0.00  0.00    -0.267 OA
BRANCH  24  26
ATOM     26  C   UNL d   1      30.114 -17.229  -2.173  0.00  0.00     0.098 A 
ATOM     27  C   UNL d   1      30.817 -18.438  -1.847  0.00  0.00     0.084 A 
ATOM     28  C   UNL d   1      31.357 -19.257  -2.850  0.00  0.00     0.038 A 
ATOM     29  C   UNL d   1      31.109 -18.931  -4.187  0.00  0.00     0.005 A 
ATOM     30  C   UNL d   1      30.336 -17.816  -4.510  0.00  0.00     0.038 A 
ATOM     31  C   UNL d   1      29.911 -16.926  -3.520  0.00  0.00     0.084 A 
BRANCH  27  32
ATOM     32  O   UNL d   1      30.723 -19.075  -0.619  0.00  0.00    -0.360 OA
ATOM     33  H   UNL d   1      30.127 -18.575  -0.026  0.00  0.00     0.217 HD
ENDBRANCH  27  32
BRANCH  31  34
ATOM     34  O   UNL d   1      29.065 -15.915  -3.891  0.00  0.00    -0.360 OA
ATOM     35  H   UNL d   1      29.434 -15.104  -3.494  0.00  0.00     0.217 HD
ENDBRANCH  31  34
ENDBRANCH  24  26
BRANCH  23  36
ATOM     36  C   UNL d   1      27.590 -15.031   0.006  0.00  0.00     0.026 C 
ATOM     37  C   UNL d   1      28.699 -13.966   0.057  0.00  0.00     0.037 C 
ATOM     38  C   UNL d   1      26.270 -14.252  -0.216  0.00  0.00     0.037 C 
ATOM     39  C   UNL d   1      27.405 -15.579   1.438  0.00  0.00     0.037 C 
ENDBRANCH  23  36
ENDBRANCH   1  23
TORSDOF 11
ENDMDL
MODEL 2
REMARK VINA RESULT:    -6.762      2.503      7.124
REMARK INTER + INTRA:         -14.006
REMARK INTER:                 -10.044
REMARK INTRA:                  -3.962
REMARK CONF_INDEPENDENT:        3.281
REMARK UNBOUND:                -3.962
REMARK  11 active torsions:
REMARK  status: ('A' for Active; 'I' for Inactive)
REMARK    1  A    between atoms: N_2  and  C_4 
REMARK    2  A    between atoms: C_7  and  C_8 
REMARK    3  A    between atoms: C_8  and  C_9 
REMARK    4  A    between atoms: C_8  and  N_20 
REMARK       I    between atoms: C_9  and  N_11 
REMARK    5  A    between atoms: N_11  and  C_12 
REMARK    6  A    between atoms: C_12  and  C_15 
REMARK    7  A    between atoms: C_15  and  C_16 
REMARK       I    between atoms: N_20  and  C_21 
REMARK    8  A    between atoms: N_20  and  C_31 
REMARK    9  A    between atoms: C_21  and  C_23 
REMARK   10  A    between atoms: C_24  and  O_25 
REMARK   11  A    between atoms: C_29  and  O_30 
ROOT
ATOM      1  C   UNL d   1      27.167 -16.101  -0.541  0.00  0.00     0.213 C 
ENDROOT
BRANCH   1   2
ATOM      2  C   UNL d   1      28.488 -15.941  -1.296  0.00  0.00    -0.026 C 
ATOM      3  C   UNL d   1      29.220 -14.787  -1.601  0.00  0.00     0.012 C 
ATOM      4  C   UNL d   1      30.432 -14.902  -2.327  0.00  0.00     0.030 C 
ATOM      5  C   UNL d   1      31.003 -16.147  -2.623  0.00  0.00     0.029 C 
ATOM      6  C   UNL d   1      30.117 -17.192  -2.562  0.00  0.00     0.030 C 
ATOM      7  C   UNL d   1      28.869 -17.062  -1.990  0.00  0.00     0.012 C 
BRANCH   5   8
ATOM      8  N   UNL d   1      32.350 -16.366  -2.871  0.00  0.00    -0.390 N 
ATOM      9  C   UNL d   1      32.885 -16.702  -4.199  0.00  0.00     0.149 C 
ATOM     10  C   UNL d   1      33.233 -16.531  -1.728  0.00  0.00     0.149 C 
ENDBRANCH   5   8
ENDBRANCH   1   2
BRANCH   1  11
ATOM     11  C   UNL d   1      27.299 -14.876   0.387  0.00  0.00     0.245 C 
ATOM     12  O   UNL d   1      26.763 -13.832   0.093  0.00  0.00    -0.271 OA
ATOM     13  N   UNL d   1      28.215 -14.961   1.442  0.00  0.00    -0.351 N 
ATOM     14  H   UNL d   1      28.877 -15.715   1.501  0.00  0.00     0.163 HD
BRANCH  13  15
ATOM     15  C   UNL d   1      28.432 -13.773   2.267  0.00  0.00     0.026 C 
ATOM     16  C   UNL d   1      29.044 -12.643   1.406  0.00  0.00     0.038 C 
ATOM     17  C   UNL d   1      27.023 -13.451   2.778  0.00  0.00     0.038 C 
BRANCH  15  18
ATOM     18  C   UNL d   1      29.422 -14.110   3.445  0.00  0.00     0.038 C 
BRANCH  18  19
ATOM     19  C   UNL d   1      28.850 -14.120   4.907  0.00  0.00    -0.049 C 
ATOM     20  C   UNL d   1      28.294 -12.758   5.353  0.00  0.00     0.014 C 
ATOM     21  C   UNL d   1      27.780 -15.200   5.105  0.00  0.00     0.014 C 
ATOM     22  C   UNL d   1      29.971 -14.450   5.906  0.00  0.00     0.014 C 
ENDBRANCH  18  19
ENDBRANCH  15  18
ENDBRANCH  13  15
ENDBRANCH   1  11
BRANCH   1  23
ATOM     23  N   UNL d   1      25.753 -15.993  -1.356  0.00  0.00    -0.322 N 
ATOM     24  C   UNL d   1      25.433 -15.126  -2.495  0.00  0.00     0.261 C 
ATOM     25  O   UNL d   1      24.280 -14.827  -2.828  0.00  0.00    -0.267 OA
BRANCH  24  26
ATOM     26  C   UNL d   1      26.382 -14.359  -3.350  0.00  0.00     0.098 A 
ATOM     27  C   UNL d   1      26.721 -14.870  -4.649  0.00  0.00     0.084 A 
ATOM     28  C   UNL d   1      27.462 -14.104  -5.560  0.00  0.00     0.038 A 
ATOM     29  C   UNL d   1      27.781 -12.785  -5.224  0.00  0.00     0.005 A 
ATOM     30  C   UNL d   1      27.363 -12.246  -4.007  0.00  0.00     0.038 A 
ATOM     31  C   UNL d   1      26.742 -13.046  -3.044  0.00  0.00     0.084 A 
BRANCH  27  32
ATOM     32  O   UNL d   1      26.082 -15.950  -5.240  0.00  0.00    -0.360 OA
ATOM     33  H   UNL d   1      25.412 -16.319  -4.630  0.00  0.00     0.217 HD
ENDBRANCH  27  32
BRANCH  31  34
ATOM     34  O   UNL d   1      26.260 -12.431  -1.919  0.00  0.00    -0.360 OA
ATOM     35  H   UNL d   1      25.605 -13.048  -1.542  0.00  0.00     0.217 HD
ENDBRANCH  31  34
ENDBRANCH  24  26
BRANCH  23  36
ATOM     36  C   UNL d   1      24.608 -16.963  -0.896  0.00  0.00     0.026 C 
ATOM     37  C   UNL d   1      25.159 -17.897   0.195  0.00  0.00     0.037 C 
ATOM     38  C   UNL d   1      23.331 -16.325  -0.297  0.00  0.00     0.037 C 
ATOM     39  C   UNL d   1      24.030 -17.852  -2.020  0.00  0.00     0.037 C 
ENDBRANCH  23  36
ENDBRANCH   1  23
TORSDOF 11
ENDMDL
MODEL 3
REMARK VINA RESULT:    -6.021      2.230      4.592
REMARK INTER + INTRA:         -14.583
REMARK INTER:                  -9.302
REMARK INTRA:                  -5.281
REMARK CONF_INDEPENDENT:        3.281
REMARK UNBOUND:                -5.281
REMARK  11 active torsions:
REMARK  status: ('A' for Active; 'I' for Inactive)
REMARK    1  A    between atoms: N_2  and  C_4 
REMARK    2  A    between atoms: C_7  and  C_8 
REMARK    3  A    between atoms: C_8  and  C_9 
REMARK    4  A    between atoms: C_8  and  N_20 
REMARK       I    between atoms: C_9  and  N_11 
REMARK    5  A    between atoms: N_11  and  C_12 
REMARK    6  A    between atoms: C_12  and  C_15 
REMARK    7  A    between atoms: C_15  and  C_16 
REMARK       I    between atoms: N_20  and  C_21 
REMARK    8  A    between atoms: N_20  and  C_31 
REMARK    9  A    between atoms: C_21  and  C_23 
REMARK   10  A    between atoms: C_24  and  O_25 
REMARK   11  A    between atoms: C_29  and  O_30 
ROOT
ATOM      1  C   UNL d   1      29.356 -17.039  -0.935  0.00  0.00     0.213 C 
ENDROOT
BRANCH   1   2
ATOM      2  C   UNL d   1      27.851 -16.908  -0.695  0.00  0.00    -0.026 C 
ATOM      3  C   UNL d   1      26.969 -15.876  -1.039  0.00  0.00     0.012 C 
ATOM      4  C   UNL d   1      25.597 -15.988  -0.699  0.00  0.00     0.030 C 
ATOM      5  C   UNL d   1      25.062 -17.166  -0.161  0.00  0.00     0.029 C 
ATOM      6  C   UNL d   1      25.998 -17.993   0.406  0.00  0.00     0.030 C 
ATOM      7  C   UNL d   1      27.351 -17.812   0.208  0.00  0.00     0.012 C 
BRANCH   5   8
ATOM      8  N   UNL d   1      23.731 -17.548  -0.249  0.00  0.00    -0.390 N 
ATOM      9  C   UNL d   1      23.297 -18.950  -0.348  0.00  0.00     0.149 C 
ATOM     10  C   UNL d   1      22.744 -16.516  -0.520  0.00  0.00     0.149 C 
ENDBRANCH   5   8
ENDBRANCH   1   2
BRANCH   1  11
ATOM     11  C   UNL d   1      29.378 -16.613  -2.417  0.00  0.00     0.245 C 
ATOM     12  O   UNL d   1      29.368 -17.451  -3.289  0.00  0.00    -0.271 OA
ATOM     13  N   UNL d   1      29.620 -15.264  -2.697  0.00  0.00    -0.351 N 
ATOM     14  H   UNL d   1      29.929 -14.627  -1.982  0.00  0.00     0.163 HD
BRANCH  13  15
ATOM     15  C   UNL d   1      29.750 -14.860  -4.097  0.00  0.00     0.026 C 
ATOM     16  C   UNL d   1      29.939 -13.326  -4.182  0.00  0.00     0.038 C 
ATOM     17  C   UNL d   1      30.976 -15.649  -4.567  0.00  0.00     0.038 C 
BRANCH  15  18
ATOM     18  C   UNL d   1      28.452 -15.259  -4.894  0.00  0.00     0.038 C 
BRANCH  18  19
ATOM     19  C   UNL d   1      27.175 -14.360  -4.718  0.00  0.00    -0.049 C 
ATOM     20  C   UNL d   1      27.025 -13.785  -3.301  0.00  0.00     0.014 C 
ATOM     21  C   UNL d   1      27.121 -13.221  -5.743  0.00  0.00     0.014 C 
ATOM     22  C   UNL d   1      25.908 -15.199  -4.955  0.00  0.00     0.014 C 
ENDBRANCH  18  19
ENDBRANCH  15  18
ENDBRANCH  13  15
ENDBRANCH   1  11
BRANCH   1  23
ATOM     23  N   UNL d   1      30.392 -16.089  -0.098  0.00  0.00    -0.322 N 
ATOM     24  C   UNL d   1      30.163 -14.731   0.406  0.00  0.00     0.261 C 
ATOM     25  O   UNL d   1      31.071 -13.945   0.699  0.00  0.00    -0.267 OA
BRANCH  24  26
ATOM     26  C   UNL d   1      28.863 -14.012   0.527  0.00  0.00     0.098 A 
ATOM     27  C   UNL d   1      28.084 -14.177   1.722  0.00  0.00     0.084 A 
ATOM     28  C   UNL d   1      26.950 -13.388   1.963  0.00  0.00     0.038 A 
ATOM     29  C   UNL d   1      26.644 -12.360   1.066  0.00  0.00     0.005 A 
ATOM     30  C   UNL d   1      27.458 -12.126  -0.043  0.00  0.00     0.038 A 
ATOM     31  C   UNL d   1      28.509 -12.992  -0.357  0.00  0.00     0.084 A 
BRANCH  27  32
ATOM     32  O   UNL d   1      28.547 -14.825   2.857  0.00  0.00    -0.360 OA
ATOM     33  H   UNL d   1      29.148 -15.555   2.607  0.00  0.00     0.217 HD
ENDBRANCH  27  32
BRANCH  31  34
ATOM     34  O   UNL d   1      29.334 -12.643  -1.393  0.00  0.00    -0.360 OA
ATOM     35  H   UNL d   1      30.228 -12.928  -1.124  0.00  0.00     0.217 HD
ENDBRANCH  31  34
ENDBRANCH  24  26
BRANCH  23  36
ATOM     36  C   UNL d   1      31.788 -16.718   0.247  0.00  0.00     0.026 C 
ATOM     37  C   UNL d   1      32.867 -16.023  -0.601  0.00  0.00     0.037 C 
ATOM     38  C   UNL d   1      32.274 -16.612   1.713  0.00  0.00     0.037 C 
ATOM     39  C   UNL d   1      31.893 -18.235  -0.020  0.00  0.00     0.037 C 
ENDBRANCH  23  36
ENDBRANCH   1  23
TORSDOF 11
ENDMDL
MODEL 4
REMARK VINA RESULT:    -5.791      2.453      6.616
REMARK INTER + INTRA:         -13.582
REMARK INTER:                  -9.072
REMARK INTRA:                  -4.509
REMARK CONF_INDEPENDENT:        3.281
REMARK UNBOUND:                -4.509
REMARK  11 active torsions:
REMARK  status: ('A' for Active; 'I' for Inactive)
REMARK    1  A    between atoms: N_2  and  C_4 
REMARK    2  A    between atoms: C_7  and  C_8 
REMARK    3  A    between atoms: C_8  and  C_9 
REMARK    4  A    between atoms: C_8  and  N_20 
REMARK       I    between atoms: C_9  and  N_11 
REMARK    5  A    between atoms: N_11  and  C_12 
REMARK    6  A    between atoms: C_12  and  C_15 
REMARK    7  A    between atoms: C_15  and  C_16 
REMARK       I    between atoms: N_20  and  C_21 
REMARK    8  A    between atoms: N_20  and  C_31 
REMARK    9  A    between atoms: C_21  and  C_23 
REMARK   10  A    between atoms: C_24  and  O_25 
REMARK   11  A    between atoms: C_29  and  O_30 
ROOT
ATOM      1  C   UNL d   1      26.915 -16.257  -0.398  0.00  0.00     0.213 C 
ENDROOT
BRANCH   1   2
ATOM      2  C   UNL d   1      28.269 -16.127  -1.096  0.00  0.00    -0.026 C 
ATOM      3  C   UNL d   1      29.211 -17.108  -1.430  0.00  0.00     0.012 C 
ATOM      4  C   UNL d   1      30.412 -16.729  -2.083  0.00  0.00     0.030 C 
ATOM      5  C   UNL d   1      30.624 -15.423  -2.540  0.00  0.00     0.029 C 
ATOM      6  C   UNL d   1      29.825 -14.486  -1.937  0.00  0.00     0.030 C 
ATOM      7  C   UNL d   1      28.733 -14.838  -1.172  0.00  0.00     0.012 C 
BRANCH   5   8
ATOM      8  N   UNL d   1      31.486 -15.071  -3.570  0.00  0.00    -0.390 N 
ATOM      9  C   UNL d   1      32.749 -15.772  -3.844  0.00  0.00     0.149 C 
ATOM     10  C   UNL d   1      31.264 -13.798  -4.236  0.00  0.00     0.149 C 
ENDBRANCH   5   8
ENDBRANCH   1   2
BRANCH   1  11
ATOM     11  C   UNL d   1      27.050 -15.058   0.563  0.00  0.00     0.245 C 
ATOM     12  O   UNL d   1      26.417 -14.047   0.363  0.00  0.00    -0.271 OA
ATOM     13  N   UNL d   1      28.067 -15.112   1.523  0.00  0.00    -0.351 N 
ATOM     14  H   UNL d   1      28.783 -15.817   1.490  0.00  0.00     0.163 HD
BRANCH  13  15
ATOM     15  C   UNL d   1      28.279 -13.940   2.372  0.00  0.00     0.026 C 
ATOM     16  C   UNL d   1      27.030 -13.700   3.253  0.00  0.00     0.038 C 
ATOM     17  C   UNL d   1      29.525 -14.324   3.177  0.00  0.00     0.038 C 
BRANCH  15  18
ATOM     18  C   UNL d   1      28.525 -12.666   1.479  0.00  0.00     0.038 C 
BRANCH  18  19
ATOM     19  C   UNL d   1      28.153 -11.263   2.079  0.00  0.00    -0.049 C 
ATOM     20  C   UNL d   1      26.649 -10.954   2.017  0.00  0.00     0.014 C 
ATOM     21  C   UNL d   1      28.652 -11.097   3.519  0.00  0.00     0.014 C 
ATOM     22  C   UNL d   1      28.833 -10.149   1.267  0.00  0.00     0.014 C 
ENDBRANCH  18  19
ENDBRANCH  15  18
ENDBRANCH  13  15
ENDBRANCH   1  11
BRANCH   1  23
ATOM     23  N   UNL d   1      25.539 -16.083  -1.266  0.00  0.00    -0.322 N 
ATOM     24  C   UNL d   1      25.299 -15.191  -2.405  0.00  0.00     0.261 C 
ATOM     25  O   UNL d   1      24.173 -14.842  -2.778  0.00  0.00    -0.267 OA
BRANCH  24  26
ATOM     26  C   UNL d   1      26.311 -14.454  -3.212  0.00  0.00     0.098 A 
ATOM     27  C   UNL d   1      26.643 -14.936  -4.524  0.00  0.00     0.084 A 
ATOM     28  C   UNL d   1      27.448 -14.184  -5.392  0.00  0.00     0.038 A 
ATOM     29  C   UNL d   1      27.842 -12.901  -4.999  0.00  0.00     0.005 A 
ATOM     30  C   UNL d   1      27.434 -12.383  -3.769  0.00  0.00     0.038 A 
ATOM     31  C   UNL d   1      26.746 -13.178  -2.849  0.00  0.00     0.084 A 
BRANCH  27  32
ATOM     32  O   UNL d   1      25.950 -15.950  -5.168  0.00  0.00    -0.360 OA
ATOM     33  H   UNL d   1      25.155 -16.194  -4.652  0.00  0.00     0.217 HD
ENDBRANCH  27  32
BRANCH  31  34
ATOM     34  O   UNL d   1      26.281 -12.577  -1.710  0.00  0.00    -0.360 OA
ATOM     35  H   UNL d   1      25.553 -13.144  -1.392  0.00  0.00     0.217 HD
ENDBRANCH  31  34
ENDBRANCH  24  26
BRANCH  23  36
ATOM     36  C   UNL d   1      24.339 -17.011  -0.863  0.00  0.00     0.026 C 
ATOM     37  C   UNL d   1      24.751 -17.849   0.360  0.00  0.00     0.037 C 
ATOM     38  C   UNL d   1      23.007 -16.325  -0.473  0.00  0.00     0.037 C 
ATOM     39  C   UNL d   1      23.887 -17.992  -1.967  0.00  0.00     0.037 C 
ENDBRANCH  23  36
ENDBRANCH   1  23
TORSDOF 11
ENDMDL
MODEL 5
REMARK VINA RESULT:    -5.702      2.035      4.325
REMARK INTER + INTRA:         -14.111
REMARK INTER:                  -8.983
REMARK INTRA:                  -5.128
REMARK CONF_INDEPENDENT:        3.281
REMARK UNBOUND:                -5.128
REMARK  11 active torsions:
REMARK  status: ('A' for Active; 'I' for Inactive)
REMARK    1  A    between atoms: N_2  and  C_4 
REMARK    2  A    between atoms: C_7  and  C_8 
REMARK    3  A    between atoms: C_8  and  C_9 
REMARK    4  A    between atoms: C_8  and  N_20 
REMARK       I    between atoms: C_9  and  N_11 
REMARK    5  A    between atoms: N_11  and  C_12 
REMARK    6  A    between atoms: C_12  and  C_15 
REMARK    7  A    between atoms: C_15  and  C_16 
REMARK       I    between atoms: N_20  and  C_21 
REMARK    8  A    between atoms: N_20  and  C_31 
REMARK    9  A    between atoms: C_21  and  C_23 
REMARK   10  A    between atoms: C_24  and  O_25 
REMARK   11  A    between atoms: C_29  and  O_30 
ROOT
ATOM      1  C   UNL d   1      28.065 -15.922  -3.346  0.00  0.00     0.213 C 
ENDROOT
BRANCH   1   2
ATOM      2  C   UNL d   1      26.784 -16.080  -2.524  0.00  0.00    -0.026 C 
ATOM      3  C   UNL d   1      25.621 -15.300  -2.506  0.00  0.00     0.012 C 
ATOM      4  C   UNL d   1      24.555 -15.656  -1.641  0.00  0.00     0.030 C 
ATOM      5  C   UNL d   1      24.565 -16.850  -0.908  0.00  0.00     0.029 C 
ATOM      6  C   UNL d   1      25.814 -17.393  -0.748  0.00  0.00     0.030 C 
ATOM      7  C   UNL d   1      26.901 -16.959  -1.477  0.00  0.00     0.012 C 
BRANCH   5   8
ATOM      8  N   UNL d   1      23.435 -17.508  -0.445  0.00  0.00    -0.390 N 
ATOM      9  C   UNL d   1      23.404 -18.947  -0.140  0.00  0.00     0.149 C 
ATOM     10  C   UNL d   1      22.163 -16.807  -0.516  0.00  0.00     0.149 C 
ENDBRANCH   5   8
ENDBRANCH   1   2
BRANCH   1  11
ATOM     11  C   UNL d   1      27.551 -14.867  -4.347  0.00  0.00     0.245 C 
ATOM     12  O   UNL d   1      27.073 -15.216  -5.403  0.00  0.00    -0.271 OA
ATOM     13  N   UNL d   1      27.849 -13.526  -4.083  0.00  0.00    -0.351 N 
ATOM     14  H   UNL d   1      28.505 -13.267  -3.367  0.00  0.00     0.163 HD
BRANCH  13  15
ATOM     15  C   UNL d   1      27.463 -12.523  -5.075  0.00  0.00     0.026 C 
ATOM     16  C   UNL d   1      25.921 -12.398  -5.119  0.00  0.00     0.038 C 
ATOM     17  C   UNL d   1      28.160 -11.256  -4.567  0.00  0.00     0.038 C 
BRANCH  15  18
ATOM     18  C   UNL d   1      27.981 -12.949  -6.500  0.00  0.00     0.038 C 
BRANCH  18  19
ATOM     19  C   UNL d   1      29.478 -13.407  -6.632  0.00  0.00    -0.049 C 
ATOM     20  C   UNL d   1      30.345 -13.011  -5.426  0.00  0.00     0.014 C 
ATOM     21  C   UNL d   1      29.604 -14.914  -6.881  0.00  0.00     0.014 C 
ATOM     22  C   UNL d   1      30.129 -12.724  -7.845  0.00  0.00     0.014 C 
ENDBRANCH  18  19
ENDBRANCH  15  18
ENDBRANCH  13  15
ENDBRANCH   1  11
BRANCH   1  23
ATOM     23  N   UNL d   1      29.418 -15.350  -2.627  0.00  0.00    -0.322 N 
ATOM     24  C   UNL d   1      29.517 -14.356  -1.553  0.00  0.00     0.261 C 
ATOM     25  O   UNL d   1      30.543 -13.709  -1.308  0.00  0.00    -0.267 OA
BRANCH  24  26
ATOM     26  C   UNL d   1      28.424 -13.851  -0.677  0.00  0.00     0.098 A 
ATOM     27  C   UNL d   1      28.069 -14.599   0.498  0.00  0.00     0.084 A 
ATOM     28  C   UNL d   1      27.177 -14.079   1.447  0.00  0.00     0.038 A 
ATOM     29  C   UNL d   1      26.714 -12.770   1.287  0.00  0.00     0.005 A 
ATOM     30  C   UNL d   1      27.139 -11.999   0.205  0.00  0.00     0.038 A 
ATOM     31  C   UNL d   1      27.919 -12.557  -0.812  0.00  0.00     0.084 A 
BRANCH  27  32
ATOM     32  O   UNL d   1      28.801 -15.677   0.972  0.00  0.00    -0.360 OA
ATOM     33  H   UNL d   1      28.901 -15.615   1.943  0.00  0.00     0.217 HD
ENDBRANCH  27  32
BRANCH  31  34
ATOM     34  O   UNL d   1      28.391 -11.718  -1.786  0.00  0.00    -0.360 OA
ATOM     35  H   UNL d   1      29.323 -11.974  -1.924  0.00  0.00     0.217 HD
ENDBRANCH  31  34
ENDBRANCH  24  26
BRANCH  23  36
ATOM     36  C   UNL d   1      30.778 -15.965  -3.113  0.00  0.00     0.026 C 
ATOM     37  C   UNL d   1      31.342 -16.863  -1.999  0.00  0.00     0.037 C 
ATOM     38  C   UNL d   1      30.746 -16.846  -4.386  0.00  0.00     0.037 C 
ATOM     39  C   UNL d   1      31.864 -14.925  -3.466  0.00  0.00     0.037 C 
ENDBRANCH  23  36
ENDBRANCH   1  23
TORSDOF 11
ENDMDL
MODEL 6
REMARK VINA RESULT:    -5.685      2.066      7.295
REMARK INTER + INTRA:         -13.837
REMARK INTER:                  -8.967
REMARK INTRA:                  -4.870
REMARK CONF_INDEPENDENT:        3.281
REMARK UNBOUND:                -4.870
REMARK  11 active torsions:
REMARK  status: ('A' for Active; 'I' for Inactive)
REMARK    1  A    between atoms: N_2  and  C_4 
REMARK    2  A    between atoms: C_7  and  C_8 
REMARK    3  A    between atoms: C_8  and  C_9 
REMARK    4  A    between atoms: C_8  and  N_20 
REMARK       I    between atoms: C_9  and  N_11 
REMARK    5  A    between atoms: N_11  and  C_12 
REMARK    6  A    between atoms: C_12  and  C_15 
REMARK    7  A    between atoms: C_15  and  C_16 
REMARK       I    between atoms: N_20  and  C_21 
REMARK    8  A    between atoms: N_20  and  C_31 
REMARK    9  A    between atoms: C_21  and  C_23 
REMARK   10  A    between atoms: C_24  and  O_25 
REMARK   11  A    between atoms: C_29  and  O_30 
ROOT
ATOM      1  C   UNL d   1      29.739 -14.903  -2.401  0.00  0.00     0.213 C 
ENDROOT
BRANCH   1   2
ATOM      2  C   UNL d   1      29.527 -13.444  -1.991  0.00  0.00    -0.026 C 
ATOM      3  C   UNL d   1      30.436 -12.381  -1.935  0.00  0.00     0.012 C 
ATOM      4  C   UNL d   1      29.990 -11.103  -1.512  0.00  0.00     0.030 C 
ATOM      5  C   UNL d   1      28.634 -10.829  -1.289  0.00  0.00     0.029 C 
ATOM      6  C   UNL d   1      27.869 -11.947  -1.078  0.00  0.00     0.030 C 
ATOM      7  C   UNL d   1      28.338 -13.217  -1.344  0.00  0.00     0.012 C 
BRANCH   5   8
ATOM      8  N   UNL d   1      28.056  -9.570  -1.356  0.00  0.00    -0.390 N 
ATOM      9  C   UNL d   1      26.760  -9.307  -2.001  0.00  0.00     0.149 C 
ATOM     10  C   UNL d   1      28.880  -8.423  -1.010  0.00  0.00     0.149 C 
ENDBRANCH   5   8
ENDBRANCH   1   2
BRANCH   1  11
ATOM     11  C   UNL d   1      28.765 -15.553  -1.397  0.00  0.00     0.245 C 
ATOM     12  O   UNL d   1      29.163 -15.912  -0.312  0.00  0.00    -0.271 OA
ATOM     13  N   UNL d   1      27.491 -15.896  -1.863  0.00  0.00    -0.351 N 
ATOM     14  H   UNL d   1      27.268 -15.874  -2.843  0.00  0.00     0.163 HD
BRANCH  13  15
ATOM     15  C   UNL d   1      26.592 -16.610  -0.957  0.00  0.00     0.026 C 
ATOM     16  C   UNL d   1      27.306 -17.859  -0.389  0.00  0.00     0.038 C 
ATOM     17  C   UNL d   1      26.274 -15.556   0.109  0.00  0.00     0.038 C 
BRANCH  15  18
ATOM     18  C   UNL d   1      25.301 -17.070  -1.733  0.00  0.00     0.038 C 
BRANCH  18  19
ATOM     19  C   UNL d   1      24.077 -17.578  -0.889  0.00  0.00    -0.049 C 
ATOM     20  C   UNL d   1      23.189 -18.579  -1.645  0.00  0.00     0.014 C 
ATOM     21  C   UNL d   1      24.507 -18.184   0.451  0.00  0.00     0.014 C 
ATOM     22  C   UNL d   1      23.156 -16.397  -0.541  0.00  0.00     0.014 C 
ENDBRANCH  18  19
ENDBRANCH  15  18
ENDBRANCH  13  15
ENDBRANCH   1  11
BRANCH   1  23
ATOM     23  N   UNL d   1      29.335 -15.382  -3.912  0.00  0.00    -0.322 N 
ATOM     24  C   UNL d   1      28.202 -14.934  -4.727  0.00  0.00     0.261 C 
ATOM     25  O   UNL d   1      27.747 -15.575  -5.682  0.00  0.00    -0.267 OA
BRANCH  24  26
ATOM     26  C   UNL d   1      27.327 -13.750  -4.498  0.00  0.00     0.098 A 
ATOM     27  C   UNL d   1      27.766 -12.460  -4.954  0.00  0.00     0.084 A 
ATOM     28  C   UNL d   1      26.909 -11.350  -4.926  0.00  0.00     0.038 A 
ATOM     29  C   UNL d   1      25.578 -11.540  -4.542  0.00  0.00     0.005 A 
ATOM     30  C   UNL d   1      25.116 -12.811  -4.200  0.00  0.00     0.038 A 
ATOM     31  C   UNL d   1      25.998 -13.891  -4.098  0.00  0.00     0.084 A 
BRANCH  27  32
ATOM     32  O   UNL d   1      28.879 -12.267  -5.758  0.00  0.00    -0.360 OA
ATOM     33  H   UNL d   1      29.143 -13.112  -6.175  0.00  0.00     0.217 HD
ENDBRANCH  27  32
BRANCH  31  34
ATOM     34  O   UNL d   1      25.463 -15.131  -3.866  0.00  0.00    -0.360 OA
ATOM     35  H   UNL d   1      25.939 -15.738  -4.463  0.00  0.00     0.217 HD
ENDBRANCH  31  34
ENDBRANCH  24  26
BRANCH  23  36
ATOM     36  C   UNL d   1      30.299 -16.417  -4.594  0.00  0.00     0.026 C 
ATOM     37  C   UNL d   1      31.732 -16.158  -4.101  0.00  0.00     0.037 C 
ATOM     38  C   UNL d   1      30.030 -17.919  -4.334  0.00  0.00     0.037 C 
ATOM     39  C   UNL d   1      30.319 -16.354  -6.137  0.00  0.00     0.037 C 
ENDBRANCH  23  36
ENDBRANCH   1  23
TORSDOF 11
ENDMDL
MODEL 7
REMARK VINA RESULT:    -5.573      2.359      5.976
REMARK INTER + INTRA:         -13.769
REMARK INTER:                  -8.854
REMARK INTRA:                  -4.915
REMARK CONF_INDEPENDENT:        3.281
REMARK UNBOUND:                -4.915
REMARK  11 active torsions:
REMARK  status: ('A' for Active; 'I' for Inactive)
REMARK    1  A    between atoms: N_2  and  C_4 
REMARK    2  A    between atoms: C_7  and  C_8 
REMARK    3  A    between atoms: C_8  and  C_9 
REMARK    4  A    between atoms: C_8  and  N_20 
REMARK       I    between atoms: C_9  and  N_11 
REMARK    5  A    between atoms: N_11  and  C_12 
REMARK    6  A    between atoms: C_12  and  C_15 
REMARK    7  A    between atoms: C_15  and  C_16 
REMARK       I    between atoms: N_20  and  C_21 
REMARK    8  A    between atoms: N_20  and  C_31 
REMARK    9  A    between atoms: C_21  and  C_23 
REMARK   10  A    between atoms: C_24  and  O_25 
REMARK   11  A    between atoms: C_29  and  O_30 
ROOT
ATOM      1  C   UNL d   1      27.491 -13.027  -1.738  0.00  0.00     0.213 C 
ENDROOT
BRANCH   1   2
ATOM      2  C   UNL d   1      27.704 -13.527  -0.308  0.00  0.00    -0.026 C 
ATOM      3  C   UNL d   1      28.689 -14.374   0.214  0.00  0.00     0.012 C 
ATOM      4  C   UNL d   1      28.670 -14.697   1.595  0.00  0.00     0.030 C 
ATOM      5  C   UNL d   1      27.786 -14.079   2.488  0.00  0.00     0.029 C 
ATOM      6  C   UNL d   1      26.694 -13.509   1.883  0.00  0.00     0.030 C 
ATOM      7  C   UNL d   1      26.629 -13.320   0.518  0.00  0.00     0.012 C 
BRANCH   5   8
ATOM      8  N   UNL d   1      27.994 -13.948   3.853  0.00  0.00    -0.390 N 
ATOM      9  C   UNL d   1      28.156 -15.094   4.761  0.00  0.00     0.149 C 
ATOM     10  C   UNL d   1      27.781 -12.640   4.451  0.00  0.00     0.149 C 
ENDBRANCH   5   8
ENDBRANCH   1   2
BRANCH   1  11
ATOM     11  C   UNL d   1      28.952 -13.123  -2.222  0.00  0.00     0.245 C 
ATOM     12  O   UNL d   1      29.624 -12.122  -2.325  0.00  0.00    -0.271 OA
ATOM     13  N   UNL d   1      29.386 -14.354  -2.725  0.00  0.00    -0.351 N 
ATOM     14  H   UNL d   1      28.739 -15.099  -2.919  0.00  0.00     0.163 HD
BRANCH  13  15
ATOM     15  C   UNL d   1      30.735 -14.436  -3.286  0.00  0.00     0.026 C 
ATOM     16  C   UNL d   1      30.864 -13.459  -4.478  0.00  0.00     0.038 C 
ATOM     17  C   UNL d   1      31.623 -14.061  -2.095  0.00  0.00     0.038 C 
BRANCH  15  18
ATOM     18  C   UNL d   1      31.018 -15.900  -3.793  0.00  0.00     0.038 C 
BRANCH  18  19
ATOM     19  C   UNL d   1      30.249 -16.398  -5.070  0.00  0.00    -0.049 C 
ATOM     20  C   UNL d   1      28.824 -15.832  -5.181  0.00  0.00     0.014 C 
ATOM     21  C   UNL d   1      31.019 -16.107  -6.362  0.00  0.00     0.014 C 
ATOM     22  C   UNL d   1      30.079 -17.925  -5.015  0.00  0.00     0.014 C 
ENDBRANCH  18  19
ENDBRANCH  15  18
ENDBRANCH  13  15
ENDBRANCH   1  11
BRANCH   1  23
ATOM     23  N   UNL d   1      26.541 -13.884  -2.759  0.00  0.00    -0.322 N 
ATOM     24  C   UNL d   1      26.115 -15.281  -2.634  0.00  0.00     0.261 C 
ATOM     25  O   UNL d   1      25.716 -15.965  -3.585  0.00  0.00    -0.267 OA
BRANCH  24  26
ATOM     26  C   UNL d   1      26.202 -16.155  -1.431  0.00  0.00     0.098 A 
ATOM     27  C   UNL d   1      24.989 -16.582  -0.790  0.00  0.00     0.084 A 
ATOM     28  C   UNL d   1      25.008 -17.545   0.230  0.00  0.00     0.038 A 
ATOM     29  C   UNL d   1      26.220 -18.166   0.545  0.00  0.00     0.005 A 
ATOM     30  C   UNL d   1      27.384 -17.833  -0.148  0.00  0.00     0.038 A 
ATOM     31  C   UNL d   1      27.395 -16.782  -1.069  0.00  0.00     0.084 A 
BRANCH  27  32
ATOM     32  O   UNL d   1      23.726 -16.379  -1.323  0.00  0.00    -0.360 OA
ATOM     33  H   UNL d   1      23.792 -16.178  -2.278  0.00  0.00     0.217 HD
ENDBRANCH  27  32
BRANCH  31  34
ATOM     34  O   UNL d   1      28.541 -16.580  -1.793  0.00  0.00    -0.360 OA
ATOM     35  H   UNL d   1      29.194 -17.207  -1.431  0.00  0.00     0.217 HD
ENDBRANCH  31  34
ENDBRANCH  24  26
BRANCH  23  36
ATOM     36  C   UNL d   1      25.982 -13.109  -4.004  0.00  0.00     0.026 C 
ATOM     37  C   UNL d   1      24.540 -13.574  -4.270  0.00  0.00     0.037 C 
ATOM     38  C   UNL d   1      25.915 -11.565  -3.911  0.00  0.00     0.037 C 
ATOM     39  C   UNL d   1      26.785 -13.321  -5.306  0.00  0.00     0.037 C 
ENDBRANCH  23  36
ENDBRANCH   1  23
TORSDOF 11
ENDMDL
MODEL 8
REMARK VINA RESULT:    -5.494      1.755      3.942
REMARK INTER + INTRA:         -13.974
REMARK INTER:                  -8.775
REMARK INTRA:                  -5.199
REMARK CONF_INDEPENDENT:        3.281
REMARK UNBOUND:                -5.199
REMARK  11 active torsions:
REMARK  status: ('A' for Active; 'I' for Inactive)
REMARK    1  A    between atoms: N_2  and  C_4 
REMARK    2  A    between atoms: C_7  and  C_8 
REMARK    3  A    between atoms: C_8  and  C_9 
REMARK    4  A    between atoms: C_8  and  N_20 
REMARK       I    between atoms: C_9  and  N_11 
REMARK    5  A    between atoms: N_11  and  C_12 
REMARK    6  A    between atoms: C_12  and  C_15 
REMARK    7  A    between atoms: C_15  and  C_16 
REMARK       I    between atoms: N_20  and  C_21 
REMARK    8  A    between atoms: N_20  and  C_31 
REMARK    9  A    between atoms: C_21  and  C_23 
REMARK   10  A    between atoms: C_24  and  O_25 
REMARK   11  A    between atoms: C_29  and  O_30 
ROOT
ATOM      1  C   UNL d   1      28.176 -15.943  -3.477  0.00  0.00     0.213 C 
ENDROOT
BRANCH   1   2
ATOM      2  C   UNL d   1      26.894 -16.049  -2.648  0.00  0.00    -0.026 C 
ATOM      3  C   UNL d   1      25.728 -15.276  -2.687  0.00  0.00     0.012 C 
ATOM      4  C   UNL d   1      24.663 -15.575  -1.799  0.00  0.00     0.030 C 
ATOM      5  C   UNL d   1      24.678 -16.713  -0.983  0.00  0.00     0.029 C 
ATOM      6  C   UNL d   1      25.929 -17.238  -0.784  0.00  0.00     0.030 C 
ATOM      7  C   UNL d   1      27.015 -16.851  -1.541  0.00  0.00     0.012 C 
BRANCH   5   8
ATOM      8  N   UNL d   1      23.551 -17.343  -0.475  0.00  0.00    -0.390 N 
ATOM      9  C   UNL d   1      23.503 -18.776  -0.146  0.00  0.00     0.149 C 
ATOM     10  C   UNL d   1      22.290 -16.620  -0.520  0.00  0.00     0.149 C 
ENDBRANCH   5   8
ENDBRANCH   1   2
BRANCH   1  11
ATOM     11  C   UNL d   1      27.696 -14.875  -4.481  0.00  0.00     0.245 C 
ATOM     12  O   UNL d   1      27.352 -15.200  -5.595  0.00  0.00    -0.271 OA
ATOM     13  N   UNL d   1      27.875 -13.532  -4.130  0.00  0.00    -0.351 N 
ATOM     14  H   UNL d   1      28.437 -13.268  -3.339  0.00  0.00     0.163 HD
BRANCH  13  15
ATOM     15  C   UNL d   1      27.525 -12.507  -5.113  0.00  0.00     0.026 C 
ATOM     16  C   UNL d   1      28.392 -12.682  -6.382  0.00  0.00     0.038 C 
ATOM     17  C   UNL d   1      26.034 -12.765  -5.358  0.00  0.00     0.038 C 
BRANCH  15  18
ATOM     18  C   UNL d   1      27.784 -11.075  -4.512  0.00  0.00     0.038 C 
BRANCH  18  19
ATOM     19  C   UNL d   1      26.613 -10.384  -3.724  0.00  0.00    -0.049 C 
ATOM     20  C   UNL d   1      25.576  -9.714  -4.640  0.00  0.00     0.014 C 
ATOM     21  C   UNL d   1      25.905 -11.353  -2.770  0.00  0.00     0.014 C 
ATOM     22  C   UNL d   1      27.170  -9.256  -2.841  0.00  0.00     0.014 C 
ENDBRANCH  18  19
ENDBRANCH  15  18
ENDBRANCH  13  15
ENDBRANCH   1  11
BRANCH   1  23
ATOM     23  N   UNL d   1      29.554 -15.419  -2.769  0.00  0.00    -0.322 N 
ATOM     24  C   UNL d   1      29.693 -14.471  -1.659  0.00  0.00     0.261 C 
ATOM     25  O   UNL d   1      30.733 -13.849  -1.413  0.00  0.00    -0.267 OA
BRANCH  24  26
ATOM     26  C   UNL d   1      28.627 -13.987  -0.737  0.00  0.00     0.098 A 
ATOM     27  C   UNL d   1      28.264 -14.795   0.394  0.00  0.00     0.084 A 
ATOM     28  C   UNL d   1      27.402 -14.307   1.388  0.00  0.00     0.038 A 
ATOM     29  C   UNL d   1      26.980 -12.976   1.315  0.00  0.00     0.005 A 
ATOM     30  C   UNL d   1      27.414 -12.154   0.275  0.00  0.00     0.038 A 
ATOM     31  C   UNL d   1      28.163 -12.672  -0.785  0.00  0.00     0.084 A 
BRANCH  27  32
ATOM     32  O   UNL d   1      28.967 -15.922   0.791  0.00  0.00    -0.360 OA
ATOM     33  H   UNL d   1      29.484 -15.730   1.599  0.00  0.00     0.217 HD
ENDBRANCH  27  32
BRANCH  31  34
ATOM     34  O   UNL d   1      28.649 -11.790  -1.713  0.00  0.00    -0.360 OA
ATOM     35  H   UNL d   1      29.585 -12.033  -1.841  0.00  0.00     0.217 HD
ENDBRANCH  31  34
ENDBRANCH  24  26
BRANCH  23  36
ATOM     36  C   UNL d   1      30.893 -16.033  -3.313  0.00  0.00     0.026 C 
ATOM     37  C   UNL d   1      31.637 -16.707  -2.147  0.00  0.00     0.037 C 
ATOM     38  C   UNL d   1      30.785 -17.109  -4.421  0.00  0.00     0.037 C 
ATOM     39  C   UNL d   1      31.857 -15.008  -3.949  0.00  0.00     0.037 C 
ENDBRANCH  23  36
ENDBRANCH   1  23
TORSDOF 11
ENDMDL
MODEL 9
REMARK VINA RESULT:    -5.433      2.299      7.026
REMARK INTER + INTRA:         -13.535
REMARK INTER:                  -8.714
REMARK INTRA:                  -4.820
REMARK CONF_INDEPENDENT:        3.281
REMARK UNBOUND:                -4.820
REMARK  11 active torsions:
REMARK  status: ('A' for Active; 'I' for Inactive)
REMARK    1  A    between atoms: N_2  and  C_4 
REMARK    2  A    between atoms: C_7  and  C_8 
REMARK    3  A    between atoms: C_8  and  C_9 
REMARK    4  A    between atoms: C_8  and  N_20 
REMARK       I    between atoms: C_9  and  N_11 
REMARK    5  A    between atoms: N_11  and  C_12 
REMARK    6  A    between atoms: C_12  and  C_15 
REMARK    7  A    between atoms: C_15  and  C_16 
REMARK       I    between atoms: N_20  and  C_21 
REMARK    8  A    between atoms: N_20  and  C_31 
REMARK    9  A    between atoms: C_21  and  C_23 
REMARK   10  A    between atoms: C_24  and  O_25 
REMARK   11  A    between atoms: C_29  and  O_30 
ROOT
ATOM      1  C   UNL d   1      27.487 -16.290  -1.557  0.00  0.00     0.213 C 
ENDROOT
BRANCH   1   2
ATOM      2  C   UNL d   1      28.477 -15.737  -2.585  0.00  0.00    -0.026 C 
ATOM      3  C   UNL d   1      28.993 -16.324  -3.746  0.00  0.00     0.012 C 
ATOM      4  C   UNL d   1      29.914 -15.598  -4.545  0.00  0.00     0.030 C 
ATOM      5  C   UNL d   1      30.212 -14.253  -4.292  0.00  0.00     0.029 C 
ATOM      6  C   UNL d   1      29.915 -13.849  -3.015  0.00  0.00     0.030 C 
ATOM      7  C   UNL d   1      29.141 -14.612  -2.166  0.00  0.00     0.012 C 
BRANCH   5   8
ATOM      8  N   UNL d   1      30.679 -13.350  -5.236  0.00  0.00    -0.390 N 
ATOM      9  C   UNL d   1      30.806 -11.907  -4.984  0.00  0.00     0.149 C 
ATOM     10  C   UNL d   1      30.798 -13.806  -6.612  0.00  0.00     0.149 C 
ENDBRANCH   5   8
ENDBRANCH   1   2
BRANCH   1  11
ATOM     11  C   UNL d   1      27.930 -15.437  -0.350  0.00  0.00     0.245 C 
ATOM     12  O   UNL d   1      28.790 -15.845   0.397  0.00  0.00    -0.271 OA
ATOM     13  N   UNL d   1      27.167 -14.305  -0.044  0.00  0.00    -0.351 N 
ATOM     14  H   UNL d   1      26.277 -14.139  -0.482  0.00  0.00     0.163 HD
BRANCH  13  15
ATOM     15  C   UNL d   1      27.508 -13.545   1.158  0.00  0.00     0.026 C 
ATOM     16  C   UNL d   1      28.868 -12.835   0.959  0.00  0.00     0.038 C 
ATOM     17  C   UNL d   1      26.330 -12.574   1.292  0.00  0.00     0.038 C 
BRANCH  15  18
ATOM     18  C   UNL d   1      27.615 -14.515   2.395  0.00  0.00     0.038 C 
BRANCH  18  19
ATOM     19  C   UNL d   1      28.263 -13.957   3.712  0.00  0.00    -0.049 C 
ATOM     20  C   UNL d   1      29.797 -14.054   3.725  0.00  0.00     0.014 C 
ATOM     21  C   UNL d   1      27.838 -12.513   4.003  0.00  0.00     0.014 C 
ATOM     22  C   UNL d   1      27.791 -14.786   4.919  0.00  0.00     0.014 C 
ENDBRANCH  18  19
ENDBRANCH  15  18
ENDBRANCH  13  15
ENDBRANCH   1  11
BRANCH   1  23
ATOM     23  N   UNL d   1      25.882 -16.080  -1.789  0.00  0.00    -0.322 N 
ATOM     24  C   UNL d   1      25.215 -15.060  -2.605  0.00  0.00     0.261 C 
ATOM     25  O   UNL d   1      24.033 -14.728  -2.458  0.00  0.00    -0.267 OA
BRANCH  24  26
ATOM     26  C   UNL d   1      25.829 -14.167  -3.627  0.00  0.00     0.098 A 
ATOM     27  C   UNL d   1      26.300 -12.870  -3.228  0.00  0.00     0.084 A 
ATOM     28  C   UNL d   1      27.045 -12.067  -4.105  0.00  0.00     0.038 A 
ATOM     29  C   UNL d   1      27.416 -12.593  -5.346  0.00  0.00     0.005 A 
ATOM     30  C   UNL d   1      27.052 -13.893  -5.698  0.00  0.00     0.038 A 
ATOM     31  C   UNL d   1      26.199 -14.645  -4.886  0.00  0.00     0.084 A 
BRANCH  27  32
ATOM     32  O   UNL d   1      26.383 -12.456  -1.908  0.00  0.00    -0.360 OA
ATOM     33  H   UNL d   1      25.674 -12.874  -1.379  0.00  0.00     0.217 HD
ENDBRANCH  27  32
BRANCH  31  34
ATOM     34  O   UNL d   1      25.972 -15.950  -5.235  0.00  0.00    -0.360 OA
ATOM     35  H   UNL d   1      25.223 -16.243  -4.682  0.00  0.00     0.217 HD
ENDBRANCH  31  34
ENDBRANCH  24  26
BRANCH  23  36
ATOM     36  C   UNL d   1      24.936 -17.118  -1.089  0.00  0.00     0.026 C 
ATOM     37  C   UNL d   1      23.984 -16.364  -0.145  0.00  0.00     0.037 C 
ATOM     38  C   UNL d   1      24.028 -17.982  -1.998  0.00  0.00     0.037 C 
ATOM     39  C   UNL d   1      25.668 -18.190  -0.251  0.00  0.00     0.037 C 
ENDBRANCH  23  36
ENDBRANCH   1  23
TORSDOF 11
ENDMDL
