MODEL 1
REMARK VINA RESULT:    -9.832      0.000      0.000
REMARK INTER + INTRA:         -14.142
REMARK INTER:                 -12.815
REMARK INTRA:                  -1.327
REMARK CONF_INDEPENDENT:        2.983
REMARK UNBOUND:                -1.327
REMARK  10 active torsions:
REMARK  status: ('A' for Active; 'I' for Inactive)
REMARK    1  A    between atoms: N_2  and  C_3 
REMARK    2  A    between atoms: N_2  and  C_20 
REMARK    3  A    between atoms: C_3  and  C_4 
REMARK    4  A    between atoms: C_4  and  O_5 
REMARK    5  A    between atoms: O_5  and  C_6 
REMARK    6  A    between atoms: C_9  and  C_10 
REMARK    7  A    between atoms: C_11  and  C_10 
REMARK    8  A    between atoms: C_23  and  O_24 
REMARK    9  A    between atoms: O_24  and  C_25 
REMARK   10  A    between atoms: C_25  and  C_26 
ROOT
ATOM      1  C   UNL d   1      27.210 -14.594  -0.305  0.00  0.00     0.150 C 
ENDROOT
BRANCH   1   2
ATOM      2  N   UNL d   1      27.265 -16.058  -0.481  0.00  0.00    -0.370 N 
ATOM      3  C   UNL d   1      28.529 -16.787  -0.324  0.00  0.00     0.151 C 
BRANCH   2   4
ATOM      4  C   UNL d   1      26.095 -16.793  -0.520  0.00  0.00     0.102 A 
ATOM      5  C   UNL d   1      25.792 -17.809   0.398  0.00  0.00     0.051 A 
ATOM      6  C   UNL d   1      24.628 -18.565   0.275  0.00  0.00     0.042 A 
ATOM      7  C   UNL d   1      23.769 -18.335  -0.786  0.00  0.00     0.084 A 
ATOM      8  C   UNL d   1      24.096 -17.322  -1.684  0.00  0.00     0.126 A 
ATOM      9  N   UNL d   1      25.213 -16.592  -1.517  0.00  0.00    -0.350 N 
ATOM     10  H   UNL d   1      25.448 -15.885  -2.207  0.00  0.00     0.166 HD
BRANCH   7  11
ATOM     11  O   UNL d   1      22.620 -19.029  -1.034  0.00  0.00    -0.345 OA
BRANCH  11  12
ATOM     12  C   UNL d   1      21.381 -18.306  -0.910  0.00  0.00     0.214 C 
BRANCH  12  13
ATOM     13  C   UNL d   1      20.391 -19.138  -0.139  0.00  0.00    -0.034 A 
ATOM     14  C   UNL d   1      20.561 -19.376   1.231  0.00  0.00     0.009 A 
ATOM     15  C   UNL d   1      19.716 -20.262   1.900  0.00  0.00     0.001 A 
ATOM     16  C   UNL d   1      18.628 -20.825   1.237  0.00  0.00     0.000 A 
ATOM     17  C   UNL d   1      18.406 -20.537  -0.107  0.00  0.00     0.001 A 
ATOM     18  C   UNL d   1      19.285 -19.698  -0.794  0.00  0.00     0.009 A 
ENDBRANCH  12  13
ENDBRANCH  11  12
ENDBRANCH   7  11
ENDBRANCH   2   4
ENDBRANCH   1   2
BRANCH   1  19
ATOM     19  C   UNL d   1      27.257 -14.147   1.161  0.00  0.00     0.195 C 
BRANCH  19  20
ATOM     20  O   UNL d   1      28.601 -14.011   1.580  0.00  0.00    -0.350 OA
BRANCH  20  21
ATOM     21  C   UNL d   1      28.764 -14.164   2.930  0.00  0.00     0.068 C 
ATOM     22  C   UNL d   1      27.603 -14.007   3.666  0.00  0.00     0.037 C 
ATOM     23  C   UNL d   1      27.677 -13.938   5.044  0.00  0.00     0.010 C 
ATOM     24  C   UNL d   1      28.868 -14.197   5.726  0.00  0.00    -0.056 C 
ATOM     25  C   UNL d   1      30.040 -14.364   4.982  0.00  0.00     0.010 C 
ATOM     26  C   UNL d   1      29.987 -14.333   3.586  0.00  0.00     0.037 C 
BRANCH  24  27
ATOM     27  C   UNL d   1      28.905 -14.356   7.222  0.00  0.00     0.063 C 
BRANCH  27  28
ATOM     28  C   UNL d   1      29.615 -13.248   8.013  0.00  0.00     0.153 A 
ATOM     29  S   UNL d   1      30.320 -11.846   7.046  0.00  0.00    -0.054 SA
ATOM     30  C   UNL d   1      29.407 -10.647   7.898  0.00  0.00     0.287 A 
ATOM     31  O   UNL d   1      29.541  -9.454   7.738  0.00  0.00    -0.260 OA
ATOM     32  N   UNL d   1      28.536 -11.250   8.742  0.00  0.00    -0.287 N 
ATOM     33  C   UNL d   1      28.574 -12.601   8.889  0.00  0.00     0.239 A 
ATOM     34  H   UNL d   1      27.872 -10.697   9.255  0.00  0.00     0.172 HD
ATOM     35  O   UNL d   1      27.817 -13.217   9.629  0.00  0.00    -0.272 OA
ENDBRANCH  27  28
ENDBRANCH  24  27
ENDBRANCH  20  21
ENDBRANCH  19  20
ENDBRANCH   1  19
TORSDOF 10
ENDMDL
MODEL 2
REMARK VINA RESULT:    -9.580      3.537     11.103
REMARK INTER + INTRA:         -13.687
REMARK INTER:                 -12.563
REMARK INTRA:                  -1.124
REMARK CONF_INDEPENDENT:        2.983
REMARK UNBOUND:                -1.124
REMARK  10 active torsions:
REMARK  status: ('A' for Active; 'I' for Inactive)
REMARK    1  A    between atoms: N_2  and  C_3 
REMARK    2  A    between atoms: N_2  and  C_20 
REMARK    3  A    between atoms: C_3  and  C_4 
REMARK    4  A    between atoms: C_4  and  O_5 
REMARK    5  A    between atoms: O_5  and  C_6 
REMARK    6  A    between atoms: C_9  and  C_10 
REMARK    7  A    between atoms: C_11  and  C_10 
REMARK    8  A    between atoms: C_23  and  O_24 
REMARK    9  A    between atoms: O_24  and  C_25 
REMARK   10  A    between atoms: C_25  and  C_26 
ROOT
ATOM      1  C   UNL d   1      27.500 -15.300   0.619  0.00  0.00     0.150 C 
ENDROOT
BRANCH   1   2
ATOM      2  N   UNL d   1      28.612 -14.408   1.002  0.00  0.00    -0.370 N 
ATOM      3  C   UNL d   1      29.540 -13.887  -0.009  0.00  0.00     0.151 C 
BRANCH   2   4
ATOM      4  C   UNL d   1      28.634 -13.833   2.259  0.00  0.00     0.102 A 
ATOM      5  C   UNL d   1      28.105 -12.564   2.534  0.00  0.00     0.051 A 
ATOM      6  C   UNL d   1      28.210 -12.001   3.805  0.00  0.00     0.042 A 
ATOM      7  C   UNL d   1      28.877 -12.687   4.806  0.00  0.00     0.084 A 
ATOM      8  C   UNL d   1      29.395 -13.944   4.503  0.00  0.00     0.126 A 
ATOM      9  N   UNL d   1      29.247 -14.468   3.274  0.00  0.00    -0.350 N 
ATOM     10  H   UNL d   1      29.668 -15.370   3.069  0.00  0.00     0.166 HD
BRANCH   7  11
ATOM     11  O   UNL d   1      29.076 -12.229   6.075  0.00  0.00    -0.345 OA
BRANCH  11  12
ATOM     12  C   UNL d   1      28.062 -12.540   7.049  0.00  0.00     0.214 C 
BRANCH  12  13
ATOM     13  C   UNL d   1      28.711 -13.091   8.291  0.00  0.00    -0.034 A 
ATOM     14  C   UNL d   1      29.864 -13.883   8.211  0.00  0.00     0.009 A 
ATOM     15  C   UNL d   1      30.372 -14.501   9.353  0.00  0.00     0.001 A 
ATOM     16  C   UNL d   1      29.804 -14.241  10.599  0.00  0.00     0.000 A 
ATOM     17  C   UNL d   1      28.702 -13.396  10.700  0.00  0.00     0.001 A 
ATOM     18  C   UNL d   1      28.156 -12.824   9.550  0.00  0.00     0.009 A 
ENDBRANCH  12  13
ENDBRANCH  11  12
ENDBRANCH   7  11
ENDBRANCH   2   4
ENDBRANCH   1   2
BRANCH   1  19
ATOM     19  C   UNL d   1      27.881 -16.339  -0.442  0.00  0.00     0.195 C 
BRANCH  19  20
ATOM     20  O   UNL d   1      26.872 -16.411  -1.431  0.00  0.00    -0.350 OA
BRANCH  20  21
ATOM     21  C   UNL d   1      25.663 -16.823  -0.939  0.00  0.00     0.068 C 
ATOM     22  C   UNL d   1      25.726 -17.953  -0.144  0.00  0.00     0.037 C 
ATOM     23  C   UNL d   1      24.556 -18.579   0.240  0.00  0.00     0.010 C 
ATOM     24  C   UNL d   1      23.306 -18.004  -0.003  0.00  0.00    -0.056 C 
ATOM     25  C   UNL d   1      23.243 -16.858  -0.800  0.00  0.00     0.010 C 
ATOM     26  C   UNL d   1      24.421 -16.278  -1.278  0.00  0.00     0.037 C 
BRANCH  24  27
ATOM     27  C   UNL d   1      22.048 -18.554   0.614  0.00  0.00     0.063 C 
BRANCH  27  28
ATOM     28  C   UNL d   1      21.207 -19.494  -0.262  0.00  0.00     0.153 A 
ATOM     29  S   UNL d   1      20.281 -20.837   0.596  0.00  0.00    -0.054 SA
ATOM     30  C   UNL d   1      18.744 -20.328  -0.020  0.00  0.00     0.287 A 
ATOM     31  O   UNL d   1      17.712 -20.937   0.151  0.00  0.00    -0.260 OA
ATOM     32  N   UNL d   1      18.886 -19.164  -0.698  0.00  0.00    -0.287 N 
ATOM     33  C   UNL d   1      20.130 -18.653  -0.895  0.00  0.00     0.239 A 
ATOM     34  H   UNL d   1      18.074 -18.690  -1.052  0.00  0.00     0.172 HD
ATOM     35  O   UNL d   1      20.337 -17.605  -1.493  0.00  0.00    -0.272 OA
ENDBRANCH  27  28
ENDBRANCH  24  27
ENDBRANCH  20  21
ENDBRANCH  19  20
ENDBRANCH   1  19
TORSDOF 10
ENDMDL
MODEL 3
REMARK VINA RESULT:    -9.533      5.633      8.826
REMARK INTER + INTRA:         -14.583
REMARK INTER:                 -12.516
REMARK INTRA:                  -2.067
REMARK CONF_INDEPENDENT:        2.983
REMARK UNBOUND:                -2.067
REMARK  10 active torsions:
REMARK  status: ('A' for Active; 'I' for Inactive)
REMARK    1  A    between atoms: N_2  and  C_3 
REMARK    2  A    between atoms: N_2  and  C_20 
REMARK    3  A    between atoms: C_3  and  C_4 
REMARK    4  A    between atoms: C_4  and  O_5 
REMARK    5  A    between atoms: O_5  and  C_6 
REMARK    6  A    between atoms: C_9  and  C_10 
REMARK    7  A    between atoms: C_11  and  C_10 
REMARK    8  A    between atoms: C_23  and  O_24 
REMARK    9  A    between atoms: O_24  and  C_25 
REMARK   10  A    between atoms: C_25  and  C_26 
ROOT
ATOM      1  C   UNL d   1      26.688 -15.728   0.345  0.00  0.00     0.150 C 
ENDROOT
BRANCH   1   2
ATOM      2  N   UNL d   1      26.239 -17.065  -0.090  0.00  0.00    -0.370 N 
ATOM      3  C   UNL d   1      27.164 -18.205  -0.091  0.00  0.00     0.151 C 
BRANCH   2   4
ATOM      4  C   UNL d   1      24.889 -17.327  -0.237  0.00  0.00     0.102 A 
ATOM      5  C   UNL d   1      24.358 -18.623  -0.286  0.00  0.00     0.051 A 
ATOM      6  C   UNL d   1      22.997 -18.834  -0.501  0.00  0.00     0.042 A 
ATOM      7  C   UNL d   1      22.158 -17.751  -0.702  0.00  0.00     0.084 A 
ATOM      8  C   UNL d   1      22.714 -16.475  -0.651  0.00  0.00     0.126 A 
ATOM      9  N   UNL d   1      24.026 -16.309  -0.410  0.00  0.00    -0.350 N 
ATOM     10  H   UNL d   1      24.414 -15.370  -0.416  0.00  0.00     0.166 HD
BRANCH   7  11
ATOM     11  O   UNL d   1      20.819 -17.829  -0.955  0.00  0.00    -0.345 OA
BRANCH  11  12
ATOM     12  C   UNL d   1      20.289 -19.131  -1.268  0.00  0.00     0.214 C 
BRANCH  12  13
ATOM     13  C   UNL d   1      19.763 -19.772  -0.011  0.00  0.00    -0.034 A 
ATOM     14  C   UNL d   1      18.618 -20.579  -0.038  0.00  0.00     0.009 A 
ATOM     15  C   UNL d   1      18.062 -21.049   1.152  0.00  0.00     0.001 A 
ATOM     16  C   UNL d   1      18.708 -20.816   2.365  0.00  0.00     0.000 A 
ATOM     17  C   UNL d   1      19.888 -20.078   2.395  0.00  0.00     0.001 A 
ATOM     18  C   UNL d   1      20.413 -19.555   1.212  0.00  0.00     0.009 A 
ENDBRANCH  12  13
ENDBRANCH  11  12
ENDBRANCH   7  11
ENDBRANCH   2   4
ENDBRANCH   1   2
BRANCH   1  19
ATOM     19  C   UNL d   1      26.977 -14.768  -0.815  0.00  0.00     0.195 C 
BRANCH  19  20
ATOM     20  O   UNL d   1      25.818 -14.609  -1.610  0.00  0.00    -0.350 OA
BRANCH  20  21
ATOM     21  C   UNL d   1      25.989 -13.727  -2.643  0.00  0.00     0.068 C 
ATOM     22  C   UNL d   1      25.591 -14.209  -3.876  0.00  0.00     0.037 C 
ATOM     23  C   UNL d   1      25.900 -13.494  -5.017  0.00  0.00     0.010 C 
ATOM     24  C   UNL d   1      26.448 -12.210  -4.948  0.00  0.00    -0.056 C 
ATOM     25  C   UNL d   1      26.843 -11.720  -3.701  0.00  0.00     0.010 C 
ATOM     26  C   UNL d   1      26.626 -12.485  -2.552  0.00  0.00     0.037 C 
BRANCH  24  27
ATOM     27  C   UNL d   1      26.568 -11.335  -6.167  0.00  0.00     0.063 C 
BRANCH  27  28
ATOM     28  C   UNL d   1      27.946 -11.282  -6.842  0.00  0.00     0.153 A 
ATOM     29  S   UNL d   1      29.332 -12.147  -5.989  0.00  0.00    -0.054 SA
ATOM     30  C   UNL d   1      29.688 -13.161  -7.347  0.00  0.00     0.287 A 
ATOM     31  O   UNL d   1      30.630 -13.920  -7.396  0.00  0.00    -0.260 OA
ATOM     32  N   UNL d   1      28.758 -12.973  -8.313  0.00  0.00    -0.287 N 
ATOM     33  C   UNL d   1      27.816 -12.006  -8.156  0.00  0.00     0.239 A 
ATOM     34  H   UNL d   1      28.772 -13.546  -9.140  0.00  0.00     0.172 HD
ATOM     35  O   UNL d   1      26.941 -11.781  -8.983  0.00  0.00    -0.272 OA
ENDBRANCH  27  28
ENDBRANCH  24  27
ENDBRANCH  20  21
ENDBRANCH  19  20
ENDBRANCH   1  19
TORSDOF 10
ENDMDL
MODEL 4
REMARK VINA RESULT:    -9.165      1.448      1.987
REMARK INTER + INTRA:         -13.475
REMARK INTER:                 -12.148
REMARK INTRA:                  -1.327
REMARK CONF_INDEPENDENT:        2.983
REMARK UNBOUND:                -1.327
REMARK  10 active torsions:
REMARK  status: ('A' for Active; 'I' for Inactive)
REMARK    1  A    between atoms: N_2  and  C_3 
REMARK    2  A    between atoms: N_2  and  C_20 
REMARK    3  A    between atoms: C_3  and  C_4 
REMARK    4  A    between atoms: C_4  and  O_5 
REMARK    5  A    between atoms: O_5  and  C_6 
REMARK    6  A    between atoms: C_9  and  C_10 
REMARK    7  A    between atoms: C_11  and  C_10 
REMARK    8  A    between atoms: C_23  and  O_24 
REMARK    9  A    between atoms: O_24  and  C_25 
REMARK   10  A    between atoms: C_25  and  C_26 
ROOT
ATOM      1  C   UNL d   1      27.356 -14.392  -0.471  0.00  0.00     0.150 C 
ENDROOT
BRANCH   1   2
ATOM      2  N   UNL d   1      27.457 -15.864  -0.448  0.00  0.00    -0.370 N 
ATOM      3  C   UNL d   1      28.724 -16.525  -0.112  0.00  0.00     0.151 C 
BRANCH   2   4
ATOM      4  C   UNL d   1      26.311 -16.636  -0.469  0.00  0.00     0.102 A 
ATOM      5  C   UNL d   1      26.150 -17.797   0.301  0.00  0.00     0.051 A 
ATOM      6  C   UNL d   1      24.999 -18.576   0.194  0.00  0.00     0.042 A 
ATOM      7  C   UNL d   1      24.011 -18.221  -0.709  0.00  0.00     0.084 A 
ATOM      8  C   UNL d   1      24.199 -17.065  -1.462  0.00  0.00     0.126 A 
ATOM      9  N   UNL d   1      25.309 -16.321  -1.310  0.00  0.00    -0.350 N 
ATOM     10  H   UNL d   1      25.439 -15.504  -1.899  0.00  0.00     0.166 HD
BRANCH   7  11
ATOM     11  O   UNL d   1      22.859 -18.918  -0.929  0.00  0.00    -0.345 OA
BRANCH  11  12
ATOM     12  C   UNL d   1      21.624 -18.180  -0.855  0.00  0.00     0.214 C 
BRANCH  12  13
ATOM     13  C   UNL d   1      20.579 -19.021  -0.170  0.00  0.00    -0.034 A 
ATOM     14  C   UNL d   1      20.678 -19.324   1.194  0.00  0.00     0.009 A 
ATOM     15  C   UNL d   1      19.783 -20.217   1.782  0.00  0.00     0.001 A 
ATOM     16  C   UNL d   1      18.715 -20.723   1.044  0.00  0.00     0.000 A 
ATOM     17  C   UNL d   1      18.564 -20.370  -0.295  0.00  0.00     0.001 A 
ATOM     18  C   UNL d   1      19.494 -19.524  -0.901  0.00  0.00     0.009 A 
ENDBRANCH  12  13
ENDBRANCH  11  12
ENDBRANCH   7  11
ENDBRANCH   2   4
ENDBRANCH   1   2
BRANCH   1  19
ATOM     19  C   UNL d   1      27.141 -13.768   0.914  0.00  0.00     0.195 C 
BRANCH  19  20
ATOM     20  O   UNL d   1      28.292 -13.959   1.713  0.00  0.00    -0.350 OA
BRANCH  20  21
ATOM     21  C   UNL d   1      28.101 -13.620   3.025  0.00  0.00     0.068 C 
ATOM     22  C   UNL d   1      28.242 -12.271   3.291  0.00  0.00     0.037 C 
ATOM     23  C   UNL d   1      28.274 -11.837   4.603  0.00  0.00     0.010 C 
ATOM     24  C   UNL d   1      27.991 -12.701   5.664  0.00  0.00    -0.056 C 
ATOM     25  C   UNL d   1      27.840 -14.063   5.394  0.00  0.00     0.010 C 
ATOM     26  C   UNL d   1      27.909 -14.522   4.076  0.00  0.00     0.037 C 
BRANCH  24  27
ATOM     27  C   UNL d   1      27.791 -12.191   7.067  0.00  0.00     0.063 C 
BRANCH  27  28
ATOM     28  C   UNL d   1      28.990 -12.310   8.018  0.00  0.00     0.153 A 
ATOM     29  S   UNL d   1      29.206 -13.915   8.899  0.00  0.00    -0.054 SA
ATOM     30  C   UNL d   1      30.802 -14.173   8.279  0.00  0.00     0.287 A 
ATOM     31  O   UNL d   1      31.520 -15.088   8.616  0.00  0.00    -0.260 OA
ATOM     32  N   UNL d   1      31.101 -13.211   7.372  0.00  0.00    -0.287 N 
ATOM     33  C   UNL d   1      30.231 -12.186   7.174  0.00  0.00     0.239 A 
ATOM     34  H   UNL d   1      31.962 -13.260   6.856  0.00  0.00     0.172 HD
ATOM     35  O   UNL d   1      30.429 -11.284   6.370  0.00  0.00    -0.272 OA
ENDBRANCH  27  28
ENDBRANCH  24  27
ENDBRANCH  20  21
ENDBRANCH  19  20
ENDBRANCH   1  19
TORSDOF 10
ENDMDL
MODEL 5
REMARK VINA RESULT:    -9.103      7.054     11.293
REMARK INTER + INTRA:         -13.946
REMARK INTER:                 -12.086
REMARK INTRA:                  -1.860
REMARK CONF_INDEPENDENT:        2.983
REMARK UNBOUND:                -1.860
REMARK  10 active torsions:
REMARK  status: ('A' for Active; 'I' for Inactive)
REMARK    1  A    between atoms: N_2  and  C_3 
REMARK    2  A    between atoms: N_2  and  C_20 
REMARK    3  A    between atoms: C_3  and  C_4 
REMARK    4  A    between atoms: C_4  and  O_5 
REMARK    5  A    between atoms: O_5  and  C_6 
REMARK    6  A    between atoms: C_9  and  C_10 
REMARK    7  A    between atoms: C_11  and  C_10 
REMARK    8  A    between atoms: C_23  and  O_24 
REMARK    9  A    between atoms: O_24  and  C_25 
REMARK   10  A    between atoms: C_25  and  C_26 
ROOT
ATOM      1  C   UNL d   1      25.621 -14.363  -4.252  0.00  0.00     0.150 C 
ENDROOT
BRANCH   1   2
ATOM      2  N   UNL d   1      26.975 -13.830  -4.498  0.00  0.00    -0.370 N 
ATOM      3  C   UNL d   1      27.331 -12.465  -4.092  0.00  0.00     0.151 C 
BRANCH   2   4
ATOM      4  C   UNL d   1      27.999 -14.686  -4.857  0.00  0.00     0.102 A 
ATOM      5  C   UNL d   1      28.591 -14.687  -6.128  0.00  0.00     0.051 A 
ATOM      6  C   UNL d   1      29.577 -15.615  -6.461  0.00  0.00     0.042 A 
ATOM      7  C   UNL d   1      29.958 -16.573  -5.537  0.00  0.00     0.084 A 
ATOM      8  C   UNL d   1      29.352 -16.549  -4.284  0.00  0.00     0.126 A 
ATOM      9  N   UNL d   1      28.426 -15.620  -3.987  0.00  0.00    -0.350 N 
ATOM     10  H   UNL d   1      27.971 -15.649  -3.080  0.00  0.00     0.166 HD
BRANCH   7  11
ATOM     11  O   UNL d   1      30.883 -17.552  -5.755  0.00  0.00    -0.345 OA
BRANCH  11  12
ATOM     12  C   UNL d   1      30.417 -18.761  -6.384  0.00  0.00     0.214 C 
BRANCH  12  13
ATOM     13  C   UNL d   1      31.168 -18.976  -7.672  0.00  0.00    -0.034 A 
ATOM     14  C   UNL d   1      30.785 -19.980  -8.570  0.00  0.00     0.009 A 
ATOM     15  C   UNL d   1      31.572 -20.260  -9.688  0.00  0.00     0.001 A 
ATOM     16  C   UNL d   1      32.679 -19.465  -9.979  0.00  0.00     0.000 A 
ATOM     17  C   UNL d   1      33.026 -18.416  -9.131  0.00  0.00     0.001 A 
ATOM     18  C   UNL d   1      32.275 -18.174  -7.980  0.00  0.00     0.009 A 
ENDBRANCH  12  13
ENDBRANCH  11  12
ENDBRANCH   7  11
ENDBRANCH   2   4
ENDBRANCH   1   2
BRANCH   1  19
ATOM     19  C   UNL d   1      25.294 -14.552  -2.765  0.00  0.00     0.195 C 
BRANCH  19  20
ATOM     20  O   UNL d   1      25.867 -15.757  -2.295  0.00  0.00    -0.350 OA
BRANCH  20  21
ATOM     21  C   UNL d   1      24.987 -16.534  -1.592  0.00  0.00     0.068 C 
ATOM     22  C   UNL d   1      23.723 -15.990  -1.463  0.00  0.00     0.037 C 
ATOM     23  C   UNL d   1      22.813 -16.582  -0.607  0.00  0.00     0.010 C 
ATOM     24  C   UNL d   1      23.074 -17.814  -0.003  0.00  0.00    -0.056 C 
ATOM     25  C   UNL d   1      24.350 -18.368  -0.140  0.00  0.00     0.010 C 
ATOM     26  C   UNL d   1      25.308 -17.720  -0.923  0.00  0.00     0.037 C 
BRANCH  24  27
ATOM     27  C   UNL d   1      22.005 -18.576   0.736  0.00  0.00     0.063 C 
BRANCH  27  28
ATOM     28  C   UNL d   1      21.184 -19.579  -0.086  0.00  0.00     0.153 A 
ATOM     29  S   UNL d   1      20.283 -20.889   0.847  0.00  0.00    -0.054 SA
ATOM     30  C   UNL d   1      18.738 -20.447   0.202  0.00  0.00     0.287 A 
ATOM     31  O   UNL d   1      17.717 -21.065   0.406  0.00  0.00    -0.260 OA
ATOM     32  N   UNL d   1      18.858 -19.321  -0.541  0.00  0.00    -0.287 N 
ATOM     33  C   UNL d   1      20.092 -18.797  -0.766  0.00  0.00     0.239 A 
ATOM     34  H   UNL d   1      18.038 -18.883  -0.923  0.00  0.00     0.172 HD
ATOM     35  O   UNL d   1      20.280 -17.781  -1.423  0.00  0.00    -0.272 OA
ENDBRANCH  27  28
ENDBRANCH  24  27
ENDBRANCH  20  21
ENDBRANCH  19  20
ENDBRANCH   1  19
TORSDOF 10
ENDMDL
MODEL 6
REMARK VINA RESULT:    -9.023      5.724     10.647
REMARK INTER + INTRA:         -14.029
REMARK INTER:                 -12.006
REMARK INTRA:                  -2.023
REMARK CONF_INDEPENDENT:        2.983
REMARK UNBOUND:                -2.023
REMARK  10 active torsions:
REMARK  status: ('A' for Active; 'I' for Inactive)
REMARK    1  A    between atoms: N_2  and  C_3 
REMARK    2  A    between atoms: N_2  and  C_20 
REMARK    3  A    between atoms: C_3  and  C_4 
REMARK    4  A    between atoms: C_4  and  O_5 
REMARK    5  A    between atoms: O_5  and  C_6 
REMARK    6  A    between atoms: C_9  and  C_10 
REMARK    7  A    between atoms: C_11  and  C_10 
REMARK    8  A    between atoms: C_23  and  O_24 
REMARK    9  A    between atoms: O_24  and  C_25 
REMARK   10  A    between atoms: C_25  and  C_26 
ROOT
ATOM      1  C   UNL d   1      29.395 -16.255  -0.070  0.00  0.00     0.150 C 
ENDROOT
BRANCH   1   2
ATOM      2  N   UNL d   1      29.411 -15.127  -1.022  0.00  0.00    -0.370 N 
ATOM      3  C   UNL d   1      29.588 -13.748  -0.551  0.00  0.00     0.151 C 
BRANCH   2   4
ATOM      4  C   UNL d   1      29.537 -15.370  -2.377  0.00  0.00     0.102 A 
ATOM      5  C   UNL d   1      30.723 -15.147  -3.092  0.00  0.00     0.051 A 
ATOM      6  C   UNL d   1      30.779 -15.346  -4.471  0.00  0.00     0.042 A 
ATOM      7  C   UNL d   1      29.640 -15.738  -5.154  0.00  0.00     0.084 A 
ATOM      8  C   UNL d   1      28.476 -15.948  -4.419  0.00  0.00     0.126 A 
ATOM      9  N   UNL d   1      28.468 -15.777  -3.085  0.00  0.00    -0.350 N 
ATOM     10  H   UNL d   1      27.596 -15.899  -2.578  0.00  0.00     0.166 HD
BRANCH   7  11
ATOM     11  O   UNL d   1      29.559 -15.930  -6.503  0.00  0.00    -0.345 OA
BRANCH  11  12
ATOM     12  C   UNL d   1      30.766 -16.335  -7.178  0.00  0.00     0.214 C 
BRANCH  12  13
ATOM     13  C   UNL d   1      30.983 -17.811  -6.974  0.00  0.00    -0.034 A 
ATOM     14  C   UNL d   1      30.780 -18.721  -8.020  0.00  0.00     0.009 A 
ATOM     15  C   UNL d   1      30.847 -20.093  -7.779  0.00  0.00     0.001 A 
ATOM     16  C   UNL d   1      31.230 -20.565  -6.525  0.00  0.00     0.000 A 
ATOM     17  C   UNL d   1      31.506 -19.667  -5.497  0.00  0.00     0.001 A 
ATOM     18  C   UNL d   1      31.381 -18.294  -5.720  0.00  0.00     0.009 A 
ENDBRANCH  12  13
ENDBRANCH  11  12
ENDBRANCH   7  11
ENDBRANCH   2   4
ENDBRANCH   1   2
BRANCH   1  19
ATOM     19  C   UNL d   1      27.985 -16.755   0.270  0.00  0.00     0.195 C 
BRANCH  19  20
ATOM     20  O   UNL d   1      27.402 -17.360  -0.868  0.00  0.00    -0.350 OA
BRANCH  20  21
ATOM     21  C   UNL d   1      26.035 -17.397  -0.818  0.00  0.00     0.068 C 
ATOM     22  C   UNL d   1      25.523 -18.232   0.157  0.00  0.00     0.037 C 
ATOM     23  C   UNL d   1      24.168 -18.508   0.172  0.00  0.00     0.010 C 
ATOM     24  C   UNL d   1      23.276 -17.829  -0.661  0.00  0.00    -0.056 C 
ATOM     25  C   UNL d   1      23.794 -16.979  -1.642  0.00  0.00     0.010 C 
ATOM     26  C   UNL d   1      25.173 -16.776  -1.727  0.00  0.00     0.037 C 
BRANCH  24  27
ATOM     27  C   UNL d   1      21.785 -17.950  -0.490  0.00  0.00     0.063 C 
BRANCH  27  28
ATOM     28  C   UNL d   1      21.255 -19.315  -0.029  0.00  0.00     0.153 A 
ATOM     29  S   UNL d   1      20.445 -19.387   1.625  0.00  0.00    -0.054 SA
ATOM     30  C   UNL d   1      18.957 -20.012   0.998  0.00  0.00     0.287 A 
ATOM     31  O   UNL d   1      18.026 -20.364   1.688  0.00  0.00    -0.260 OA
ATOM     32  N   UNL d   1      19.005 -20.034  -0.355  0.00  0.00    -0.287 N 
ATOM     33  C   UNL d   1      20.161 -19.705  -0.989  0.00  0.00     0.239 A 
ATOM     34  H   UNL d   1      18.188 -20.295  -0.880  0.00  0.00     0.172 HD
ATOM     35  O   UNL d   1      20.280 -19.697  -2.208  0.00  0.00    -0.272 OA
ENDBRANCH  27  28
ENDBRANCH  24  27
ENDBRANCH  20  21
ENDBRANCH  19  20
ENDBRANCH   1  19
TORSDOF 10
ENDMDL
MODEL 7
REMARK VINA RESULT:    -9.016      3.705     10.185
REMARK INTER + INTRA:         -13.607
REMARK INTER:                 -11.999
REMARK INTRA:                  -1.608
REMARK CONF_INDEPENDENT:        2.983
REMARK UNBOUND:                -1.608
REMARK  10 active torsions:
REMARK  status: ('A' for Active; 'I' for Inactive)
REMARK    1  A    between atoms: N_2  and  C_3 
REMARK    2  A    between atoms: N_2  and  C_20 
REMARK    3  A    between atoms: C_3  and  C_4 
REMARK    4  A    between atoms: C_4  and  O_5 
REMARK    5  A    between atoms: O_5  and  C_6 
REMARK    6  A    between atoms: C_9  and  C_10 
REMARK    7  A    between atoms: C_11  and  C_10 
REMARK    8  A    between atoms: C_23  and  O_24 
REMARK    9  A    between atoms: O_24  and  C_25 
REMARK   10  A    between atoms: C_25  and  C_26 
ROOT
ATOM      1  C   UNL d   1      29.415 -16.578  -0.112  0.00  0.00     0.150 C 
ENDROOT
BRANCH   1   2
ATOM      2  N   UNL d   1      29.236 -15.188  -0.575  0.00  0.00    -0.370 N 
ATOM      3  C   UNL d   1      29.342 -14.850  -1.999  0.00  0.00     0.151 C 
BRANCH   2   4
ATOM      4  C   UNL d   1      28.699 -14.241   0.277  0.00  0.00     0.102 A 
ATOM      5  C   UNL d   1      27.337 -14.189   0.608  0.00  0.00     0.051 A 
ATOM      6  C   UNL d   1      26.834 -13.174   1.421  0.00  0.00     0.042 A 
ATOM      7  C   UNL d   1      27.681 -12.181   1.883  0.00  0.00     0.084 A 
ATOM      8  C   UNL d   1      29.028 -12.257   1.535  0.00  0.00     0.126 A 
ATOM      9  N   UNL d   1      29.483 -13.268   0.775  0.00  0.00    -0.350 N 
ATOM     10  H   UNL d   1      30.462 -13.279   0.504  0.00  0.00     0.166 HD
BRANCH   7  11
ATOM     11  O   UNL d   1      27.304 -11.120   2.653  0.00  0.00    -0.345 OA
BRANCH  11  12
ATOM     12  C   UNL d   1      27.496 -11.243   4.075  0.00  0.00     0.214 C 
BRANCH  12  13
ATOM     13  C   UNL d   1      28.105 -12.586   4.382  0.00  0.00    -0.034 A 
ATOM     14  C   UNL d   1      27.308 -13.734   4.478  0.00  0.00     0.009 A 
ATOM     15  C   UNL d   1      27.864 -14.942   4.901  0.00  0.00     0.001 A 
ATOM     16  C   UNL d   1      29.237 -15.040   5.120  0.00  0.00     0.000 A 
ATOM     17  C   UNL d   1      30.050 -13.922   4.957  0.00  0.00     0.001 A 
ATOM     18  C   UNL d   1      29.487 -12.698   4.591  0.00  0.00     0.009 A 
ENDBRANCH  12  13
ENDBRANCH  11  12
ENDBRANCH   7  11
ENDBRANCH   2   4
ENDBRANCH   1   2
BRANCH   1  19
ATOM     19  C   UNL d   1      28.097 -17.332   0.100  0.00  0.00     0.195 C 
BRANCH  19  20
ATOM     20  O   UNL d   1      27.404 -17.446  -1.128  0.00  0.00    -0.350 OA
BRANCH  20  21
ATOM     21  C   UNL d   1      26.043 -17.460  -0.980  0.00  0.00     0.068 C 
ATOM     22  C   UNL d   1      25.588 -18.285   0.031  0.00  0.00     0.037 C 
ATOM     23  C   UNL d   1      24.234 -18.538   0.143  0.00  0.00     0.010 C 
ATOM     24  C   UNL d   1      23.296 -17.846  -0.626  0.00  0.00    -0.056 C 
ATOM     25  C   UNL d   1      23.756 -17.007  -1.644  0.00  0.00     0.010 C 
ATOM     26  C   UNL d   1      25.129 -16.826  -1.828  0.00  0.00     0.037 C 
BRANCH  24  27
ATOM     27  C   UNL d   1      21.819 -17.942  -0.348  0.00  0.00     0.063 C 
BRANCH  27  28
ATOM     28  C   UNL d   1      21.286 -19.320   0.069  0.00  0.00     0.153 A 
ATOM     29  S   UNL d   1      20.379 -19.419   1.671  0.00  0.00    -0.054 SA
ATOM     30  C   UNL d   1      18.943 -20.065   0.950  0.00  0.00     0.287 A 
ATOM     31  O   UNL d   1      17.979 -20.438   1.580  0.00  0.00    -0.260 OA
ATOM     32  N   UNL d   1      19.073 -20.075  -0.398  0.00  0.00    -0.287 N 
ATOM     33  C   UNL d   1      20.260 -19.721  -0.958  0.00  0.00     0.239 A 
ATOM     34  H   UNL d   1      18.295 -20.346  -0.974  0.00  0.00     0.172 HD
ATOM     35  O   UNL d   1      20.452 -19.701  -2.167  0.00  0.00    -0.272 OA
ENDBRANCH  27  28
ENDBRANCH  24  27
ENDBRANCH  20  21
ENDBRANCH  19  20
ENDBRANCH   1  19
TORSDOF 10
ENDMDL
MODEL 8
REMARK VINA RESULT:    -8.772      5.120      7.425
REMARK INTER + INTRA:         -14.024
REMARK INTER:                 -11.755
REMARK INTRA:                  -2.269
REMARK CONF_INDEPENDENT:        2.983
REMARK UNBOUND:                -2.269
REMARK  10 active torsions:
REMARK  status: ('A' for Active; 'I' for Inactive)
REMARK    1  A    between atoms: N_2  and  C_3 
REMARK    2  A    between atoms: N_2  and  C_20 
REMARK    3  A    between atoms: C_3  and  C_4 
REMARK    4  A    between atoms: C_4  and  O_5 
REMARK    5  A    between atoms: O_5  and  C_6 
REMARK    6  A    between atoms: C_9  and  C_10 
REMARK    7  A    between atoms: C_11  and  C_10 
REMARK    8  A    between atoms: C_23  and  O_24 
REMARK    9  A    between atoms: O_24  and  C_25 
REMARK   10  A    between atoms: C_25  and  C_26 
ROOT
ATOM      1  C   UNL d   1      29.217 -16.615  -0.706  0.00  0.00     0.150 C 
ENDROOT
BRANCH   1   2
ATOM      2  N   UNL d   1      28.100 -16.453  -1.658  0.00  0.00    -0.370 N 
ATOM      3  C   UNL d   1      28.352 -16.072  -3.053  0.00  0.00     0.151 C 
BRANCH   2   4
ATOM      4  C   UNL d   1      26.841 -16.921  -1.332  0.00  0.00     0.102 A 
ATOM      5  C   UNL d   1      25.679 -16.546  -2.021  0.00  0.00     0.051 A 
ATOM      6  C   UNL d   1      24.424 -16.996  -1.612  0.00  0.00     0.042 A 
ATOM      7  C   UNL d   1      24.316 -17.797  -0.488  0.00  0.00     0.084 A 
ATOM      8  C   UNL d   1      25.486 -18.151   0.178  0.00  0.00     0.126 A 
ATOM      9  N   UNL d   1      26.682 -17.724  -0.264  0.00  0.00    -0.350 N 
ATOM     10  H   UNL d   1      27.517 -17.964   0.262  0.00  0.00     0.166 HD
BRANCH   7  11
ATOM     11  O   UNL d   1      23.146 -18.270   0.031  0.00  0.00    -0.345 OA
BRANCH  11  12
ATOM     12  C   UNL d   1      22.223 -18.882  -0.890  0.00  0.00     0.214 C 
BRANCH  12  13
ATOM     13  C   UNL d   1      20.974 -19.286  -0.153  0.00  0.00    -0.034 A 
ATOM     14  C   UNL d   1      20.935 -19.300   1.247  0.00  0.00     0.009 A 
ATOM     15  C   UNL d   1      19.821 -19.810   1.915  0.00  0.00     0.001 A 
ATOM     16  C   UNL d   1      18.694 -20.201   1.194  0.00  0.00     0.000 A 
ATOM     17  C   UNL d   1      18.694 -20.122  -0.196  0.00  0.00     0.001 A 
ATOM     18  C   UNL d   1      19.830 -19.668  -0.868  0.00  0.00     0.009 A 
ENDBRANCH  12  13
ENDBRANCH  11  12
ENDBRANCH   7  11
ENDBRANCH   2   4
ENDBRANCH   1   2
BRANCH   1  19
ATOM     19  C   UNL d   1      29.023 -15.845   0.607  0.00  0.00     0.195 C 
BRANCH  19  20
ATOM     20  O   UNL d   1      29.266 -14.468   0.398  0.00  0.00    -0.350 OA
BRANCH  20  21
ATOM     21  C   UNL d   1      28.396 -13.895  -0.489  0.00  0.00     0.068 C 
ATOM     22  C   UNL d   1      28.986 -13.444  -1.655  0.00  0.00     0.037 C 
ATOM     23  C   UNL d   1      28.251 -12.670  -2.533  0.00  0.00     0.010 C 
ATOM     24  C   UNL d   1      26.878 -12.477  -2.363  0.00  0.00    -0.056 C 
ATOM     25  C   UNL d   1      26.280 -12.940  -1.188  0.00  0.00     0.010 C 
ATOM     26  C   UNL d   1      27.043 -13.636  -0.247  0.00  0.00     0.037 C 
BRANCH  24  27
ATOM     27  C   UNL d   1      26.029 -11.840  -3.431  0.00  0.00     0.063 C 
BRANCH  27  28
ATOM     28  C   UNL d   1      25.974 -12.561  -4.785  0.00  0.00     0.153 A 
ATOM     29  S   UNL d   1      27.572 -12.810  -5.669  0.00  0.00    -0.054 SA
ATOM     30  C   UNL d   1      27.394 -14.531  -5.746  0.00  0.00     0.287 A 
ATOM     31  O   UNL d   1      28.152 -15.264  -6.340  0.00  0.00    -0.260 OA
ATOM     32  N   UNL d   1      26.299 -14.909  -5.043  0.00  0.00    -0.287 N 
ATOM     33  C   UNL d   1      25.482 -13.959  -4.516  0.00  0.00     0.239 A 
ATOM     34  H   UNL d   1      26.096 -15.886  -4.920  0.00  0.00     0.172 HD
ATOM     35  O   UNL d   1      24.479 -14.223  -3.866  0.00  0.00    -0.272 OA
ENDBRANCH  27  28
ENDBRANCH  24  27
ENDBRANCH  20  21
ENDBRANCH  19  20
ENDBRANCH   1  19
TORSDOF 10
ENDMDL
MODEL 9
REMARK VINA RESULT:    -8.758      5.863      8.751
REMARK INTER + INTRA:         -13.660
REMARK INTER:                 -11.741
REMARK INTRA:                  -1.919
REMARK CONF_INDEPENDENT:        2.983
REMARK UNBOUND:                -1.919
REMARK  10 active torsions:
REMARK  status: ('A' for Active; 'I' for Inactive)
REMARK    1  A    between atoms: N_2  and  C_3 
REMARK    2  A    between atoms: N_2  and  C_20 
REMARK    3  A    between atoms: C_3  and  C_4 
REMARK    4  A    between atoms: C_4  and  O_5 
REMARK    5  A    between atoms: O_5  and  C_6 
REMARK    6  A    between atoms: C_9  and  C_10 
REMARK    7  A    between atoms: C_11  and  C_10 
REMARK    8  A    between atoms: C_23  and  O_24 
REMARK    9  A    between atoms: O_24  and  C_25 
REMARK   10  A    between atoms: C_25  and  C_26 
ROOT
ATOM      1  C   UNL d   1      26.740 -15.671   0.275  0.00  0.00     0.150 C 
ENDROOT
BRANCH   1   2
ATOM      2  N   UNL d   1      26.300 -17.022  -0.128  0.00  0.00    -0.370 N 
ATOM      3  C   UNL d   1      27.228 -18.158  -0.085  0.00  0.00     0.151 C 
BRANCH   2   4
ATOM      4  C   UNL d   1      24.953 -17.292  -0.284  0.00  0.00     0.102 A 
ATOM      5  C   UNL d   1      24.420 -18.588  -0.252  0.00  0.00     0.051 A 
ATOM      6  C   UNL d   1      23.063 -18.812  -0.479  0.00  0.00     0.042 A 
ATOM      7  C   UNL d   1      22.231 -17.745  -0.774  0.00  0.00     0.084 A 
ATOM      8  C   UNL d   1      22.789 -16.469  -0.801  0.00  0.00     0.126 A 
ATOM      9  N   UNL d   1      24.097 -16.288  -0.546  0.00  0.00    -0.350 N 
ATOM     10  H   UNL d   1      24.486 -15.352  -0.610  0.00  0.00     0.166 HD
BRANCH   7  11
ATOM     11  O   UNL d   1      20.898 -17.839  -1.049  0.00  0.00    -0.345 OA
BRANCH  11  12
ATOM     12  C   UNL d   1      20.369 -19.161  -1.271  0.00  0.00     0.214 C 
BRANCH  12  13
ATOM     13  C   UNL d   1      19.784 -19.688   0.012  0.00  0.00    -0.034 A 
ATOM     14  C   UNL d   1      20.404 -19.438   1.244  0.00  0.00     0.009 A 
ATOM     15  C   UNL d   1      19.931 -20.050   2.405  0.00  0.00     0.001 A 
ATOM     16  C   UNL d   1      18.770 -20.820   2.365  0.00  0.00     0.000 A 
ATOM     17  C   UNL d   1      18.103 -21.015   1.159  0.00  0.00     0.001 A 
ATOM     18  C   UNL d   1      18.609 -20.453  -0.015  0.00  0.00     0.009 A 
ENDBRANCH  12  13
ENDBRANCH  11  12
ENDBRANCH   7  11
ENDBRANCH   2   4
ENDBRANCH   1   2
BRANCH   1  19
ATOM     19  C   UNL d   1      26.904 -14.701  -0.902  0.00  0.00     0.195 C 
BRANCH  19  20
ATOM     20  O   UNL d   1      25.690 -14.605  -1.620  0.00  0.00    -0.350 OA
BRANCH  20  21
ATOM     21  C   UNL d   1      25.727 -13.672  -2.621  0.00  0.00     0.068 C 
ATOM     22  C   UNL d   1      25.283 -14.133  -3.846  0.00  0.00     0.037 C 
ATOM     23  C   UNL d   1      25.463 -13.351  -4.972  0.00  0.00     0.010 C 
ATOM     24  C   UNL d   1      25.922 -12.034  -4.880  0.00  0.00    -0.056 C 
ATOM     25  C   UNL d   1      26.363 -11.566  -3.640  0.00  0.00     0.010 C 
ATOM     26  C   UNL d   1      26.278 -12.391  -2.515  0.00  0.00     0.037 C 
BRANCH  24  27
ATOM     27  C   UNL d   1      25.897 -11.103  -6.063  0.00  0.00     0.063 C 
BRANCH  27  28
ATOM     28  C   UNL d   1      27.249 -10.790  -6.720  0.00  0.00     0.153 A 
ATOM     29  S   UNL d   1      27.269 -10.603  -8.553  0.00  0.00    -0.054 SA
ATOM     30  C   UNL d   1      27.926  -9.002  -8.499  0.00  0.00     0.287 A 
ATOM     31  O   UNL d   1      28.260  -8.374  -9.478  0.00  0.00    -0.260 OA
ATOM     32  N   UNL d   1      27.994  -8.580  -7.214  0.00  0.00    -0.287 N 
ATOM     33  C   UNL d   1      27.680  -9.440  -6.210  0.00  0.00     0.239 A 
ATOM     34  H   UNL d   1      28.279  -7.637  -7.011  0.00  0.00     0.172 HD
ATOM     35  O   UNL d   1      27.713  -9.130  -5.025  0.00  0.00    -0.272 OA
ENDBRANCH  27  28
ENDBRANCH  24  27
ENDBRANCH  20  21
ENDBRANCH  19  20
ENDBRANCH   1  19
TORSDOF 10
ENDMDL
