MODEL 1
REMARK VINA RESULT:    -9.627      0.000      0.000
REMARK INTER + INTRA:         -15.943
REMARK INTER:                 -12.908
REMARK INTRA:                  -3.035
REMARK CONF_INDEPENDENT:        3.281
REMARK UNBOUND:                -3.035
REMARK  11 active torsions:
REMARK  status: ('A' for Active; 'I' for Inactive)
REMARK    1  A    between atoms: C_2  and  C_3 
REMARK    2  A    between atoms: C_3  and  N_4 
REMARK    3  A    between atoms: C_5  and  C_6 
REMARK    4  A    between atoms: C_6  and  N_7 
REMARK    5  A    between atoms: N_7  and  C_8 
REMARK    6  A    between atoms: C_20  and  S_21 
REMARK    7  A    between atoms: S_21  and  C_22 
REMARK    8  A    between atoms: C_22  and  C_23 
REMARK       I    between atoms: C_23  and  N_25 
REMARK    9  A    between atoms: N_25  and  N_26 
REMARK   10  A    between atoms: C_27  and  C_28 
REMARK   11  A    between atoms: C_29  and  O_30 
ROOT
ATOM      1  N   UNL d   1      26.958 -13.361  -5.218  0.00  0.00    -0.306 N 
ATOM      2  C   UNL d   1      26.403 -14.531  -4.689  0.00  0.00     0.148 A 
ATOM      3  N   UNL d   1      26.913 -15.549  -5.362  0.00  0.00    -0.132 NA
ATOM      4  N   UNL d   1      27.759 -15.074  -6.328  0.00  0.00    -0.122 NA
ATOM      5  C   UNL d   1      27.779 -13.760  -6.267  0.00  0.00     0.192 A 
ENDROOT
BRANCH   5   6
ATOM      6  S   UNL d   1      28.743 -12.814  -7.390  0.00  0.00    -0.081 SA
BRANCH   6   7
ATOM      7  C   UNL d   1      30.539 -12.892  -7.063  0.00  0.00     0.187 C 
BRANCH   7   8
ATOM      8  C   UNL d   1      31.051 -14.318  -6.783  0.00  0.00     0.247 C 
ATOM      9  O   UNL d   1      32.101 -14.547  -6.205  0.00  0.00    -0.271 OA
ATOM     10  N   UNL d   1      30.208 -15.347  -7.270  0.00  0.00    -0.247 N 
ATOM     11  H   UNL d   1      29.372 -15.164  -7.815  0.00  0.00     0.192 HD
BRANCH  10  12
ATOM     12  N   UNL d   1      30.602 -16.651  -7.050  0.00  0.00    -0.184 NA
ATOM     13  C   UNL d   1      30.351 -17.215  -5.907  0.00  0.00     0.153 C 
BRANCH  13  14
ATOM     14  C   UNL d   1      30.735 -18.643  -5.676  0.00  0.00     0.027 A 
ATOM     15  C   UNL d   1      30.858 -19.505  -6.777  0.00  0.00     0.078 A 
ATOM     16  C   UNL d   1      31.157 -20.852  -6.600  0.00  0.00     0.038 A 
ATOM     17  C   UNL d   1      31.350 -21.362  -5.317  0.00  0.00     0.015 A 
ATOM     18  C   UNL d   1      31.284 -20.522  -4.196  0.00  0.00    -0.025 A 
ATOM     19  C   UNL d   1      31.527 -21.050  -2.915  0.00  0.00     0.012 A 
ATOM     20  C   UNL d   1      30.973 -19.140  -4.361  0.00  0.00    -0.011 A 
ATOM     21  C   UNL d   1      31.470 -20.239  -1.784  0.00  0.00     0.001 A 
ATOM     22  C   UNL d   1      31.162 -18.893  -1.922  0.00  0.00     0.001 A 
ATOM     23  C   UNL d   1      30.909 -18.354  -3.188  0.00  0.00     0.013 A 
BRANCH  15  24
ATOM     24  O   UNL d   1      30.743 -19.082  -8.074  0.00  0.00    -0.360 OA
ATOM     25  H   UNL d   1      30.639 -18.107  -8.075  0.00  0.00     0.217 HD
ENDBRANCH  15  24
ENDBRANCH  13  14
ENDBRANCH  10  12
ENDBRANCH   7   8
ENDBRANCH   6   7
ENDBRANCH   5   6
BRANCH   1  26
ATOM     26  C   UNL d   1      26.782 -11.960  -4.876  0.00  0.00     0.159 C 
BRANCH  26  27
ATOM     27  C   UNL d   1      25.941 -11.088  -5.722  0.00  0.00    -0.017 C 
ATOM     28  C   UNL d   1      26.225 -10.741  -6.982  0.00  0.00     0.008 C 
ENDBRANCH  26  27
ENDBRANCH   1  26
BRANCH   2  29
ATOM     29  C   UNL d   1      25.395 -14.752  -3.551  0.00  0.00     0.200 C 
BRANCH  29  30
ATOM     30  N   UNL d   1      25.951 -14.827  -2.217  0.00  0.00    -0.382 N 
ATOM     31  H   UNL d   1      25.672 -14.018  -1.690  0.00  0.00     0.160 HD
BRANCH  30  32
ATOM     32  C   UNL d   1      26.145 -15.938  -1.407  0.00  0.00     0.039 A 
ATOM     33  C   UNL d   1      27.414 -16.314  -0.947  0.00  0.00     0.030 A 
ATOM     34  C   UNL d   1      27.577 -17.450  -0.149  0.00  0.00     0.003 A 
ATOM     35  C   UNL d   1      26.472 -18.216   0.219  0.00  0.00     0.012 A 
ATOM     36  C   UNL d   1      25.177 -17.826  -0.149  0.00  0.00    -0.024 A 
ATOM     37  C   UNL d   1      24.060 -18.575   0.269  0.00  0.00     0.012 A 
ATOM     38  C   UNL d   1      24.997 -16.674  -0.949  0.00  0.00     0.001 A 
ATOM     39  C   UNL d   1      22.762 -18.196  -0.074  0.00  0.00     0.001 A 
ATOM     40  C   UNL d   1      22.559 -17.061  -0.837  0.00  0.00     0.001 A 
ATOM     41  C   UNL d   1      23.657 -16.324  -1.270  0.00  0.00     0.014 A 
ENDBRANCH  30  32
ENDBRANCH  29  30
ENDBRANCH   2  29
TORSDOF 11
ENDMDL
MODEL 2
REMARK VINA RESULT:    -9.468      1.255      2.555
REMARK INTER + INTRA:         -15.618
REMARK INTER:                 -12.750
REMARK INTRA:                  -2.868
REMARK CONF_INDEPENDENT:        3.281
REMARK UNBOUND:                -2.868
REMARK  11 active torsions:
REMARK  status: ('A' for Active; 'I' for Inactive)
REMARK    1  A    between atoms: C_2  and  C_3 
REMARK    2  A    between atoms: C_3  and  N_4 
REMARK    3  A    between atoms: C_5  and  C_6 
REMARK    4  A    between atoms: C_6  and  N_7 
REMARK    5  A    between atoms: N_7  and  C_8 
REMARK    6  A    between atoms: C_20  and  S_21 
REMARK    7  A    between atoms: S_21  and  C_22 
REMARK    8  A    between atoms: C_22  and  C_23 
REMARK       I    between atoms: C_23  and  N_25 
REMARK    9  A    between atoms: N_25  and  N_26 
REMARK   10  A    between atoms: C_27  and  C_28 
REMARK   11  A    between atoms: C_29  and  O_30 
ROOT
ATOM      1  N   UNL d   1      26.896 -13.373  -5.150  0.00  0.00    -0.306 N 
ATOM      2  C   UNL d   1      26.221 -14.465  -4.593  0.00  0.00     0.148 A 
ATOM      3  N   UNL d   1      26.666 -15.554  -5.198  0.00  0.00    -0.132 NA
ATOM      4  N   UNL d   1      27.588 -15.200  -6.147  0.00  0.00    -0.122 NA
ATOM      5  C   UNL d   1      27.720 -13.891  -6.144  0.00  0.00     0.192 A 
ENDROOT
BRANCH   5   6
ATOM      6  S   UNL d   1      28.805 -13.086  -7.266  0.00  0.00    -0.081 SA
BRANCH   6   7
ATOM      7  C   UNL d   1      30.570 -13.245  -6.821  0.00  0.00     0.187 C 
BRANCH   7   8
ATOM      8  C   UNL d   1      31.039 -14.705  -6.676  0.00  0.00     0.247 C 
ATOM      9  O   UNL d   1      32.006 -15.156  -7.266  0.00  0.00    -0.271 OA
ATOM     10  N   UNL d   1      30.240 -15.490  -5.808  0.00  0.00    -0.247 N 
ATOM     11  H   UNL d   1      29.392 -15.142  -5.373  0.00  0.00     0.192 HD
BRANCH  10  12
ATOM     12  N   UNL d   1      30.604 -16.808  -5.626  0.00  0.00    -0.184 NA
ATOM     13  C   UNL d   1      30.404 -17.668  -6.579  0.00  0.00     0.153 C 
BRANCH  13  14
ATOM     14  C   UNL d   1      30.837 -19.091  -6.407  0.00  0.00     0.027 A 
ATOM     15  C   UNL d   1      30.891 -19.638  -5.115  0.00  0.00     0.078 A 
ATOM     16  C   UNL d   1      31.341 -20.938  -4.908  0.00  0.00     0.038 A 
ATOM     17  C   UNL d   1      31.738 -21.720  -5.992  0.00  0.00     0.015 A 
ATOM     18  C   UNL d   1      31.652 -21.226  -7.301  0.00  0.00    -0.025 A 
ATOM     19  C   UNL d   1      32.015 -22.050  -8.382  0.00  0.00     0.012 A 
ATOM     20  C   UNL d   1      31.197 -19.894  -7.529  0.00  0.00    -0.011 A 
ATOM     21  C   UNL d   1      31.938 -21.586  -9.693  0.00  0.00     0.001 A 
ATOM     22  C   UNL d   1      31.504 -20.290  -9.936  0.00  0.00     0.001 A 
ATOM     23  C   UNL d   1      31.148 -19.455  -8.872  0.00  0.00     0.013 A 
BRANCH  15  24
ATOM     24  O   UNL d   1      30.467 -18.966  -4.000  0.00  0.00    -0.360 OA
ATOM     25  H   UNL d   1      29.821 -18.283  -4.276  0.00  0.00     0.217 HD
ENDBRANCH  15  24
ENDBRANCH  13  14
ENDBRANCH  10  12
ENDBRANCH   7   8
ENDBRANCH   6   7
ENDBRANCH   5   6
BRANCH   1  26
ATOM     26  C   UNL d   1      26.830 -11.948  -4.879  0.00  0.00     0.159 C 
BRANCH  26  27
ATOM     27  C   UNL d   1      25.905 -11.087  -5.646  0.00  0.00    -0.017 C 
ATOM     28  C   UNL d   1      26.094 -10.699  -6.913  0.00  0.00     0.008 C 
ENDBRANCH  26  27
ENDBRANCH   1  26
BRANCH   2  29
ATOM     29  C   UNL d   1      25.155 -14.544  -3.491  0.00  0.00     0.200 C 
BRANCH  29  30
ATOM     30  N   UNL d   1      25.649 -14.681  -2.139  0.00  0.00    -0.382 N 
ATOM     31  H   UNL d   1      25.257 -13.959  -1.561  0.00  0.00     0.160 HD
BRANCH  30  32
ATOM     32  C   UNL d   1      25.927 -15.835  -1.417  0.00  0.00     0.039 A 
ATOM     33  C   UNL d   1      27.233 -16.205  -1.073  0.00  0.00     0.030 A 
ATOM     34  C   UNL d   1      27.479 -17.383  -0.363  0.00  0.00     0.003 A 
ATOM     35  C   UNL d   1      26.421 -18.200   0.032  0.00  0.00     0.012 A 
ATOM     36  C   UNL d   1      25.095 -17.824  -0.217  0.00  0.00    -0.024 A 
ATOM     37  C   UNL d   1      24.028 -18.627   0.230  0.00  0.00     0.012 A 
ATOM     38  C   UNL d   1      24.832 -16.629  -0.927  0.00  0.00     0.001 A 
ATOM     39  C   UNL d   1      22.700 -18.262   0.004  0.00  0.00     0.001 A 
ATOM     40  C   UNL d   1      22.417 -17.088  -0.668  0.00  0.00     0.001 A 
ATOM     41  C   UNL d   1      23.465 -16.296  -1.129  0.00  0.00     0.014 A 
ENDBRANCH  30  32
ENDBRANCH  29  30
ENDBRANCH   2  29
TORSDOF 11
ENDMDL
MODEL 3
REMARK VINA RESULT:    -8.428      2.156      6.774
REMARK INTER + INTRA:         -15.068
REMARK INTER:                 -11.709
REMARK INTRA:                  -3.359
REMARK CONF_INDEPENDENT:        3.281
REMARK UNBOUND:                -3.359
REMARK  11 active torsions:
REMARK  status: ('A' for Active; 'I' for Inactive)
REMARK    1  A    between atoms: C_2  and  C_3 
REMARK    2  A    between atoms: C_3  and  N_4 
REMARK    3  A    between atoms: C_5  and  C_6 
REMARK    4  A    between atoms: C_6  and  N_7 
REMARK    5  A    between atoms: N_7  and  C_8 
REMARK    6  A    between atoms: C_20  and  S_21 
REMARK    7  A    between atoms: S_21  and  C_22 
REMARK    8  A    between atoms: C_22  and  C_23 
REMARK       I    between atoms: C_23  and  N_25 
REMARK    9  A    between atoms: N_25  and  N_26 
REMARK   10  A    between atoms: C_27  and  C_28 
REMARK   11  A    between atoms: C_29  and  O_30 
ROOT
ATOM      1  N   UNL d   1      29.303 -13.817  -5.252  0.00  0.00    -0.306 N 
ATOM      2  C   UNL d   1      29.511 -15.190  -5.075  0.00  0.00     0.148 A 
ATOM      3  N   UNL d   1      28.420 -15.811  -5.495  0.00  0.00    -0.132 NA
ATOM      4  N   UNL d   1      27.504 -14.882  -5.912  0.00  0.00    -0.122 NA
ATOM      5  C   UNL d   1      28.013 -13.680  -5.752  0.00  0.00     0.192 A 
ENDROOT
BRANCH   5   6
ATOM      6  S   UNL d   1      27.090 -12.242  -6.159  0.00  0.00    -0.081 SA
BRANCH   6   7
ATOM      7  C   UNL d   1      25.531 -12.081  -5.220  0.00  0.00     0.187 C 
BRANCH   7   8
ATOM      8  C   UNL d   1      25.309 -13.213  -4.198  0.00  0.00     0.247 C 
ATOM      9  O   UNL d   1      24.405 -14.026  -4.292  0.00  0.00    -0.271 OA
ATOM     10  N   UNL d   1      26.234 -13.219  -3.125  0.00  0.00    -0.247 N 
ATOM     11  H   UNL d   1      26.940 -12.502  -3.001  0.00  0.00     0.192 HD
BRANCH  10  12
ATOM     12  N   UNL d   1      26.098 -14.209  -2.173  0.00  0.00    -0.184 NA
ATOM     13  C   UNL d   1      26.479 -15.421  -2.447  0.00  0.00     0.153 C 
BRANCH  13  14
ATOM     14  C   UNL d   1      26.377 -16.491  -1.405  0.00  0.00     0.027 A 
ATOM     15  C   UNL d   1      27.553 -17.046  -0.877  0.00  0.00     0.078 A 
ATOM     16  C   UNL d   1      27.500 -18.081   0.052  0.00  0.00     0.038 A 
ATOM     17  C   UNL d   1      26.268 -18.575   0.477  0.00  0.00     0.015 A 
ATOM     18  C   UNL d   1      25.072 -18.013   0.009  0.00  0.00    -0.025 A 
ATOM     19  C   UNL d   1      23.841 -18.498   0.488  0.00  0.00     0.012 A 
ATOM     20  C   UNL d   1      25.109 -16.955  -0.946  0.00  0.00    -0.011 A 
ATOM     21  C   UNL d   1      22.637 -17.958   0.042  0.00  0.00     0.001 A 
ATOM     22  C   UNL d   1      22.651 -16.932  -0.893  0.00  0.00     0.001 A 
ATOM     23  C   UNL d   1      23.867 -16.445  -1.385  0.00  0.00     0.013 A 
BRANCH  15  24
ATOM     24  O   UNL d   1      28.804 -16.586  -1.192  0.00  0.00    -0.360 OA
ATOM     25  H   UNL d   1      29.316 -16.485  -0.362  0.00  0.00     0.217 HD
ENDBRANCH  15  24
ENDBRANCH  13  14
ENDBRANCH  10  12
ENDBRANCH   7   8
ENDBRANCH   6   7
ENDBRANCH   5   6
BRANCH   1  26
ATOM     26  C   UNL d   1      30.145 -12.664  -4.984  0.00  0.00     0.159 C 
BRANCH  26  27
ATOM     27  C   UNL d   1      29.706 -11.631  -4.023  0.00  0.00    -0.017 C 
ATOM     28  C   UNL d   1      29.601 -11.810  -2.702  0.00  0.00     0.008 C 
ENDBRANCH  26  27
ENDBRANCH   1  26
BRANCH   2  29
ATOM     29  C   UNL d   1      30.711 -15.972  -4.523  0.00  0.00     0.200 C 
BRANCH  29  30
ATOM     30  N   UNL d   1      30.409 -16.981  -3.532  0.00  0.00    -0.382 N 
ATOM     31  H   UNL d   1      29.452 -16.890  -3.239  0.00  0.00     0.160 HD
BRANCH  30  32
ATOM     32  C   UNL d   1      30.860 -18.293  -3.446  0.00  0.00     0.039 A 
ATOM     33  C   UNL d   1      31.165 -18.898  -2.220  0.00  0.00     0.030 A 
ATOM     34  C   UNL d   1      31.636 -20.214  -2.171  0.00  0.00     0.003 A 
ATOM     35  C   UNL d   1      31.790 -20.950  -3.344  0.00  0.00     0.012 A 
ATOM     36  C   UNL d   1      31.416 -20.410  -4.582  0.00  0.00    -0.024 A 
ATOM     37  C   UNL d   1      31.526 -21.177  -5.758  0.00  0.00     0.012 A 
ATOM     38  C   UNL d   1      30.930 -19.083  -4.645  0.00  0.00     0.001 A 
ATOM     39  C   UNL d   1      31.145 -20.663  -6.998  0.00  0.00     0.001 A 
ATOM     40  C   UNL d   1      30.646 -19.376  -7.082  0.00  0.00     0.001 A 
ATOM     41  C   UNL d   1      30.551 -18.604  -5.929  0.00  0.00     0.014 A 
ENDBRANCH  30  32
ENDBRANCH  29  30
ENDBRANCH   2  29
TORSDOF 11
ENDMDL
MODEL 4
REMARK VINA RESULT:    -8.279      0.709      2.000
REMARK INTER + INTRA:         -15.497
REMARK INTER:                 -11.560
REMARK INTRA:                  -3.937
REMARK CONF_INDEPENDENT:        3.281
REMARK UNBOUND:                -3.937
REMARK  11 active torsions:
REMARK  status: ('A' for Active; 'I' for Inactive)
REMARK    1  A    between atoms: C_2  and  C_3 
REMARK    2  A    between atoms: C_3  and  N_4 
REMARK    3  A    between atoms: C_5  and  C_6 
REMARK    4  A    between atoms: C_6  and  N_7 
REMARK    5  A    between atoms: N_7  and  C_8 
REMARK    6  A    between atoms: C_20  and  S_21 
REMARK    7  A    between atoms: S_21  and  C_22 
REMARK    8  A    between atoms: C_22  and  C_23 
REMARK       I    between atoms: C_23  and  N_25 
REMARK    9  A    between atoms: N_25  and  N_26 
REMARK   10  A    between atoms: C_27  and  C_28 
REMARK   11  A    between atoms: C_29  and  O_30 
ROOT
ATOM      1  N   UNL d   1      27.293 -13.132  -5.339  0.00  0.00    -0.306 N 
ATOM      2  C   UNL d   1      26.624 -14.240  -4.807  0.00  0.00     0.148 A 
ATOM      3  N   UNL d   1      26.978 -15.295  -5.522  0.00  0.00    -0.132 NA
ATOM      4  N   UNL d   1      27.833 -14.901  -6.517  0.00  0.00    -0.122 NA
ATOM      5  C   UNL d   1      28.015 -13.600  -6.431  0.00  0.00     0.192 A 
ENDROOT
BRANCH   5   6
ATOM      6  S   UNL d   1      29.037 -12.749  -7.579  0.00  0.00    -0.081 SA
BRANCH   6   7
ATOM      7  C   UNL d   1      30.821 -12.890  -7.217  0.00  0.00     0.187 C 
BRANCH   7   8
ATOM      8  C   UNL d   1      31.267 -14.323  -6.865  0.00  0.00     0.247 C 
ATOM      9  O   UNL d   1      32.310 -14.571  -6.285  0.00  0.00    -0.271 OA
ATOM     10  N   UNL d   1      30.370 -15.333  -7.290  0.00  0.00    -0.247 N 
ATOM     11  H   UNL d   1      29.539 -15.138  -7.838  0.00  0.00     0.192 HD
BRANCH  10  12
ATOM     12  N   UNL d   1      30.702 -16.641  -7.005  0.00  0.00    -0.184 NA
ATOM     13  C   UNL d   1      30.434 -17.132  -5.832  0.00  0.00     0.153 C 
BRANCH  13  14
ATOM     14  C   UNL d   1      30.750 -18.563  -5.528  0.00  0.00     0.027 A 
ATOM     15  C   UNL d   1      30.791 -19.492  -6.580  0.00  0.00     0.078 A 
ATOM     16  C   UNL d   1      31.026 -20.841  -6.332  0.00  0.00     0.038 A 
ATOM     17  C   UNL d   1      31.234 -21.286  -5.027  0.00  0.00     0.015 A 
ATOM     18  C   UNL d   1      31.249 -20.380  -3.957  0.00  0.00    -0.025 A 
ATOM     19  C   UNL d   1      31.506 -20.846  -2.654  0.00  0.00     0.012 A 
ATOM     20  C   UNL d   1      31.005 -18.995  -4.193  0.00  0.00    -0.011 A 
ATOM     21  C   UNL d   1      31.528 -19.969  -1.572  0.00  0.00     0.001 A 
ATOM     22  C   UNL d   1      31.286 -18.618  -1.780  0.00  0.00     0.001 A 
ATOM     23  C   UNL d   1      31.020 -18.141  -3.068  0.00  0.00     0.013 A 
BRANCH  15  24
ATOM     24  O   UNL d   1      30.657 -19.139  -7.895  0.00  0.00    -0.360 OA
ATOM     25  H   UNL d   1      30.969 -18.216  -8.003  0.00  0.00     0.217 HD
ENDBRANCH  15  24
ENDBRANCH  13  14
ENDBRANCH  10  12
ENDBRANCH   7   8
ENDBRANCH   6   7
ENDBRANCH   5   6
BRANCH   1  26
ATOM     26  C   UNL d   1      27.303 -11.729  -4.963  0.00  0.00     0.159 C 
BRANCH  26  27
ATOM     27  C   UNL d   1      26.060 -10.932  -5.033  0.00  0.00    -0.017 C 
ATOM     28  C   UNL d   1      25.529 -10.441  -6.159  0.00  0.00     0.008 C 
ENDBRANCH  26  27
ENDBRANCH   1  26
BRANCH   2  29
ATOM     29  C   UNL d   1      25.647 -14.366  -3.629  0.00  0.00     0.200 C 
BRANCH  29  30
ATOM     30  N   UNL d   1      25.155 -15.698  -3.353  0.00  0.00    -0.382 N 
ATOM     31  H   UNL d   1      25.281 -16.279  -4.163  0.00  0.00     0.160 HD
BRANCH  30  32
ATOM     32  C   UNL d   1      25.210 -16.429  -2.173  0.00  0.00     0.039 A 
ATOM     33  C   UNL d   1      24.089 -17.084  -1.648  0.00  0.00     0.030 A 
ATOM     34  C   UNL d   1      24.174 -17.795  -0.447  0.00  0.00     0.003 A 
ATOM     35  C   UNL d   1      25.386 -17.877   0.237  0.00  0.00     0.012 A 
ATOM     36  C   UNL d   1      26.549 -17.308  -0.297  0.00  0.00    -0.024 A 
ATOM     37  C   UNL d   1      27.781 -17.438   0.373  0.00  0.00     0.012 A 
ATOM     38  C   UNL d   1      26.479 -16.593  -1.516  0.00  0.00     0.001 A 
ATOM     39  C   UNL d   1      28.954 -16.891  -0.150  0.00  0.00     0.001 A 
ATOM     40  C   UNL d   1      28.914 -16.208  -1.351  0.00  0.00     0.001 A 
ATOM     41  C   UNL d   1      27.699 -16.058  -2.012  0.00  0.00     0.014 A 
ENDBRANCH  30  32
ENDBRANCH  29  30
ENDBRANCH   2  29
TORSDOF 11
ENDMDL
MODEL 5
REMARK VINA RESULT:    -8.045      1.429      2.315
REMARK INTER + INTRA:         -15.012
REMARK INTER:                 -11.326
REMARK INTRA:                  -3.686
REMARK CONF_INDEPENDENT:        3.281
REMARK UNBOUND:                -3.686
REMARK  11 active torsions:
REMARK  status: ('A' for Active; 'I' for Inactive)
REMARK    1  A    between atoms: C_2  and  C_3 
REMARK    2  A    between atoms: C_3  and  N_4 
REMARK    3  A    between atoms: C_5  and  C_6 
REMARK    4  A    between atoms: C_6  and  N_7 
REMARK    5  A    between atoms: N_7  and  C_8 
REMARK    6  A    between atoms: C_20  and  S_21 
REMARK    7  A    between atoms: S_21  and  C_22 
REMARK    8  A    between atoms: C_22  and  C_23 
REMARK       I    between atoms: C_23  and  N_25 
REMARK    9  A    between atoms: N_25  and  N_26 
REMARK   10  A    between atoms: C_27  and  C_28 
REMARK   11  A    between atoms: C_29  and  O_30 
ROOT
ATOM      1  N   UNL d   1      26.903 -13.385  -5.390  0.00  0.00    -0.306 N 
ATOM      2  C   UNL d   1      26.408 -14.539  -4.773  0.00  0.00     0.148 A 
ATOM      3  N   UNL d   1      27.003 -15.575  -5.342  0.00  0.00    -0.132 NA
ATOM      4  N   UNL d   1      27.846 -15.130  -6.325  0.00  0.00    -0.122 NA
ATOM      5  C   UNL d   1      27.780 -13.817  -6.379  0.00  0.00     0.192 A 
ENDROOT
BRANCH   5   6
ATOM      6  S   UNL d   1      28.714 -12.909  -7.557  0.00  0.00    -0.081 SA
BRANCH   6   7
ATOM      7  C   UNL d   1      30.481 -12.746  -7.124  0.00  0.00     0.187 C 
BRANCH   7   8
ATOM      8  C   UNL d   1      30.892 -13.576  -5.892  0.00  0.00     0.247 C 
ATOM      9  O   UNL d   1      31.551 -13.120  -4.973  0.00  0.00    -0.271 OA
ATOM     10  N   UNL d   1      30.454 -14.922  -5.925  0.00  0.00    -0.247 N 
ATOM     11  H   UNL d   1      29.970 -15.327  -6.719  0.00  0.00     0.192 HD
BRANCH  10  12
ATOM     12  N   UNL d   1      30.781 -15.724  -4.851  0.00  0.00    -0.184 NA
ATOM     13  C   UNL d   1      30.190 -16.872  -4.701  0.00  0.00     0.153 C 
BRANCH  13  14
ATOM     14  C   UNL d   1      30.571 -17.768  -3.565  0.00  0.00     0.027 A 
ATOM     15  C   UNL d   1      30.707 -17.222  -2.279  0.00  0.00     0.078 A 
ATOM     16  C   UNL d   1      31.115 -18.011  -1.207  0.00  0.00     0.038 A 
ATOM     17  C   UNL d   1      31.385 -19.365  -1.400  0.00  0.00     0.015 A 
ATOM     18  C   UNL d   1      31.213 -19.956  -2.660  0.00  0.00    -0.025 A 
ATOM     19  C   UNL d   1      31.449 -21.335  -2.819  0.00  0.00     0.012 A 
ATOM     20  C   UNL d   1      30.801 -19.161  -3.769  0.00  0.00    -0.011 A 
ATOM     21  C   UNL d   1      31.285 -21.949  -4.058  0.00  0.00     0.001 A 
ATOM     22  C   UNL d   1      30.891 -21.191  -5.152  0.00  0.00     0.001 A 
ATOM     23  C   UNL d   1      30.661 -19.818  -5.012  0.00  0.00     0.013 A 
BRANCH  15  24
ATOM     24  O   UNL d   1      30.408 -15.919  -1.984  0.00  0.00    -0.360 OA
ATOM     25  H   UNL d   1      30.746 -15.351  -2.708  0.00  0.00     0.217 HD
ENDBRANCH  15  24
ENDBRANCH  13  14
ENDBRANCH  10  12
ENDBRANCH   7   8
ENDBRANCH   6   7
ENDBRANCH   5   6
BRANCH   1  26
ATOM     26  C   UNL d   1      26.628 -11.975  -5.177  0.00  0.00     0.159 C 
BRANCH  26  27
ATOM     27  C   UNL d   1      25.990 -11.524  -3.922  0.00  0.00    -0.017 C 
ATOM     28  C   UNL d   1      26.635 -11.310  -2.770  0.00  0.00     0.008 C 
ENDBRANCH  26  27
ENDBRANCH   1  26
BRANCH   2  29
ATOM     29  C   UNL d   1      25.384 -14.728  -3.645  0.00  0.00     0.200 C 
BRANCH  29  30
ATOM     30  N   UNL d   1      25.922 -14.806  -2.305  0.00  0.00    -0.382 N 
ATOM     31  H   UNL d   1      25.602 -14.020  -1.767  0.00  0.00     0.160 HD
BRANCH  30  32
ATOM     32  C   UNL d   1      26.152 -15.924  -1.513  0.00  0.00     0.039 A 
ATOM     33  C   UNL d   1      27.439 -16.304  -1.113  0.00  0.00     0.030 A 
ATOM     34  C   UNL d   1      27.637 -17.446  -0.332  0.00  0.00     0.003 A 
ATOM     35  C   UNL d   1      26.549 -18.215   0.077  0.00  0.00     0.012 A 
ATOM     36  C   UNL d   1      25.239 -17.823  -0.229  0.00  0.00    -0.024 A 
ATOM     37  C   UNL d   1      24.142 -18.575   0.231  0.00  0.00     0.012 A 
ATOM     38  C   UNL d   1      25.025 -16.663  -1.012  0.00  0.00     0.001 A 
ATOM     39  C   UNL d   1      22.830 -18.193  -0.052  0.00  0.00     0.001 A 
ATOM     40  C   UNL d   1      22.594 -17.051  -0.796  0.00  0.00     0.001 A 
ATOM     41  C   UNL d   1      23.672 -16.311  -1.270  0.00  0.00     0.014 A 
ENDBRANCH  30  32
ENDBRANCH  29  30
ENDBRANCH   2  29
TORSDOF 11
ENDMDL
MODEL 6
REMARK VINA RESULT:    -7.977      3.023      6.663
REMARK INTER + INTRA:         -15.019
REMARK INTER:                 -11.259
REMARK INTRA:                  -3.760
REMARK CONF_INDEPENDENT:        3.281
REMARK UNBOUND:                -3.760
REMARK  11 active torsions:
REMARK  status: ('A' for Active; 'I' for Inactive)
REMARK    1  A    between atoms: C_2  and  C_3 
REMARK    2  A    between atoms: C_3  and  N_4 
REMARK    3  A    between atoms: C_5  and  C_6 
REMARK    4  A    between atoms: C_6  and  N_7 
REMARK    5  A    between atoms: N_7  and  C_8 
REMARK    6  A    between atoms: C_20  and  S_21 
REMARK    7  A    between atoms: S_21  and  C_22 
REMARK    8  A    between atoms: C_22  and  C_23 
REMARK       I    between atoms: C_23  and  N_25 
REMARK    9  A    between atoms: N_25  and  N_26 
REMARK   10  A    between atoms: C_27  and  C_28 
REMARK   11  A    between atoms: C_29  and  O_30 
ROOT
ATOM      1  N   UNL d   1      28.337 -15.316  -4.149  0.00  0.00    -0.306 N 
ATOM      2  C   UNL d   1      26.978 -15.053  -4.355  0.00  0.00     0.148 A 
ATOM      3  N   UNL d   1      26.733 -15.232  -5.642  0.00  0.00    -0.132 NA
ATOM      4  N   UNL d   1      27.895 -15.575  -6.281  0.00  0.00    -0.122 NA
ATOM      5  C   UNL d   1      28.871 -15.608  -5.399  0.00  0.00     0.192 A 
ENDROOT
BRANCH   5   6
ATOM      6  S   UNL d   1      30.517 -15.986  -5.882  0.00  0.00    -0.081 SA
BRANCH   6   7
ATOM      7  C   UNL d   1      31.177 -14.871  -7.170  0.00  0.00     0.187 C 
BRANCH   7   8
ATOM      8  C   UNL d   1      30.486 -13.495  -7.206  0.00  0.00     0.247 C 
ATOM      9  O   UNL d   1      31.029 -12.467  -6.838  0.00  0.00    -0.271 OA
ATOM     10  N   UNL d   1      29.155 -13.524  -7.689  0.00  0.00    -0.247 N 
ATOM     11  H   UNL d   1      28.672 -14.384  -7.927  0.00  0.00     0.192 HD
BRANCH  10  12
ATOM     12  N   UNL d   1      28.474 -12.326  -7.755  0.00  0.00    -0.184 NA
ATOM     13  C   UNL d   1      27.673 -11.988  -6.789  0.00  0.00     0.153 C 
BRANCH  13  14
ATOM     14  C   UNL d   1      26.965 -10.669  -6.830  0.00  0.00     0.027 A 
ATOM     15  C   UNL d   1      26.890  -9.970  -8.046  0.00  0.00     0.078 A 
ATOM     16  C   UNL d   1      26.291  -8.717  -8.113  0.00  0.00     0.038 A 
ATOM     17  C   UNL d   1      25.745  -8.141  -6.966  0.00  0.00     0.015 A 
ATOM     18  C   UNL d   1      25.757  -8.830  -5.745  0.00  0.00    -0.025 A 
ATOM     19  C   UNL d   1      25.160  -8.248  -4.612  0.00  0.00     0.012 A 
ATOM     20  C   UNL d   1      26.372 -10.113  -5.658  0.00  0.00    -0.011 A 
ATOM     21  C   UNL d   1      25.156  -8.909  -3.386  0.00  0.00     0.001 A 
ATOM     22  C   UNL d   1      25.755 -10.157  -3.279  0.00  0.00     0.001 A 
ATOM     23  C   UNL d   1      26.361 -10.745  -4.394  0.00  0.00     0.013 A 
BRANCH  15  24
ATOM     24  O   UNL d   1      27.346 -10.482  -9.231  0.00  0.00    -0.360 OA
ATOM     25  H   UNL d   1      28.078 -11.105  -9.040  0.00  0.00     0.217 HD
ENDBRANCH  15  24
ENDBRANCH  13  14
ENDBRANCH  10  12
ENDBRANCH   7   8
ENDBRANCH   6   7
ENDBRANCH   5   6
BRANCH   1  26
ATOM     26  C   UNL d   1      29.161 -15.293  -2.953  0.00  0.00     0.159 C 
BRANCH  26  27
ATOM     27  C   UNL d   1      29.881 -14.060  -2.570  0.00  0.00    -0.017 C 
ATOM     28  C   UNL d   1      29.551 -12.827  -2.970  0.00  0.00     0.008 C 
ENDBRANCH  26  27
ENDBRANCH   1  26
BRANCH   2  29
ATOM     29  C   UNL d   1      25.866 -14.637  -3.381  0.00  0.00     0.200 C 
BRANCH  29  30
ATOM     30  N   UNL d   1      26.144 -14.840  -1.976  0.00  0.00    -0.382 N 
ATOM     31  H   UNL d   1      25.743 -14.090  -1.441  0.00  0.00     0.160 HD
BRANCH  30  32
ATOM     32  C   UNL d   1      26.201 -16.025  -1.253  0.00  0.00     0.039 A 
ATOM     33  C   UNL d   1      27.410 -16.556  -0.784  0.00  0.00     0.030 A 
ATOM     34  C   UNL d   1      27.434 -17.761  -0.077  0.00  0.00     0.003 A 
ATOM     35  C   UNL d   1      26.249 -18.444   0.190  0.00  0.00     0.012 A 
ATOM     36  C   UNL d   1      25.012 -17.904  -0.186  0.00  0.00    -0.024 A 
ATOM     37  C   UNL d   1      23.814 -18.573   0.132  0.00  0.00     0.012 A 
ATOM     38  C   UNL d   1      24.972 -16.680  -0.895  0.00  0.00     0.001 A 
ATOM     39  C   UNL d   1      22.571 -18.045  -0.221  0.00  0.00     0.001 A 
ATOM     40  C   UNL d   1      22.506 -16.840  -0.895  0.00  0.00     0.001 A 
ATOM     41  C   UNL d   1      23.685 -16.180  -1.230  0.00  0.00     0.014 A 
ENDBRANCH  30  32
ENDBRANCH  29  30
ENDBRANCH   2  29
TORSDOF 11
ENDMDL
MODEL 7
REMARK VINA RESULT:    -7.225      3.452      4.783
REMARK INTER + INTRA:         -15.442
REMARK INTER:                 -10.507
REMARK INTRA:                  -4.935
REMARK CONF_INDEPENDENT:        3.281
REMARK UNBOUND:                -4.935
REMARK  11 active torsions:
REMARK  status: ('A' for Active; 'I' for Inactive)
REMARK    1  A    between atoms: C_2  and  C_3 
REMARK    2  A    between atoms: C_3  and  N_4 
REMARK    3  A    between atoms: C_5  and  C_6 
REMARK    4  A    between atoms: C_6  and  N_7 
REMARK    5  A    between atoms: N_7  and  C_8 
REMARK    6  A    between atoms: C_20  and  S_21 
REMARK    7  A    between atoms: S_21  and  C_22 
REMARK    8  A    between atoms: C_22  and  C_23 
REMARK       I    between atoms: C_23  and  N_25 
REMARK    9  A    between atoms: N_25  and  N_26 
REMARK   10  A    between atoms: C_27  and  C_28 
REMARK   11  A    between atoms: C_29  and  O_30 
ROOT
ATOM      1  N   UNL d   1      26.943 -13.393  -5.103  0.00  0.00    -0.306 N 
ATOM      2  C   UNL d   1      26.226 -14.485  -4.603  0.00  0.00     0.148 A 
ATOM      3  N   UNL d   1      26.660 -15.564  -5.234  0.00  0.00    -0.132 NA
ATOM      4  N   UNL d   1      27.616 -15.200  -6.145  0.00  0.00    -0.122 NA
ATOM      5  C   UNL d   1      27.780 -13.896  -6.092  0.00  0.00     0.192 A 
ENDROOT
BRANCH   5   6
ATOM      6  S   UNL d   1      28.915 -13.080  -7.156  0.00  0.00    -0.081 SA
BRANCH   6   7
ATOM      7  C   UNL d   1      30.666 -13.392  -6.738  0.00  0.00     0.187 C 
BRANCH   7   8
ATOM      8  C   UNL d   1      30.918 -13.557  -5.227  0.00  0.00     0.247 C 
ATOM      9  O   UNL d   1      31.775 -12.935  -4.623  0.00  0.00    -0.271 OA
ATOM     10  N   UNL d   1      30.078 -14.508  -4.597  0.00  0.00    -0.247 N 
ATOM     11  H   UNL d   1      29.415 -15.082  -5.106  0.00  0.00     0.192 HD
BRANCH  10  12
ATOM     12  N   UNL d   1      30.245 -14.706  -3.242  0.00  0.00    -0.184 NA
ATOM     13  C   UNL d   1      29.832 -13.802  -2.404  0.00  0.00     0.153 C 
BRANCH  13  14
ATOM     14  C   UNL d   1      29.968 -14.028  -0.931  0.00  0.00     0.027 A 
ATOM     15  C   UNL d   1      31.168 -14.554  -0.427  0.00  0.00     0.078 A 
ATOM     16  C   UNL d   1      31.312 -14.831   0.929  0.00  0.00     0.038 A 
ATOM     17  C   UNL d   1      30.262 -14.578   1.809  0.00  0.00     0.015 A 
ATOM     18  C   UNL d   1      29.066 -14.007   1.351  0.00  0.00    -0.025 A 
ATOM     19  C   UNL d   1      28.037 -13.718   2.267  0.00  0.00     0.012 A 
ATOM     20  C   UNL d   1      28.900 -13.721  -0.036  0.00  0.00    -0.011 A 
ATOM     21  C   UNL d   1      26.839 -13.149   1.840  0.00  0.00     0.001 A 
ATOM     22  C   UNL d   1      26.655 -12.871   0.492  0.00  0.00     0.001 A 
ATOM     23  C   UNL d   1      27.665 -13.160  -0.431  0.00  0.00     0.013 A 
BRANCH  15  24
ATOM     24  O   UNL d   1      32.270 -14.780  -1.206  0.00  0.00    -0.360 OA
ATOM     25  H   UNL d   1      32.039 -14.582  -2.138  0.00  0.00     0.217 HD
ENDBRANCH  15  24
ENDBRANCH  13  14
ENDBRANCH  10  12
ENDBRANCH   7   8
ENDBRANCH   6   7
ENDBRANCH   5   6
BRANCH   1  26
ATOM     26  C   UNL d   1      26.904 -11.976  -4.782  0.00  0.00     0.159 C 
BRANCH  26  27
ATOM     27  C   UNL d   1      26.646 -11.535  -3.396  0.00  0.00    -0.017 C 
ATOM     28  C   UNL d   1      27.301 -10.548  -2.773  0.00  0.00     0.008 C 
ENDBRANCH  26  27
ENDBRANCH   1  26
BRANCH   2  29
ATOM     29  C   UNL d   1      25.128 -14.576  -3.532  0.00  0.00     0.200 C 
BRANCH  29  30
ATOM     30  N   UNL d   1      25.584 -14.709  -2.166  0.00  0.00    -0.382 N 
ATOM     31  H   UNL d   1      25.181 -13.981  -1.603  0.00  0.00     0.160 HD
BRANCH  30  32
ATOM     32  C   UNL d   1      25.833 -15.862  -1.430  0.00  0.00     0.039 A 
ATOM     33  C   UNL d   1      27.129 -16.255  -1.074  0.00  0.00     0.030 A 
ATOM     34  C   UNL d   1      27.345 -17.431  -0.350  0.00  0.00     0.003 A 
ATOM     35  C   UNL d   1      26.268 -18.221   0.046  0.00  0.00     0.012 A 
ATOM     36  C   UNL d   1      24.951 -17.820  -0.217  0.00  0.00    -0.024 A 
ATOM     37  C   UNL d   1      23.865 -18.596   0.230  0.00  0.00     0.012 A 
ATOM     38  C   UNL d   1      24.718 -16.627  -0.941  0.00  0.00     0.001 A 
ATOM     39  C   UNL d   1      22.546 -18.206  -0.008  0.00  0.00     0.001 A 
ATOM     40  C   UNL d   1      22.293 -17.033  -0.694  0.00  0.00     0.001 A 
ATOM     41  C   UNL d   1      23.360 -16.268  -1.156  0.00  0.00     0.014 A 
ENDBRANCH  30  32
ENDBRANCH  29  30
ENDBRANCH   2  29
TORSDOF 11
ENDMDL
MODEL 8
REMARK VINA RESULT:    -6.864      3.474      6.417
REMARK INTER + INTRA:         -14.932
REMARK INTER:                 -10.145
REMARK INTRA:                  -4.787
REMARK CONF_INDEPENDENT:        3.281
REMARK UNBOUND:                -4.787
REMARK  11 active torsions:
REMARK  status: ('A' for Active; 'I' for Inactive)
REMARK    1  A    between atoms: C_2  and  C_3 
REMARK    2  A    between atoms: C_3  and  N_4 
REMARK    3  A    between atoms: C_5  and  C_6 
REMARK    4  A    between atoms: C_6  and  N_7 
REMARK    5  A    between atoms: N_7  and  C_8 
REMARK    6  A    between atoms: C_20  and  S_21 
REMARK    7  A    between atoms: S_21  and  C_22 
REMARK    8  A    between atoms: C_22  and  C_23 
REMARK       I    between atoms: C_23  and  N_25 
REMARK    9  A    between atoms: N_25  and  N_26 
REMARK   10  A    between atoms: C_27  and  C_28 
REMARK   11  A    between atoms: C_29  and  O_30 
ROOT
ATOM      1  N   UNL d   1      29.359 -12.937  -3.630  0.00  0.00    -0.306 N 
ATOM      2  C   UNL d   1      29.789 -12.782  -2.308  0.00  0.00     0.148 A 
ATOM      3  N   UNL d   1      29.058 -11.823  -1.765  0.00  0.00    -0.132 NA
ATOM      4  N   UNL d   1      28.187 -11.334  -2.702  0.00  0.00    -0.122 NA
ATOM      5  C   UNL d   1      28.372 -11.980  -3.833  0.00  0.00     0.192 A 
ENDROOT
BRANCH   5   6
ATOM      6  S   UNL d   1      27.438 -11.583  -5.267  0.00  0.00    -0.081 SA
BRANCH   6   7
ATOM      7  C   UNL d   1      25.676 -12.049  -5.148  0.00  0.00     0.187 C 
BRANCH   7   8
ATOM      8  C   UNL d   1      25.424 -13.275  -4.249  0.00  0.00     0.247 C 
ATOM      9  O   UNL d   1      24.828 -14.269  -4.630  0.00  0.00    -0.271 OA
ATOM     10  N   UNL d   1      25.928 -13.146  -2.932  0.00  0.00    -0.247 N 
ATOM     11  H   UNL d   1      26.358 -12.295  -2.586  0.00  0.00     0.192 HD
BRANCH  10  12
ATOM     12  N   UNL d   1      25.742 -14.208  -2.071  0.00  0.00    -0.184 NA
ATOM     13  C   UNL d   1      26.541 -15.232  -2.132  0.00  0.00     0.153 C 
BRANCH  13  14
ATOM     14  C   UNL d   1      26.374 -16.369  -1.173  0.00  0.00     0.027 A 
ATOM     15  C   UNL d   1      27.516 -16.972  -0.621  0.00  0.00     0.078 A 
ATOM     16  C   UNL d   1      27.405 -18.067   0.230  0.00  0.00     0.038 A 
ATOM     17  C   UNL d   1      26.148 -18.575   0.553  0.00  0.00     0.015 A 
ATOM     18  C   UNL d   1      24.983 -17.970   0.061  0.00  0.00    -0.025 A 
ATOM     19  C   UNL d   1      23.725 -18.474   0.438  0.00  0.00     0.012 A 
ATOM     20  C   UNL d   1      25.080 -16.850  -0.816  0.00  0.00    -0.011 A 
ATOM     21  C   UNL d   1      22.551 -17.891  -0.034  0.00  0.00     0.001 A 
ATOM     22  C   UNL d   1      22.623 -16.805  -0.895  0.00  0.00     0.001 A 
ATOM     23  C   UNL d   1      23.867 -16.298  -1.286  0.00  0.00     0.013 A 
BRANCH  15  24
ATOM     24  O   UNL d   1      28.785 -16.505  -0.836  0.00  0.00    -0.360 OA
ATOM     25  H   UNL d   1      29.097 -16.063  -0.018  0.00  0.00     0.217 HD
ENDBRANCH  15  24
ENDBRANCH  13  14
ENDBRANCH  10  12
ENDBRANCH   7   8
ENDBRANCH   6   7
ENDBRANCH   5   6
BRANCH   1  26
ATOM     26  C   UNL d   1      29.782 -13.835  -4.691  0.00  0.00     0.159 C 
BRANCH  26  27
ATOM     27  C   UNL d   1      29.115 -15.142  -4.868  0.00  0.00    -0.017 C 
ATOM     28  C   UNL d   1      29.280 -15.949  -5.923  0.00  0.00     0.008 C 
ENDBRANCH  26  27
ENDBRANCH   1  26
BRANCH   2  29
ATOM     29  C   UNL d   1      30.876 -13.509  -1.502  0.00  0.00     0.200 C 
BRANCH  29  30
ATOM     30  N   UNL d   1      30.410 -14.497  -0.555  0.00  0.00    -0.382 N 
ATOM     31  H   UNL d   1      30.665 -15.416  -0.872  0.00  0.00     0.160 HD
BRANCH  30  32
ATOM     32  C   UNL d   1      30.340 -14.423   0.831  0.00  0.00     0.039 A 
ATOM     33  C   UNL d   1      31.459 -14.634   1.647  0.00  0.00     0.030 A 
ATOM     34  C   UNL d   1      31.350 -14.572   3.039  0.00  0.00     0.003 A 
ATOM     35  C   UNL d   1      30.126 -14.278   3.636  0.00  0.00     0.012 A 
ATOM     36  C   UNL d   1      29.003 -13.976   2.855  0.00  0.00    -0.024 A 
ATOM     37  C   UNL d   1      27.781 -13.630   3.463  0.00  0.00     0.012 A 
ATOM     38  C   UNL d   1      29.101 -14.027   1.444  0.00  0.00     0.001 A 
ATOM     39  C   UNL d   1      26.655 -13.312   2.703  0.00  0.00     0.001 A 
ATOM     40  C   UNL d   1      26.733 -13.333   1.323  0.00  0.00     0.001 A 
ATOM     41  C   UNL d   1      27.930 -13.692   0.712  0.00  0.00     0.014 A 
ENDBRANCH  30  32
ENDBRANCH  29  30
ENDBRANCH   2  29
TORSDOF 11
ENDMDL
