MODEL 1
REMARK VINA RESULT:    -8.202      0.000      0.000
REMARK INTER + INTRA:         -10.510
REMARK INTER:                  -9.693
REMARK INTRA:                  -0.817
REMARK CONF_INDEPENDENT:        1.492
REMARK UNBOUND:                -0.817
REMARK  5 active torsions:
REMARK  status: ('A' for Active; 'I' for Inactive)
REMARK    1  A    between atoms: C_3  and  N_4 
REMARK    2  A    between atoms: C_3  and  C_13 
REMARK    3  A    between atoms: N_4  and  N_5 
REMARK       I    between atoms: N_5  and  C_6 
REMARK    4  A    between atoms: C_6  and  C_8 
REMARK    5  A    between atoms: C_16  and  O_17 
ROOT
ATOM      1  C   UNL d   1      21.909 -16.249  -0.895  0.00  0.00     0.038 C 
ATOM      2  C   UNL d   1      23.386 -16.428  -0.788  0.00  0.00     0.001 C 
ATOM      3  C   UNL d   1      24.035 -17.613  -0.719  0.00  0.00     0.054 C 
ENDROOT
BRANCH   3   4
ATOM      4  N   UNL d   1      23.427 -18.878  -0.763  0.00  0.00    -0.297 N 
ATOM      5  H   UNL d   1      23.847 -19.592  -1.363  0.00  0.00     0.187 HD
BRANCH   4   6
ATOM      6  N   UNL d   1      22.259 -19.271  -0.057  0.00  0.00    -0.265 N 
ATOM      7  C   UNL d   1      21.018 -19.502  -0.621  0.00  0.00     0.277 C 
ATOM      8  O   UNL d   1      20.792 -19.324  -1.822  0.00  0.00    -0.265 OA
ATOM      9  H   UNL d   1      22.373 -19.614   0.877  0.00  0.00     0.190 HD
BRANCH   7  10
ATOM     10  C   UNL d   1      20.019 -19.970   0.360  0.00  0.00     0.074 A 
ATOM     11  C   UNL d   1      18.863 -20.718   0.160  0.00  0.00     0.025 A 
ATOM     12  C   UNL d   1      18.166 -21.015   1.376  0.00  0.00     0.009 A 
ATOM     13  C   UNL d   1      18.780 -20.448   2.469  0.00  0.00     0.050 A 
ATOM     14  S   UNL d   1      20.204 -19.598   2.029  0.00  0.00    -0.097 SA
ENDBRANCH   7  10
ENDBRANCH   4   6
ENDBRANCH   3   4
BRANCH   3  15
ATOM     15  C   UNL d   1      25.546 -17.541  -0.609  0.00  0.00    -0.008 A 
ATOM     16  C   UNL d   1      26.309 -16.544  -1.270  0.00  0.00     0.016 A 
ATOM     17  C   UNL d   1      27.715 -16.486  -1.176  0.00  0.00     0.037 A 
ATOM     18  C   UNL d   1      28.386 -17.432  -0.412  0.00  0.00     0.065 A 
ATOM     19  C   UNL d   1      27.671 -18.436   0.229  0.00  0.00     0.037 A 
ATOM     20  C   UNL d   1      26.268 -18.490   0.130  0.00  0.00     0.016 A 
BRANCH  18  21
ATOM     21  O   UNL d   1      29.742 -17.424  -0.257  0.00  0.00    -0.361 OA
ATOM     22  H   UNL d   1      29.988 -17.945   0.525  0.00  0.00     0.217 HD
ENDBRANCH  18  21
ENDBRANCH   3  15
TORSDOF 5
ENDMDL
MODEL 2
REMARK VINA RESULT:    -7.039      4.254      8.176
REMARK INTER + INTRA:          -9.265
REMARK INTER:                  -8.531
REMARK INTRA:                  -0.734
REMARK CONF_INDEPENDENT:        1.492
REMARK UNBOUND:                -0.734
REMARK  5 active torsions:
REMARK  status: ('A' for Active; 'I' for Inactive)
REMARK    1  A    between atoms: C_3  and  N_4 
REMARK    2  A    between atoms: C_3  and  C_13 
REMARK    3  A    between atoms: N_4  and  N_5 
REMARK       I    between atoms: N_5  and  C_6 
REMARK    4  A    between atoms: C_6  and  C_8 
REMARK    5  A    between atoms: C_16  and  O_17 
ROOT
ATOM      1  C   UNL d   1      27.991 -17.748  -0.143  0.00  0.00     0.038 C 
ATOM      2  C   UNL d   1      26.515 -17.916  -0.276  0.00  0.00     0.001 C 
ATOM      3  C   UNL d   1      25.650 -16.973  -0.716  0.00  0.00     0.054 C 
ENDROOT
BRANCH   3   4
ATOM      4  N   UNL d   1      26.000 -15.683  -1.148  0.00  0.00    -0.297 N 
ATOM      5  H   UNL d   1      25.754 -14.893  -0.548  0.00  0.00     0.187 HD
BRANCH   4   6
ATOM      6  N   UNL d   1      26.663 -15.358  -2.361  0.00  0.00    -0.265 N 
ATOM      7  C   UNL d   1      26.064 -14.818  -3.485  0.00  0.00     0.277 C 
ATOM      8  O   UNL d   1      24.847 -14.618  -3.557  0.00  0.00    -0.265 OA
ATOM      9  H   UNL d   1      27.663 -15.311  -2.348  0.00  0.00     0.190 HD
BRANCH   7  10
ATOM     10  C   UNL d   1      27.027 -14.520  -4.563  0.00  0.00     0.074 A 
ATOM     11  C   UNL d   1      28.068 -15.297  -5.063  0.00  0.00     0.025 A 
ATOM     12  C   UNL d   1      28.764 -14.677  -6.151  0.00  0.00     0.009 A 
ATOM     13  C   UNL d   1      28.269 -13.423  -6.424  0.00  0.00     0.050 A 
ATOM     14  S   UNL d   1      26.955 -13.019  -5.399  0.00  0.00    -0.097 SA
ENDBRANCH   7  10
ENDBRANCH   4   6
ENDBRANCH   3   4
BRANCH   3  15
ATOM     15  C   UNL d   1      24.188 -17.377  -0.758  0.00  0.00    -0.008 A 
ATOM     16  C   UNL d   1      23.775 -18.734  -0.755  0.00  0.00     0.016 A 
ATOM     17  C   UNL d   1      22.415 -19.106  -0.806  0.00  0.00     0.037 A 
ATOM     18  C   UNL d   1      21.441 -18.120  -0.862  0.00  0.00     0.065 A 
ATOM     19  C   UNL d   1      21.812 -16.782  -0.891  0.00  0.00     0.037 A 
ATOM     20  C   UNL d   1      23.170 -16.415  -0.842  0.00  0.00     0.016 A 
BRANCH  18  21
ATOM     21  O   UNL d   1      20.106 -18.406  -0.890  0.00  0.00    -0.361 OA
ATOM     22  H   UNL d   1      19.635 -17.738  -1.414  0.00  0.00     0.217 HD
ENDBRANCH  18  21
ENDBRANCH   3  15
TORSDOF 5
ENDMDL
MODEL 3
REMARK VINA RESULT:    -7.035      2.578      3.375
REMARK INTER + INTRA:          -9.123
REMARK INTER:                  -8.526
REMARK INTRA:                  -0.596
REMARK CONF_INDEPENDENT:        1.492
REMARK UNBOUND:                -0.596
REMARK  5 active torsions:
REMARK  status: ('A' for Active; 'I' for Inactive)
REMARK    1  A    between atoms: C_3  and  N_4 
REMARK    2  A    between atoms: C_3  and  C_13 
REMARK    3  A    between atoms: N_4  and  N_5 
REMARK       I    between atoms: N_5  and  C_6 
REMARK    4  A    between atoms: C_6  and  C_8 
REMARK    5  A    between atoms: C_16  and  O_17 
ROOT
ATOM      1  C   UNL d   1      24.613 -18.568   0.466  0.00  0.00     0.038 C 
ATOM      2  C   UNL d   1      25.088 -17.599  -0.564  0.00  0.00     0.001 C 
ATOM      3  C   UNL d   1      24.330 -16.656  -1.169  0.00  0.00     0.054 C 
ENDROOT
BRANCH   3   4
ATOM      4  N   UNL d   1      22.971 -16.412  -0.909  0.00  0.00    -0.297 N 
ATOM      5  H   UNL d   1      22.587 -15.503  -1.177  0.00  0.00     0.187 HD
BRANCH   4   6
ATOM      6  N   UNL d   1      22.063 -17.310  -0.289  0.00  0.00    -0.265 N 
ATOM      7  C   UNL d   1      21.674 -18.537  -0.794  0.00  0.00     0.277 C 
ATOM      8  O   UNL d   1      22.049 -18.950  -1.896  0.00  0.00    -0.265 OA
ATOM      9  H   UNL d   1      21.844 -17.158   0.676  0.00  0.00     0.190 HD
BRANCH   7  10
ATOM     10  C   UNL d   1      20.775 -19.274   0.116  0.00  0.00     0.074 A 
ATOM     11  C   UNL d   1      20.767 -19.325   1.506  0.00  0.00     0.025 A 
ATOM     12  C   UNL d   1      19.704 -20.125   2.036  0.00  0.00     0.009 A 
ATOM     13  C   UNL d   1      18.955 -20.704   1.038  0.00  0.00     0.050 A 
ATOM     14  S   UNL d   1      19.512 -20.253  -0.520  0.00  0.00    -0.097 SA
ENDBRANCH   7  10
ENDBRANCH   4   6
ENDBRANCH   3   4
BRANCH   3  15
ATOM     15  C   UNL d   1      25.037 -15.787  -2.192  0.00  0.00    -0.008 A 
ATOM     16  C   UNL d   1      26.376 -16.025  -2.594  0.00  0.00     0.016 A 
ATOM     17  C   UNL d   1      27.036 -15.208  -3.537  0.00  0.00     0.037 A 
ATOM     18  C   UNL d   1      26.360 -14.133  -4.097  0.00  0.00     0.065 A 
ATOM     19  C   UNL d   1      25.055 -13.858  -3.707  0.00  0.00     0.037 A 
ATOM     20  C   UNL d   1      24.402 -14.675  -2.765  0.00  0.00     0.016 A 
BRANCH  18  21
ATOM     21  O   UNL d   1      26.926 -13.315  -5.031  0.00  0.00    -0.361 OA
ATOM     22  H   UNL d   1      27.888 -13.446  -5.047  0.00  0.00     0.217 HD
ENDBRANCH  18  21
ENDBRANCH   3  15
TORSDOF 5
ENDMDL
MODEL 4
REMARK VINA RESULT:    -6.771      4.610      8.334
REMARK INTER + INTRA:          -9.128
REMARK INTER:                  -8.262
REMARK INTRA:                  -0.866
REMARK CONF_INDEPENDENT:        1.492
REMARK UNBOUND:                -0.866
REMARK  5 active torsions:
REMARK  status: ('A' for Active; 'I' for Inactive)
REMARK    1  A    between atoms: C_3  and  N_4 
REMARK    2  A    between atoms: C_3  and  C_13 
REMARK    3  A    between atoms: N_4  and  N_5 
REMARK       I    between atoms: N_5  and  C_6 
REMARK    4  A    between atoms: C_6  and  C_8 
REMARK    5  A    between atoms: C_16  and  O_17 
ROOT
ATOM      1  C   UNL d   1      28.339 -16.172  -0.619  0.00  0.00     0.038 C 
ATOM      2  C   UNL d   1      26.993 -16.801  -0.480  0.00  0.00     0.001 C 
ATOM      3  C   UNL d   1      25.865 -16.400  -1.110  0.00  0.00     0.054 C 
ENDROOT
BRANCH   3   4
ATOM      4  N   UNL d   1      25.776 -15.338  -2.024  0.00  0.00    -0.297 N 
ATOM      5  H   UNL d   1      25.015 -14.665  -1.906  0.00  0.00     0.187 HD
BRANCH   4   6
ATOM      6  N   UNL d   1      26.643 -15.106  -3.125  0.00  0.00    -0.265 N 
ATOM      7  C   UNL d   1      26.255 -14.649  -4.371  0.00  0.00     0.277 C 
ATOM      8  O   UNL d   1      25.073 -14.450  -4.667  0.00  0.00    -0.265 OA
ATOM      9  H   UNL d   1      27.626 -15.063  -2.943  0.00  0.00     0.190 HD
BRANCH   7  10
ATOM     10  C   UNL d   1      27.394 -14.436  -5.285  0.00  0.00     0.074 A 
ATOM     11  C   UNL d   1      27.660 -13.370  -6.139  0.00  0.00     0.025 A 
ATOM     12  C   UNL d   1      28.901 -13.506  -6.843  0.00  0.00     0.009 A 
ATOM     13  C   UNL d   1      29.529 -14.693  -6.546  0.00  0.00     0.050 A 
ATOM     14  S   UNL d   1      28.643 -15.613  -5.401  0.00  0.00    -0.097 SA
ENDBRANCH   7  10
ENDBRANCH   4   6
ENDBRANCH   3   4
BRANCH   3  15
ATOM     15  C   UNL d   1      24.611 -17.197  -0.802  0.00  0.00    -0.008 A 
ATOM     16  C   UNL d   1      23.318 -16.614  -0.817  0.00  0.00     0.016 A 
ATOM     17  C   UNL d   1      22.155 -17.355  -0.518  0.00  0.00     0.037 A 
ATOM     18  C   UNL d   1      22.268 -18.700  -0.200  0.00  0.00     0.065 A 
ATOM     19  C   UNL d   1      23.522 -19.297  -0.154  0.00  0.00     0.037 A 
ATOM     20  C   UNL d   1      24.680 -18.553  -0.450  0.00  0.00     0.016 A 
BRANCH  18  21
ATOM     21  O   UNL d   1      21.185 -19.484   0.076  0.00  0.00    -0.361 OA
ATOM     22  H   UNL d   1      21.438 -20.194   0.689  0.00  0.00     0.217 HD
ENDBRANCH  18  21
ENDBRANCH   3  15
TORSDOF 5
ENDMDL
MODEL 5
REMARK VINA RESULT:    -6.693      3.425      7.818
REMARK INTER + INTRA:          -9.130
REMARK INTER:                  -8.184
REMARK INTRA:                  -0.945
REMARK CONF_INDEPENDENT:        1.492
REMARK UNBOUND:                -0.945
REMARK  5 active torsions:
REMARK  status: ('A' for Active; 'I' for Inactive)
REMARK    1  A    between atoms: C_3  and  N_4 
REMARK    2  A    between atoms: C_3  and  C_13 
REMARK    3  A    between atoms: N_4  and  N_5 
REMARK       I    between atoms: N_5  and  C_6 
REMARK    4  A    between atoms: C_6  and  C_8 
REMARK    5  A    between atoms: C_16  and  O_17 
ROOT
ATOM      1  C   UNL d   1      25.858 -18.095   0.551  0.00  0.00     0.038 C 
ATOM      2  C   UNL d   1      24.452 -18.563   0.379  0.00  0.00     0.001 C 
ATOM      3  C   UNL d   1      23.492 -17.932  -0.336  0.00  0.00     0.054 C 
ENDROOT
BRANCH   3   4
ATOM      4  N   UNL d   1      23.666 -16.742  -1.061  0.00  0.00    -0.297 N 
ATOM      5  H   UNL d   1      22.974 -15.999  -0.938  0.00  0.00     0.187 HD
BRANCH   4   6
ATOM      6  N   UNL d   1      24.717 -16.464  -1.974  0.00  0.00    -0.265 N 
ATOM      7  C   UNL d   1      24.824 -15.327  -2.755  0.00  0.00     0.277 C 
ATOM      8  O   UNL d   1      23.955 -14.450  -2.772  0.00  0.00    -0.265 OA
ATOM      9  H   UNL d   1      25.551 -17.014  -1.906  0.00  0.00     0.190 HD
BRANCH   7  10
ATOM     10  C   UNL d   1      26.067 -15.292  -3.550  0.00  0.00     0.074 A 
ATOM     11  C   UNL d   1      26.240 -15.133  -4.922  0.00  0.00     0.025 A 
ATOM     12  C   UNL d   1      27.616 -15.108  -5.319  0.00  0.00     0.009 A 
ATOM     13  C   UNL d   1      28.460 -15.296  -4.248  0.00  0.00     0.050 A 
ATOM     14  S   UNL d   1      27.594 -15.462  -2.777  0.00  0.00    -0.097 SA
ENDBRANCH   7  10
ENDBRANCH   4   6
ENDBRANCH   3   4
BRANCH   3  15
ATOM     15  C   UNL d   1      22.130 -18.600  -0.359  0.00  0.00    -0.008 A 
ATOM     16  C   UNL d   1      21.430 -18.939   0.827  0.00  0.00     0.016 A 
ATOM     17  C   UNL d   1      20.169 -19.571   0.801  0.00  0.00     0.037 A 
ATOM     18  C   UNL d   1      19.585 -19.876  -0.420  0.00  0.00     0.065 A 
ATOM     19  C   UNL d   1      20.254 -19.580  -1.600  0.00  0.00     0.037 A 
ATOM     20  C   UNL d   1      21.513 -18.950  -1.570  0.00  0.00     0.016 A 
BRANCH  18  21
ATOM     21  O   UNL d   1      18.357 -20.466  -0.520  0.00  0.00    -0.361 OA
ATOM     22  H   UNL d   1      17.689 -19.801  -0.755  0.00  0.00     0.217 HD
ENDBRANCH  18  21
ENDBRANCH   3  15
TORSDOF 5
ENDMDL
MODEL 6
REMARK VINA RESULT:    -6.590      4.716      8.374
REMARK INTER + INTRA:          -8.816
REMARK INTER:                  -8.082
REMARK INTRA:                  -0.735
REMARK CONF_INDEPENDENT:        1.492
REMARK UNBOUND:                -0.735
REMARK  5 active torsions:
REMARK  status: ('A' for Active; 'I' for Inactive)
REMARK    1  A    between atoms: C_3  and  N_4 
REMARK    2  A    between atoms: C_3  and  C_13 
REMARK    3  A    between atoms: N_4  and  N_5 
REMARK       I    between atoms: N_5  and  C_6 
REMARK    4  A    between atoms: C_6  and  C_8 
REMARK    5  A    between atoms: C_16  and  O_17 
ROOT
ATOM      1  C   UNL d   1      27.701 -14.536  -0.072  0.00  0.00     0.038 C 
ATOM      2  C   UNL d   1      26.556 -15.491  -0.035  0.00  0.00     0.001 C 
ATOM      3  C   UNL d   1      25.594 -15.608  -0.980  0.00  0.00     0.054 C 
ENDROOT
BRANCH   3   4
ATOM      4  N   UNL d   1      25.528 -14.866  -2.171  0.00  0.00    -0.297 N 
ATOM      5  H   UNL d   1      24.685 -14.315  -2.346  0.00  0.00     0.187 HD
BRANCH   4   6
ATOM      6  N   UNL d   1      26.524 -14.812  -3.181  0.00  0.00    -0.265 N 
ATOM      7  C   UNL d   1      26.287 -14.755  -4.542  0.00  0.00     0.277 C 
ATOM      8  O   UNL d   1      25.150 -14.806  -5.020  0.00  0.00    -0.265 OA
ATOM      9  H   UNL d   1      27.459 -14.586  -2.901  0.00  0.00     0.190 HD
BRANCH   7  10
ATOM     10  C   UNL d   1      27.526 -14.632  -5.336  0.00  0.00     0.074 A 
ATOM     11  C   UNL d   1      28.600 -15.510  -5.447  0.00  0.00     0.025 A 
ATOM     12  C   UNL d   1      29.608 -15.056  -6.357  0.00  0.00     0.009 A 
ATOM     13  C   UNL d   1      29.303 -13.823  -6.885  0.00  0.00     0.050 A 
ATOM     14  S   UNL d   1      27.795 -13.240  -6.310  0.00  0.00    -0.097 SA
ENDBRANCH   7  10
ENDBRANCH   4   6
ENDBRANCH   3   4
BRANCH   3  15
ATOM     15  C   UNL d   1      24.525 -16.651  -0.718  0.00  0.00    -0.008 A 
ATOM     16  C   UNL d   1      24.839 -17.991  -0.376  0.00  0.00     0.016 A 
ATOM     17  C   UNL d   1      23.842 -18.962  -0.144  0.00  0.00     0.037 A 
ATOM     18  C   UNL d   1      22.506 -18.605  -0.251  0.00  0.00     0.065 A 
ATOM     19  C   UNL d   1      22.164 -17.306  -0.607  0.00  0.00     0.037 A 
ATOM     20  C   UNL d   1      23.162 -16.341  -0.839  0.00  0.00     0.016 A 
BRANCH  18  21
ATOM     21  O   UNL d   1      21.488 -19.484  -0.017  0.00  0.00    -0.361 OA
ATOM     22  H   UNL d   1      21.763 -20.141   0.644  0.00  0.00     0.217 HD
ENDBRANCH  18  21
ENDBRANCH   3  15
TORSDOF 5
ENDMDL
MODEL 7
REMARK VINA RESULT:    -6.534      4.294      8.026
REMARK INTER + INTRA:          -8.940
REMARK INTER:                  -8.026
REMARK INTRA:                  -0.914
REMARK CONF_INDEPENDENT:        1.492
REMARK UNBOUND:                -0.914
REMARK  5 active torsions:
REMARK  status: ('A' for Active; 'I' for Inactive)
REMARK    1  A    between atoms: C_3  and  N_4 
REMARK    2  A    between atoms: C_3  and  C_13 
REMARK    3  A    between atoms: N_4  and  N_5 
REMARK       I    between atoms: N_5  and  C_6 
REMARK    4  A    between atoms: C_6  and  C_8 
REMARK    5  A    between atoms: C_16  and  O_17 
ROOT
ATOM      1  C   UNL d   1      28.042 -16.457   0.496  0.00  0.00     0.038 C 
ATOM      2  C   UNL d   1      26.612 -16.817   0.272  0.00  0.00     0.001 C 
ATOM      3  C   UNL d   1      25.980 -16.834  -0.925  0.00  0.00     0.054 C 
ENDROOT
BRANCH   3   4
ATOM      4  N   UNL d   1      26.574 -16.540  -2.164  0.00  0.00    -0.297 N 
ATOM      5  H   UNL d   1      27.042 -17.300  -2.663  0.00  0.00     0.187 HD
BRANCH   4   6
ATOM      6  N   UNL d   1      26.603 -15.271  -2.799  0.00  0.00    -0.265 N 
ATOM      7  C   UNL d   1      26.362 -15.038  -4.141  0.00  0.00     0.277 C 
ATOM      8  O   UNL d   1      26.149 -15.950  -4.945  0.00  0.00    -0.265 OA
ATOM      9  H   UNL d   1      26.587 -14.458  -2.216  0.00  0.00     0.190 HD
BRANCH   7  10
ATOM     10  C   UNL d   1      26.392 -13.603  -4.489  0.00  0.00     0.074 A 
ATOM     11  C   UNL d   1      27.149 -12.938  -5.448  0.00  0.00     0.025 A 
ATOM     12  C   UNL d   1      26.866 -11.536  -5.518  0.00  0.00     0.009 A 
ATOM     13  C   UNL d   1      25.935 -11.155  -4.580  0.00  0.00     0.050 A 
ATOM     14  S   UNL d   1      25.384 -12.489  -3.652  0.00  0.00    -0.097 SA
ENDBRANCH   7  10
ENDBRANCH   4   6
ENDBRANCH   3   4
BRANCH   3  15
ATOM     15  C   UNL d   1      24.516 -17.228  -0.901  0.00  0.00    -0.008 A 
ATOM     16  C   UNL d   1      24.094 -18.582  -0.909  0.00  0.00     0.016 A 
ATOM     17  C   UNL d   1      22.731 -18.946  -0.898  0.00  0.00     0.037 A 
ATOM     18  C   UNL d   1      21.762 -17.953  -0.879  0.00  0.00     0.065 A 
ATOM     19  C   UNL d   1      22.140 -16.617  -0.894  0.00  0.00     0.037 A 
ATOM     20  C   UNL d   1      23.502 -16.259  -0.907  0.00  0.00     0.016 A 
BRANCH  18  21
ATOM     21  O   UNL d   1      20.426 -18.231  -0.844  0.00  0.00    -0.361 OA
ATOM     22  H   UNL d   1      19.967 -17.744  -1.548  0.00  0.00     0.217 HD
ENDBRANCH  18  21
ENDBRANCH   3  15
TORSDOF 5
ENDMDL
MODEL 8
REMARK VINA RESULT:    -6.492      4.832      8.072
REMARK INTER + INTRA:          -8.860
REMARK INTER:                  -7.983
REMARK INTRA:                  -0.877
REMARK CONF_INDEPENDENT:        1.492
REMARK UNBOUND:                -0.877
REMARK  5 active torsions:
REMARK  status: ('A' for Active; 'I' for Inactive)
REMARK    1  A    between atoms: C_3  and  N_4 
REMARK    2  A    between atoms: C_3  and  C_13 
REMARK    3  A    between atoms: N_4  and  N_5 
REMARK       I    between atoms: N_5  and  C_6 
REMARK    4  A    between atoms: C_6  and  C_8 
REMARK    5  A    between atoms: C_16  and  O_17 
ROOT
ATOM      1  C   UNL d   1      27.568 -14.449   0.173  0.00  0.00     0.038 C 
ATOM      2  C   UNL d   1      26.406 -15.384   0.142  0.00  0.00     0.001 C 
ATOM      3  C   UNL d   1      25.796 -15.849  -0.973  0.00  0.00     0.054 C 
ENDROOT
BRANCH   3   4
ATOM      4  N   UNL d   1      26.174 -15.552  -2.292  0.00  0.00    -0.297 N 
ATOM      5  H   UNL d   1      26.452 -16.327  -2.898  0.00  0.00     0.187 HD
BRANCH   4   6
ATOM      6  N   UNL d   1      26.223 -14.259  -2.878  0.00  0.00    -0.265 N 
ATOM      7  C   UNL d   1      25.653 -13.902  -4.086  0.00  0.00     0.277 C 
ATOM      8  O   UNL d   1      25.080 -14.716  -4.816  0.00  0.00    -0.265 OA
ATOM      9  H   UNL d   1      26.502 -13.494  -2.295  0.00  0.00     0.190 HD
BRANCH   7  10
ATOM     10  C   UNL d   1      25.810 -12.466  -4.393  0.00  0.00     0.074 A 
ATOM     11  C   UNL d   1      25.905 -11.827  -5.625  0.00  0.00     0.025 A 
ATOM     12  C   UNL d   1      26.009 -10.402  -5.516  0.00  0.00     0.009 A 
ATOM     13  C   UNL d   1      26.037  -9.991  -4.204  0.00  0.00     0.050 A 
ATOM     14  S   UNL d   1      25.904 -11.314  -3.119  0.00  0.00    -0.097 SA
ENDBRANCH   7  10
ENDBRANCH   4   6
ENDBRANCH   3   4
BRANCH   3  15
ATOM     15  C   UNL d   1      24.626 -16.788  -0.750  0.00  0.00    -0.008 A 
ATOM     16  C   UNL d   1      23.281 -16.338  -0.745  0.00  0.00     0.016 A 
ATOM     17  C   UNL d   1      22.195 -17.212  -0.525  0.00  0.00     0.037 A 
ATOM     18  C   UNL d   1      22.440 -18.560  -0.306  0.00  0.00     0.065 A 
ATOM     19  C   UNL d   1      23.747 -19.030  -0.281  0.00  0.00     0.037 A 
ATOM     20  C   UNL d   1      24.828 -18.154  -0.499  0.00  0.00     0.016 A 
BRANCH  18  21
ATOM     21  O   UNL d   1      21.439 -19.467  -0.110  0.00  0.00    -0.361 OA
ATOM     22  H   UNL d   1      21.679 -20.075   0.608  0.00  0.00     0.217 HD
ENDBRANCH  18  21
ENDBRANCH   3  15
TORSDOF 5
ENDMDL
MODEL 9
REMARK VINA RESULT:    -6.373      4.702      8.056
REMARK INTER + INTRA:          -8.733
REMARK INTER:                  -7.865
REMARK INTRA:                  -0.868
REMARK CONF_INDEPENDENT:        1.492
REMARK UNBOUND:                -0.868
REMARK  5 active torsions:
REMARK  status: ('A' for Active; 'I' for Inactive)
REMARK    1  A    between atoms: C_3  and  N_4 
REMARK    2  A    between atoms: C_3  and  C_13 
REMARK    3  A    between atoms: N_4  and  N_5 
REMARK       I    between atoms: N_5  and  C_6 
REMARK    4  A    between atoms: C_6  and  C_8 
REMARK    5  A    between atoms: C_16  and  O_17 
ROOT
ATOM      1  C   UNL d   1      29.084 -17.258  -0.559  0.00  0.00     0.038 C 
ATOM      2  C   UNL d   1      27.610 -17.472  -0.624  0.00  0.00     0.001 C 
ATOM      3  C   UNL d   1      26.667 -16.626  -0.147  0.00  0.00     0.054 C 
ENDROOT
BRANCH   3   4
ATOM      4  N   UNL d   1      26.919 -15.388   0.465  0.00  0.00    -0.297 N 
ATOM      5  H   UNL d   1      26.610 -14.542  -0.019  0.00  0.00     0.187 HD
BRANCH   4   6
ATOM      6  N   UNL d   1      27.583 -15.186   1.704  0.00  0.00    -0.265 N 
ATOM      7  C   UNL d   1      27.406 -14.101   2.543  0.00  0.00     0.277 C 
ATOM      8  O   UNL d   1      26.673 -13.150   2.253  0.00  0.00    -0.265 OA
ATOM      9  H   UNL d   1      28.053 -15.969   2.114  0.00  0.00     0.190 HD
BRANCH   7  10
ATOM     10  C   UNL d   1      28.181 -14.210   3.795  0.00  0.00     0.074 A 
ATOM     11  C   UNL d   1      27.737 -14.240   5.114  0.00  0.00     0.025 A 
ATOM     12  C   UNL d   1      28.799 -14.399   6.063  0.00  0.00     0.009 A 
ATOM     13  C   UNL d   1      30.029 -14.440   5.450  0.00  0.00     0.050 A 
ATOM     14  S   UNL d   1      29.896 -14.324   3.744  0.00  0.00    -0.097 SA
ENDBRANCH   7  10
ENDBRANCH   4   6
ENDBRANCH   3   4
BRANCH   3  15
ATOM     15  C   UNL d   1      25.226 -17.066  -0.324  0.00  0.00    -0.008 A 
ATOM     16  C   UNL d   1      24.814 -18.410  -0.140  0.00  0.00     0.016 A 
ATOM     17  C   UNL d   1      23.475 -18.818  -0.317  0.00  0.00     0.037 A 
ATOM     18  C   UNL d   1      22.520 -17.880  -0.683  0.00  0.00     0.065 A 
ATOM     19  C   UNL d   1      22.895 -16.559  -0.895  0.00  0.00     0.037 A 
ATOM     20  C   UNL d   1      24.232 -16.157  -0.719  0.00  0.00     0.016 A 
BRANCH  18  21
ATOM     21  O   UNL d   1      21.203 -18.197  -0.849  0.00  0.00    -0.361 OA
ATOM     22  H   UNL d   1      21.045 -18.487  -1.763  0.00  0.00     0.217 HD
ENDBRANCH  18  21
ENDBRANCH   3  15
TORSDOF 5
ENDMDL
