MODEL 1
REMARK VINA RESULT:    -7.429      0.000      0.000
REMARK INTER + INTRA:          -9.051
REMARK INTER:                  -8.622
REMARK INTRA:                  -0.429
REMARK CONF_INDEPENDENT:        1.193
REMARK UNBOUND:                -0.429
REMARK  4 active torsions:
REMARK  status: ('A' for Active; 'I' for Inactive)
REMARK    1  A    between atoms: C_2  and  C_4 
REMARK    2  A    between atoms: C_2  and  O_3 
REMARK    3  A    between atoms: C_8  and  N_9 
REMARK       I    between atoms: N_9  and  C_10 
REMARK    4  A    between atoms: C_10  and  C_12 
ROOT
ATOM      1  N   UNL d   1      22.969 -18.713  -0.189  0.00  0.00    -0.323 N 
ATOM      2  C   UNL d   1      23.498 -17.464  -0.468  0.00  0.00     0.257 C 
ATOM      3  O   UNL d   1      22.871 -16.419  -0.660  0.00  0.00    -0.267 OA
ATOM      4  H   UNL d   1      23.611 -19.483  -0.029  0.00  0.00     0.169 HD
ENDROOT
BRANCH   1   5
ATOM      5  C   UNL d   1      21.587 -19.021  -0.136  0.00  0.00     0.035 A 
ATOM      6  C   UNL d   1      20.813 -18.947  -1.298  0.00  0.00     0.029 A 
ATOM      7  C   UNL d   1      19.464 -19.325  -1.270  0.00  0.00     0.003 A 
ATOM      8  C   UNL d   1      18.865 -19.711  -0.073  0.00  0.00     0.010 A 
ATOM      9  C   UNL d   1      19.616 -19.773   1.102  0.00  0.00    -0.028 A 
ATOM     10  C   UNL d   1      20.969 -19.425   1.049  0.00  0.00     0.039 A 
BRANCH   9  11
ATOM     11  C   UNL d   1      19.057 -20.294   2.405  0.00  0.00     0.147 C 
ATOM     12  C   UNL d   1      20.170 -20.450   3.432  0.00  0.00     0.044 C 
BRANCH  11  13
ATOM     13  O   UNL d   1      18.410 -21.546   2.207  0.00  0.00    -0.391 OA
ATOM     14  H   UNL d   1      18.754 -22.160   2.872  0.00  0.00     0.210 HD
ENDBRANCH  11  13
ENDBRANCH   9  11
ENDBRANCH   1   5
BRANCH   2  15
ATOM     15  C   UNL d   1      24.964 -17.311  -0.534  0.00  0.00     0.054 A 
ATOM     16  C   UNL d   1      25.714 -18.091   0.372  0.00  0.00     0.020 A 
ATOM     17  C   UNL d   1      27.078 -17.865   0.542  0.00  0.00     0.025 A 
ATOM     18  C   UNL d   1      27.711 -16.906  -0.242  0.00  0.00     0.035 A 
ATOM     19 CL   UNL d   1      29.413 -16.700  -0.125  0.00  0.00    -0.084 Cl
ATOM     20  C   UNL d   1      26.981 -16.133  -1.146  0.00  0.00     0.048 A 
ATOM     21  C   UNL d   1      25.605 -16.328  -1.292  0.00  0.00     0.051 A 
ATOM     22 CL   UNL d   1      24.776 -15.292  -2.397  0.00  0.00    -0.083 Cl
ENDBRANCH   2  15
TORSDOF 4
ENDMDL
MODEL 2
REMARK VINA RESULT:    -7.215      3.821      5.731
REMARK INTER + INTRA:          -8.929
REMARK INTER:                  -8.408
REMARK INTRA:                  -0.521
REMARK CONF_INDEPENDENT:        1.193
REMARK UNBOUND:                -0.521
REMARK  4 active torsions:
REMARK  status: ('A' for Active; 'I' for Inactive)
REMARK    1  A    between atoms: C_2  and  C_4 
REMARK    2  A    between atoms: C_2  and  O_3 
REMARK    3  A    between atoms: C_8  and  N_9 
REMARK       I    between atoms: N_9  and  C_10 
REMARK    4  A    between atoms: C_10  and  C_12 
ROOT
ATOM      1  N   UNL d   1      26.352 -15.932  -2.720  0.00  0.00    -0.323 N 
ATOM      2  C   UNL d   1      25.677 -15.036  -3.533  0.00  0.00     0.257 C 
ATOM      3  O   UNL d   1      24.481 -14.737  -3.475  0.00  0.00    -0.267 OA
ATOM      4  H   UNL d   1      27.347 -16.060  -2.868  0.00  0.00     0.169 HD
ENDROOT
BRANCH   1   5
ATOM      5  C   UNL d   1      25.758 -16.717  -1.702  0.00  0.00     0.035 A 
ATOM      6  C   UNL d   1      26.504 -17.074  -0.574  0.00  0.00     0.029 A 
ATOM      7  C   UNL d   1      25.902 -17.783   0.473  0.00  0.00     0.003 A 
ATOM      8  C   UNL d   1      24.576 -18.201   0.370  0.00  0.00     0.010 A 
ATOM      9  C   UNL d   1      23.820 -17.872  -0.756  0.00  0.00    -0.028 A 
ATOM     10  C   UNL d   1      24.427 -17.134  -1.776  0.00  0.00     0.039 A 
BRANCH   9  11
ATOM     11  C   UNL d   1      22.348 -18.192  -0.876  0.00  0.00     0.147 C 
ATOM     12  C   UNL d   1      21.780 -18.576   0.484  0.00  0.00     0.044 C 
BRANCH  11  13
ATOM     13  O   UNL d   1      22.140 -19.254  -1.799  0.00  0.00    -0.391 OA
ATOM     14  H   UNL d   1      22.984 -19.428  -2.239  0.00  0.00     0.210 HD
ENDBRANCH  11  13
ENDBRANCH   9  11
ENDBRANCH   1   5
BRANCH   2  15
ATOM     15  C   UNL d   1      26.430 -14.324  -4.583  0.00  0.00     0.054 A 
ATOM     16  C   UNL d   1      27.244 -15.121  -5.416  0.00  0.00     0.020 A 
ATOM     17  C   UNL d   1      28.155 -14.532  -6.290  0.00  0.00     0.025 A 
ATOM     18  C   UNL d   1      28.208 -13.146  -6.384  0.00  0.00     0.035 A 
ATOM     19 CL   UNL d   1      29.243 -12.411  -7.542  0.00  0.00    -0.084 Cl
ATOM     20  C   UNL d   1      27.404 -12.347  -5.570  0.00  0.00     0.048 A 
ATOM     21  C   UNL d   1      26.516 -12.932  -4.663  0.00  0.00     0.051 A 
ATOM     22 CL   UNL d   1      25.598 -11.866  -3.662  0.00  0.00    -0.083 Cl
ENDBRANCH   2  15
TORSDOF 4
ENDMDL
MODEL 3
REMARK VINA RESULT:    -7.129      4.255      6.506
REMARK INTER + INTRA:          -8.903
REMARK INTER:                  -8.322
REMARK INTRA:                  -0.581
REMARK CONF_INDEPENDENT:        1.193
REMARK UNBOUND:                -0.581
REMARK  4 active torsions:
REMARK  status: ('A' for Active; 'I' for Inactive)
REMARK    1  A    between atoms: C_2  and  C_4 
REMARK    2  A    between atoms: C_2  and  O_3 
REMARK    3  A    between atoms: C_8  and  N_9 
REMARK       I    between atoms: N_9  and  C_10 
REMARK    4  A    between atoms: C_10  and  C_12 
ROOT
ATOM      1  N   UNL d   1      26.441 -14.930  -2.526  0.00  0.00    -0.323 N 
ATOM      2  C   UNL d   1      26.048 -14.814  -3.849  0.00  0.00     0.257 C 
ATOM      3  O   UNL d   1      25.327 -15.591  -4.480  0.00  0.00    -0.267 OA
ATOM      4  H   UNL d   1      27.019 -14.197  -2.129  0.00  0.00     0.169 HD
ENDROOT
BRANCH   1   5
ATOM      5  C   UNL d   1      26.122 -16.015  -1.672  0.00  0.00     0.035 A 
ATOM      6  C   UNL d   1      26.995 -16.364  -0.636  0.00  0.00     0.029 A 
ATOM      7  C   UNL d   1      26.651 -17.384   0.260  0.00  0.00     0.003 A 
ATOM      8  C   UNL d   1      25.472 -18.107   0.087  0.00  0.00     0.010 A 
ATOM      9  C   UNL d   1      24.597 -17.787  -0.953  0.00  0.00    -0.028 A 
ATOM     10  C   UNL d   1      24.941 -16.744  -1.817  0.00  0.00     0.039 A 
BRANCH   9  11
ATOM     11  C   UNL d   1      23.252 -18.452  -1.124  0.00  0.00     0.147 C 
ATOM     12  C   UNL d   1      22.155 -17.587  -0.519  0.00  0.00     0.044 C 
BRANCH  11  13
ATOM     13  O   UNL d   1      23.245 -19.734  -0.507  0.00  0.00    -0.391 OA
ATOM     14  H   UNL d   1      22.617 -19.699   0.230  0.00  0.00     0.210 HD
ENDBRANCH  11  13
ENDBRANCH   9  11
ENDBRANCH   1   5
BRANCH   2  15
ATOM     15  C   UNL d   1      26.500 -13.642  -4.624  0.00  0.00     0.054 A 
ATOM     16  C   UNL d   1      25.692 -12.488  -4.536  0.00  0.00     0.020 A 
ATOM     17  C   UNL d   1      25.905 -11.408  -5.390  0.00  0.00     0.025 A 
ATOM     18  C   UNL d   1      26.966 -11.450  -6.288  0.00  0.00     0.035 A 
ATOM     19 CL   UNL d   1      27.310 -10.078  -7.264  0.00  0.00    -0.084 Cl
ATOM     20  C   UNL d   1      27.775 -12.583  -6.379  0.00  0.00     0.048 A 
ATOM     21  C   UNL d   1      27.542 -13.686  -5.553  0.00  0.00     0.051 A 
ATOM     22 CL   UNL d   1      28.561 -15.063  -5.771  0.00  0.00    -0.083 Cl
ENDBRANCH   2  15
TORSDOF 4
ENDMDL
MODEL 4
REMARK VINA RESULT:    -6.957      3.356      4.845
REMARK INTER + INTRA:          -8.731
REMARK INTER:                  -8.150
REMARK INTRA:                  -0.581
REMARK CONF_INDEPENDENT:        1.193
REMARK UNBOUND:                -0.581
REMARK  4 active torsions:
REMARK  status: ('A' for Active; 'I' for Inactive)
REMARK    1  A    between atoms: C_2  and  C_4 
REMARK    2  A    between atoms: C_2  and  O_3 
REMARK    3  A    between atoms: C_8  and  N_9 
REMARK       I    between atoms: N_9  and  C_10 
REMARK    4  A    between atoms: C_10  and  C_12 
ROOT
ATOM      1  N   UNL d   1      24.172 -15.621  -1.768  0.00  0.00    -0.323 N 
ATOM      2  C   UNL d   1      25.251 -15.364  -2.597  0.00  0.00     0.257 C 
ATOM      3  O   UNL d   1      26.039 -16.190  -3.067  0.00  0.00    -0.267 OA
ATOM      4  H   UNL d   1      23.593 -14.840  -1.476  0.00  0.00     0.169 HD
ENDROOT
BRANCH   1   5
ATOM      5  C   UNL d   1      23.817 -16.895  -1.261  0.00  0.00     0.035 A 
ATOM      6  C   UNL d   1      24.801 -17.723  -0.710  0.00  0.00     0.029 A 
ATOM      7  C   UNL d   1      24.447 -18.950  -0.136  0.00  0.00     0.003 A 
ATOM      8  C   UNL d   1      23.125 -19.389  -0.169  0.00  0.00     0.010 A 
ATOM      9  C   UNL d   1      22.131 -18.586  -0.732  0.00  0.00    -0.028 A 
ATOM     10  C   UNL d   1      22.497 -17.349  -1.270  0.00  0.00     0.039 A 
BRANCH   9  11
ATOM     11  C   UNL d   1      20.666 -18.951  -0.694  0.00  0.00     0.147 C 
ATOM     12  C   UNL d   1      20.361 -19.785   0.542  0.00  0.00     0.044 C 
BRANCH  11  13
ATOM     13  O   UNL d   1      20.300 -19.676  -1.862  0.00  0.00    -0.391 OA
ATOM     14  H   UNL d   1      19.414 -19.383  -2.122  0.00  0.00     0.210 HD
ENDBRANCH  11  13
ENDBRANCH   9  11
ENDBRANCH   1   5
BRANCH   2  15
ATOM     15  C   UNL d   1      25.519 -13.972  -3.005  0.00  0.00     0.054 A 
ATOM     16  C   UNL d   1      25.138 -13.623  -4.318  0.00  0.00     0.020 A 
ATOM     17  C   UNL d   1      25.539 -12.410  -4.874  0.00  0.00     0.025 A 
ATOM     18  C   UNL d   1      26.264 -11.513  -4.097  0.00  0.00     0.035 A 
ATOM     19 CL   UNL d   1      26.663  -9.967  -4.732  0.00  0.00    -0.084 Cl
ATOM     20  C   UNL d   1      26.642 -11.844  -2.796  0.00  0.00     0.048 A 
ATOM     21  C   UNL d   1      26.277 -13.077  -2.246  0.00  0.00     0.051 A 
ATOM     22 CL   UNL d   1      26.832 -13.421  -0.648  0.00  0.00    -0.083 Cl
ENDBRANCH   2  15
TORSDOF 4
ENDMDL
MODEL 5
REMARK VINA RESULT:    -6.318      5.808      9.341
REMARK INTER + INTRA:          -8.117
REMARK INTER:                  -7.512
REMARK INTRA:                  -0.606
REMARK CONF_INDEPENDENT:        1.193
REMARK UNBOUND:                -0.606
REMARK  4 active torsions:
REMARK  status: ('A' for Active; 'I' for Inactive)
REMARK    1  A    between atoms: C_2  and  C_4 
REMARK    2  A    between atoms: C_2  and  O_3 
REMARK    3  A    between atoms: C_8  and  N_9 
REMARK       I    between atoms: N_9  and  C_10 
REMARK    4  A    between atoms: C_10  and  C_12 
ROOT
ATOM      1  N   UNL d   1      26.313 -13.030  -3.614  0.00  0.00    -0.323 N 
ATOM      2  C   UNL d   1      25.592 -14.204  -3.758  0.00  0.00     0.257 C 
ATOM      3  O   UNL d   1      24.778 -14.469  -4.647  0.00  0.00    -0.267 OA
ATOM      4  H   UNL d   1      26.970 -12.960  -2.843  0.00  0.00     0.169 HD
ENDROOT
BRANCH   1   5
ATOM      5  C   UNL d   1      26.190 -11.889  -4.444  0.00  0.00     0.035 A 
ATOM      6  C   UNL d   1      26.720 -11.911  -5.739  0.00  0.00     0.029 A 
ATOM      7  C   UNL d   1      26.535 -10.817  -6.594  0.00  0.00     0.003 A 
ATOM      8  C   UNL d   1      25.884  -9.671  -6.141  0.00  0.00     0.010 A 
ATOM      9  C   UNL d   1      25.366  -9.621  -4.846  0.00  0.00    -0.028 A 
ATOM     10  C   UNL d   1      25.530 -10.735  -4.018  0.00  0.00     0.039 A 
BRANCH   9  11
ATOM     11  C   UNL d   1      24.550  -8.457  -4.335  0.00  0.00     0.147 C 
ATOM     12  C   UNL d   1      24.020  -7.633  -5.501  0.00  0.00     0.044 C 
BRANCH  11  13
ATOM     13  O   UNL d   1      25.334  -7.630  -3.483  0.00  0.00    -0.391 OA
ATOM     14  H   UNL d   1      24.757  -7.313  -2.773  0.00  0.00     0.210 HD
ENDBRANCH  11  13
ENDBRANCH   9  11
ENDBRANCH   1   5
BRANCH   2  15
ATOM     15  C   UNL d   1      25.799 -15.290  -2.782  0.00  0.00     0.054 A 
ATOM     16  C   UNL d   1      24.675 -15.656  -2.010  0.00  0.00     0.020 A 
ATOM     17  C   UNL d   1      24.813 -16.510  -0.918  0.00  0.00     0.025 A 
ATOM     18  C   UNL d   1      26.060 -17.055  -0.635  0.00  0.00     0.035 A 
ATOM     19 CL   UNL d   1      26.219 -18.200   0.637  0.00  0.00    -0.084 Cl
ATOM     20  C   UNL d   1      27.178 -16.705  -1.394  0.00  0.00     0.048 A 
ATOM     21  C   UNL d   1      27.053 -15.817  -2.466  0.00  0.00     0.051 A 
ATOM     22 CL   UNL d   1      28.497 -15.403  -3.317  0.00  0.00    -0.083 Cl
ENDBRANCH   2  15
TORSDOF 4
ENDMDL
MODEL 6
REMARK VINA RESULT:    -6.280      5.616      7.547
REMARK INTER + INTRA:          -7.988
REMARK INTER:                  -7.473
REMARK INTRA:                  -0.515
REMARK CONF_INDEPENDENT:        1.193
REMARK UNBOUND:                -0.515
REMARK  4 active torsions:
REMARK  status: ('A' for Active; 'I' for Inactive)
REMARK    1  A    between atoms: C_2  and  C_4 
REMARK    2  A    between atoms: C_2  and  O_3 
REMARK    3  A    between atoms: C_8  and  N_9 
REMARK       I    between atoms: N_9  and  C_10 
REMARK    4  A    between atoms: C_10  and  C_12 
ROOT
ATOM      1  N   UNL d   1      27.108 -14.927   1.035  0.00  0.00    -0.323 N 
ATOM      2  C   UNL d   1      26.779 -13.739   1.668  0.00  0.00     0.257 C 
ATOM      3  O   UNL d   1      25.906 -12.935   1.328  0.00  0.00    -0.267 OA
ATOM      4  H   UNL d   1      27.836 -15.504   1.444  0.00  0.00     0.169 HD
ENDROOT
BRANCH   1   5
ATOM      5  C   UNL d   1      26.527 -15.400  -0.167  0.00  0.00     0.035 A 
ATOM      6  C   UNL d   1      25.980 -16.686  -0.216  0.00  0.00     0.029 A 
ATOM      7  C   UNL d   1      25.334 -17.132  -1.376  0.00  0.00     0.003 A 
ATOM      8  C   UNL d   1      25.293 -16.328  -2.513  0.00  0.00     0.010 A 
ATOM      9  C   UNL d   1      25.850 -15.048  -2.491  0.00  0.00    -0.028 A 
ATOM     10  C   UNL d   1      26.460 -14.607  -1.314  0.00  0.00     0.039 A 
BRANCH   9  11
ATOM     11  C   UNL d   1      25.734 -14.085  -3.649  0.00  0.00     0.147 C 
ATOM     12  C   UNL d   1      25.527 -12.667  -3.136  0.00  0.00     0.044 C 
BRANCH  11  13
ATOM     13  O   UNL d   1      24.652 -14.449  -4.498  0.00  0.00    -0.391 OA
ATOM     14  H   UNL d   1      24.416 -13.669  -5.020  0.00  0.00     0.210 HD
ENDBRANCH  11  13
ENDBRANCH   9  11
ENDBRANCH   1   5
BRANCH   2  15
ATOM     15  C   UNL d   1      27.508 -13.360   2.893  0.00  0.00     0.054 A 
ATOM     16  C   UNL d   1      27.795 -14.406   3.796  0.00  0.00     0.020 A 
ATOM     17  C   UNL d   1      28.282 -14.127   5.072  0.00  0.00     0.025 A 
ATOM     18  C   UNL d   1      28.547 -12.808   5.425  0.00  0.00     0.035 A 
ATOM     19 CL   UNL d   1      29.257 -12.463   6.951  0.00  0.00    -0.084 Cl
ATOM     20  C   UNL d   1      28.273 -11.767   4.538  0.00  0.00     0.048 A 
ATOM     21  C   UNL d   1      27.747 -12.037   3.271  0.00  0.00     0.051 A 
ATOM     22 CL   UNL d   1      27.393 -10.683   2.261  0.00  0.00    -0.083 Cl
ENDBRANCH   2  15
TORSDOF 4
ENDMDL
MODEL 7
REMARK VINA RESULT:    -6.259      4.113      8.739
REMARK INTER + INTRA:          -7.944
REMARK INTER:                  -7.452
REMARK INTRA:                  -0.492
REMARK CONF_INDEPENDENT:        1.193
REMARK UNBOUND:                -0.492
REMARK  4 active torsions:
REMARK  status: ('A' for Active; 'I' for Inactive)
REMARK    1  A    between atoms: C_2  and  C_4 
REMARK    2  A    between atoms: C_2  and  O_3 
REMARK    3  A    between atoms: C_8  and  N_9 
REMARK       I    between atoms: N_9  and  C_10 
REMARK    4  A    between atoms: C_10  and  C_12 
ROOT
ATOM      1  N   UNL d   1      25.346 -15.336  -2.743  0.00  0.00    -0.323 N 
ATOM      2  C   UNL d   1      25.446 -15.905  -1.484  0.00  0.00     0.257 C 
ATOM      3  O   UNL d   1      26.320 -15.689  -0.640  0.00  0.00    -0.267 OA
ATOM      4  H   UNL d   1      24.554 -15.590  -3.324  0.00  0.00     0.169 HD
ENDROOT
BRANCH   1   5
ATOM      5  C   UNL d   1      26.282 -14.436  -3.308  0.00  0.00     0.035 A 
ATOM      6  C   UNL d   1      26.346 -13.117  -2.845  0.00  0.00     0.029 A 
ATOM      7  C   UNL d   1      27.321 -12.243  -3.344  0.00  0.00     0.003 A 
ATOM      8  C   UNL d   1      28.188 -12.657  -4.354  0.00  0.00     0.010 A 
ATOM      9  C   UNL d   1      28.127 -13.963  -4.843  0.00  0.00    -0.028 A 
ATOM     10  C   UNL d   1      27.170 -14.831  -4.310  0.00  0.00     0.039 A 
BRANCH   9  11
ATOM     11  C   UNL d   1      29.113 -14.506  -5.850  0.00  0.00     0.147 C 
ATOM     12  C   UNL d   1      29.938 -13.372  -6.444  0.00  0.00     0.044 C 
BRANCH  11  13
ATOM     13  O   UNL d   1      28.435 -15.201  -6.891  0.00  0.00    -0.391 OA
ATOM     14  H   UNL d   1      28.932 -15.055  -7.709  0.00  0.00     0.210 HD
ENDBRANCH  11  13
ENDBRANCH   9  11
ENDBRANCH   1   5
BRANCH   2  15
ATOM     15  C   UNL d   1      24.411 -16.864  -1.053  0.00  0.00     0.054 A 
ATOM     16  C   UNL d   1      23.072 -16.476  -1.271  0.00  0.00     0.020 A 
ATOM     17  C   UNL d   1      22.023 -17.202  -0.710  0.00  0.00     0.025 A 
ATOM     18  C   UNL d   1      22.306 -18.355   0.014  0.00  0.00     0.035 A 
ATOM     19 CL   UNL d   1      21.016 -19.322   0.610  0.00  0.00    -0.084 Cl
ATOM     20  C   UNL d   1      23.625 -18.753   0.230  0.00  0.00     0.048 A 
ATOM     21  C   UNL d   1      24.684 -18.007  -0.296  0.00  0.00     0.051 A 
ATOM     22 CL   UNL d   1      26.283 -18.545   0.065  0.00  0.00    -0.083 Cl
ENDBRANCH   2  15
TORSDOF 4
ENDMDL
MODEL 8
REMARK VINA RESULT:    -5.933      4.433      6.709
REMARK INTER + INTRA:          -7.735
REMARK INTER:                  -7.126
REMARK INTRA:                  -0.609
REMARK CONF_INDEPENDENT:        1.193
REMARK UNBOUND:                -0.609
REMARK  4 active torsions:
REMARK  status: ('A' for Active; 'I' for Inactive)
REMARK    1  A    between atoms: C_2  and  C_4 
REMARK    2  A    between atoms: C_2  and  O_3 
REMARK    3  A    between atoms: C_8  and  N_9 
REMARK       I    between atoms: N_9  and  C_10 
REMARK    4  A    between atoms: C_10  and  C_12 
ROOT
ATOM      1  N   UNL d   1      27.666 -15.566   1.452  0.00  0.00    -0.323 N 
ATOM      2  C   UNL d   1      27.491 -14.456   2.262  0.00  0.00     0.257 C 
ATOM      3  O   UNL d   1      26.667 -13.550   2.111  0.00  0.00    -0.267 OA
ATOM      4  H   UNL d   1      28.372 -16.247   1.714  0.00  0.00     0.169 HD
ENDROOT
BRANCH   1   5
ATOM      5  C   UNL d   1      26.952 -15.825   0.256  0.00  0.00     0.035 A 
ATOM      6  C   UNL d   1      27.367 -15.234  -0.943  0.00  0.00     0.029 A 
ATOM      7  C   UNL d   1      26.716 -15.546  -2.143  0.00  0.00     0.003 A 
ATOM      8  C   UNL d   1      25.607 -16.390  -2.144  0.00  0.00     0.010 A 
ATOM      9  C   UNL d   1      25.165 -16.974  -0.956  0.00  0.00    -0.028 A 
ATOM     10  C   UNL d   1      25.848 -16.678   0.227  0.00  0.00     0.039 A 
BRANCH   9  11
ATOM     11  C   UNL d   1      24.045 -17.986  -0.908  0.00  0.00     0.147 C 
ATOM     12  C   UNL d   1      22.715 -17.290  -0.653  0.00  0.00     0.044 C 
BRANCH  11  13
ATOM     13  O   UNL d   1      24.283 -18.950   0.111  0.00  0.00    -0.391 OA
ATOM     14  H   UNL d   1      23.447 -19.093   0.578  0.00  0.00     0.210 HD
ENDBRANCH  11  13
ENDBRANCH   9  11
ENDBRANCH   1   5
BRANCH   2  15
ATOM     15  C   UNL d   1      28.346 -14.305   3.454  0.00  0.00     0.054 A 
ATOM     16  C   UNL d   1      27.782 -14.715   4.681  0.00  0.00     0.020 A 
ATOM     17  C   UNL d   1      28.414 -14.416   5.887  0.00  0.00     0.025 A 
ATOM     18  C   UNL d   1      29.643 -13.767   5.867  0.00  0.00     0.035 A 
ATOM     19 CL   UNL d   1      30.487 -13.498   7.340  0.00  0.00    -0.084 Cl
ATOM     20  C   UNL d   1      30.214 -13.361   4.660  0.00  0.00     0.048 A 
ATOM     21  C   UNL d   1      29.566 -13.623   3.449  0.00  0.00     0.051 A 
ATOM     22 CL   UNL d   1      30.320 -13.040   2.010  0.00  0.00    -0.083 Cl
ENDBRANCH   2  15
TORSDOF 4
ENDMDL
MODEL 9
REMARK VINA RESULT:    -5.754      5.315      9.753
REMARK INTER + INTRA:          -7.592
REMARK INTER:                  -6.947
REMARK INTRA:                  -0.645
REMARK CONF_INDEPENDENT:        1.193
REMARK UNBOUND:                -0.645
REMARK  4 active torsions:
REMARK  status: ('A' for Active; 'I' for Inactive)
REMARK    1  A    between atoms: C_2  and  C_4 
REMARK    2  A    between atoms: C_2  and  O_3 
REMARK    3  A    between atoms: C_8  and  N_9 
REMARK       I    between atoms: N_9  and  C_10 
REMARK    4  A    between atoms: C_10  and  C_12 
ROOT
ATOM      1  N   UNL d   1      27.362 -15.555  -4.358  0.00  0.00    -0.323 N 
ATOM      2  C   UNL d   1      27.464 -15.441  -2.982  0.00  0.00     0.257 C 
ATOM      3  O   UNL d   1      28.400 -14.949  -2.345  0.00  0.00    -0.267 OA
ATOM      4  H   UNL d   1      26.517 -15.962  -4.746  0.00  0.00     0.169 HD
ENDROOT
BRANCH   1   5
ATOM      5  C   UNL d   1      28.362 -15.171  -5.285  0.00  0.00     0.035 A 
ATOM      6  C   UNL d   1      29.518 -15.947  -5.421  0.00  0.00     0.029 A 
ATOM      7  C   UNL d   1      30.475 -15.619  -6.391  0.00  0.00     0.003 A 
ATOM      8  C   UNL d   1      30.318 -14.480  -7.179  0.00  0.00     0.010 A 
ATOM      9  C   UNL d   1      29.181 -13.682  -7.045  0.00  0.00    -0.028 A 
ATOM     10  C   UNL d   1      28.220 -14.043  -6.096  0.00  0.00     0.039 A 
BRANCH   9  11
ATOM     11  C   UNL d   1      28.896 -12.505  -7.947  0.00  0.00     0.147 C 
ATOM     12  C   UNL d   1      27.759 -11.668  -7.378  0.00  0.00     0.044 C 
BRANCH  11  13
ATOM     13  O   UNL d   1      28.557 -12.947  -9.256  0.00  0.00    -0.391 OA
ATOM     14  H   UNL d   1      28.497 -13.913  -9.231  0.00  0.00     0.210 HD
ENDBRANCH  11  13
ENDBRANCH   9  11
ENDBRANCH   1   5
BRANCH   2  15
ATOM     15  C   UNL d   1      26.353 -15.930  -2.143  0.00  0.00     0.054 A 
ATOM     16  C   UNL d   1      26.618 -17.074  -1.362  0.00  0.00     0.020 A 
ATOM     17  C   UNL d   1      25.584 -17.741  -0.707  0.00  0.00     0.025 A 
ATOM     18  C   UNL d   1      24.294 -17.228  -0.776  0.00  0.00     0.035 A 
ATOM     19 CL   UNL d   1      23.033 -17.974   0.122  0.00  0.00    -0.084 Cl
ATOM     20  C   UNL d   1      24.020 -16.093  -1.541  0.00  0.00     0.048 A 
ATOM     21  C   UNL d   1      25.046 -15.443  -2.232  0.00  0.00     0.051 A 
ATOM     22 CL   UNL d   1      24.606 -14.078  -3.193  0.00  0.00    -0.083 Cl
ENDBRANCH   2  15
TORSDOF 4
ENDMDL
