MODEL 1
REMARK VINA RESULT:    -8.309      0.000      0.000
REMARK INTER + INTRA:         -11.033
REMARK INTER:                 -10.099
REMARK INTRA:                  -0.934
REMARK CONF_INDEPENDENT:        1.790
REMARK UNBOUND:                -0.934
REMARK  6 active torsions:
REMARK  status: ('A' for Active; 'I' for Inactive)
REMARK       I    between atoms: N_6  and  C_7 
REMARK    1  A    between atoms: C_7  and  C_9 
REMARK    2  A    between atoms: C_11  and  N_12 
REMARK    3  A    between atoms: N_12  and  S_13 
REMARK    4  A    between atoms: S_13  and  C_16 
REMARK    5  A    between atoms: C_20  and  N_21 
REMARK    6  A    between atoms: C_27  and  O_28 
ROOT
ATOM      1  C   UNL d   1      26.005 -15.770  -1.119  0.00  0.00     0.067 A 
ATOM      2  C   UNL d   1      24.828 -16.323  -0.551  0.00  0.00     0.050 A 
ATOM      3  C   UNL d   1      24.831 -17.625  -0.010  0.00  0.00     0.043 A 
ATOM      4  C   UNL d   1      26.036 -18.341  -0.030  0.00  0.00     0.033 A 
ATOM      5  C   UNL d   1      27.208 -17.790  -0.555  0.00  0.00     0.040 A 
ATOM      6  C   UNL d   1      27.194 -16.504  -1.078  0.00  0.00     0.081 A 
ENDROOT
BRANCH   3   7
ATOM      7  N   UNL d   1      23.616 -18.198   0.531  0.00  0.00    -0.281 N 
ATOM      8  H   UNL d   1      23.605 -18.551   1.483  0.00  0.00     0.179 HD
BRANCH   7   9
ATOM      9  S   UNL d   1      22.209 -18.283  -0.403  0.00  0.00     0.263 S 
ATOM     10  O   UNL d   1      21.807 -16.920  -0.696  0.00  0.00    -0.200 OA
ATOM     11  O   UNL d   1      22.422 -19.238  -1.465  0.00  0.00    -0.200 OA
BRANCH   9  12
ATOM     12  C   UNL d   1      20.921 -18.975   0.621  0.00  0.00     0.082 A 
ATOM     13  C   UNL d   1      21.035 -18.952   2.014  0.00  0.00     0.025 A 
ATOM     14  C   UNL d   1      20.139 -19.698   2.792  0.00  0.00     0.004 A 
ATOM     15  C   UNL d   1      19.101 -20.418   2.191  0.00  0.00     0.036 A 
ATOM     16  C   UNL d   1      18.991 -20.433   0.795  0.00  0.00     0.104 A 
ATOM     17  C   UNL d   1      19.900 -19.716   0.004  0.00  0.00     0.061 A 
BRANCH  16  18
ATOM     18  N   UNL d   1      17.955 -21.257   0.155  0.00  0.00    -0.116 N 
ATOM     19  O   UNL d   1      17.649 -22.327   0.699  0.00  0.00    -0.532 OA
ATOM     20  O   UNL d   1      17.451 -20.834  -0.895  0.00  0.00    -0.532 OA
ENDBRANCH  16  18
ENDBRANCH   9  12
ENDBRANCH   7   9
ENDBRANCH   3   7
BRANCH   1  21
ATOM     21  C   UNL d   1      25.987 -14.387  -1.696  0.00  0.00     0.256 C 
ATOM     22  N   UNL d   1      25.939 -14.203  -3.088  0.00  0.00    -0.348 N 
ATOM     23  C   UNL d   1      25.868 -15.268  -4.085  0.00  0.00     0.126 C 
ATOM     24  C   UNL d   1      25.982 -12.855  -3.670  0.00  0.00     0.130 C 
ATOM     25  C   UNL d   1      27.062 -15.201  -5.040  0.00  0.00     0.020 C 
ATOM     26  C   UNL d   1      27.169 -13.820  -5.685  0.00  0.00     0.007 C 
ATOM     27  C   UNL d   1      27.173 -12.693  -4.638  0.00  0.00    -0.001 C 
ATOM     28  C   UNL d   1      28.490 -12.629  -3.861  0.00  0.00     0.011 C 
ATOM     29  O   UNL d   1      25.997 -13.453  -0.895  0.00  0.00    -0.267 OA
ENDBRANCH   1  21
BRANCH   6  30
ATOM     30  O   UNL d   1      28.355 -15.963  -1.548  0.00  0.00    -0.360 OA
ATOM     31  H   UNL d   1      28.981 -15.820  -0.819  0.00  0.00     0.217 HD
ENDBRANCH   6  30
TORSDOF 6
ENDMDL
MODEL 2
REMARK VINA RESULT:    -7.985      4.667      6.585
REMARK INTER + INTRA:         -11.229
REMARK INTER:                  -9.775
REMARK INTRA:                  -1.453
REMARK CONF_INDEPENDENT:        1.790
REMARK UNBOUND:                -1.453
REMARK  6 active torsions:
REMARK  status: ('A' for Active; 'I' for Inactive)
REMARK       I    between atoms: N_6  and  C_7 
REMARK    1  A    between atoms: C_7  and  C_9 
REMARK    2  A    between atoms: C_11  and  N_12 
REMARK    3  A    between atoms: N_12  and  S_13 
REMARK    4  A    between atoms: S_13  and  C_16 
REMARK    5  A    between atoms: C_20  and  N_21 
REMARK    6  A    between atoms: C_27  and  O_28 
ROOT
ATOM      1  C   UNL d   1      28.274 -14.323   2.043  0.00  0.00     0.067 A 
ATOM      2  C   UNL d   1      27.202 -14.142   1.130  0.00  0.00     0.050 A 
ATOM      3  C   UNL d   1      27.439 -14.087  -0.258  0.00  0.00     0.043 A 
ATOM      4  C   UNL d   1      28.758 -14.240  -0.706  0.00  0.00     0.033 A 
ATOM      5  C   UNL d   1      29.814 -14.454   0.184  0.00  0.00     0.040 A 
ATOM      6  C   UNL d   1      29.568 -14.514   1.549  0.00  0.00     0.081 A 
ENDROOT
BRANCH   3   7
ATOM      7  N   UNL d   1      26.345 -13.862  -1.181  0.00  0.00    -0.281 N 
ATOM      8  H   UNL d   1      25.901 -12.950  -1.225  0.00  0.00     0.179 HD
BRANCH   7   9
ATOM      9  S   UNL d   1      25.799 -15.102  -2.193  0.00  0.00     0.263 S 
ATOM     10  O   UNL d   1      24.760 -14.539  -3.035  0.00  0.00    -0.200 OA
ATOM     11  O   UNL d   1      26.948 -15.759  -2.772  0.00  0.00    -0.200 OA
BRANCH   9  12
ATOM     12  C   UNL d   1      25.004 -16.327  -1.168  0.00  0.00     0.082 A 
ATOM     13  C   UNL d   1      25.741 -17.043  -0.220  0.00  0.00     0.025 A 
ATOM     14  C   UNL d   1      25.162 -18.154   0.409  0.00  0.00     0.004 A 
ATOM     15  C   UNL d   1      23.838 -18.516   0.138  0.00  0.00     0.036 A 
ATOM     16  C   UNL d   1      23.105 -17.792  -0.810  0.00  0.00     0.104 A 
ATOM     17  C   UNL d   1      23.684 -16.698  -1.469  0.00  0.00     0.061 A 
BRANCH  16  18
ATOM     18  N   UNL d   1      21.743 -18.221  -1.161  0.00  0.00    -0.116 N 
ATOM     19  O   UNL d   1      21.608 -19.326  -1.706  0.00  0.00    -0.532 OA
ATOM     20  O   UNL d   1      20.810 -17.450  -0.895  0.00  0.00    -0.532 OA
ENDBRANCH  16  18
ENDBRANCH   9  12
ENDBRANCH   7   9
ENDBRANCH   3   7
BRANCH   1  21
ATOM     21  C   UNL d   1      28.010 -14.374   3.517  0.00  0.00     0.256 C 
ATOM     22  N   UNL d   1      27.687 -13.201   4.218  0.00  0.00    -0.348 N 
ATOM     23  C   UNL d   1      27.542 -11.871   3.631  0.00  0.00     0.126 C 
ATOM     24  C   UNL d   1      27.485 -13.226   5.673  0.00  0.00     0.130 C 
ATOM     25  C   UNL d   1      28.527 -10.885   4.264  0.00  0.00     0.020 C 
ATOM     26  C   UNL d   1      28.371 -10.858   5.784  0.00  0.00     0.007 C 
ATOM     27  C   UNL d   1      28.454 -12.267   6.397  0.00  0.00    -0.001 C 
ATOM     28  C   UNL d   1      29.879 -12.827   6.372  0.00  0.00     0.011 C 
ATOM     29  O   UNL d   1      28.073 -15.481   4.052  0.00  0.00    -0.267 OA
ENDBRANCH   1  21
BRANCH   6  30
ATOM     30  O   UNL d   1      30.602 -14.766   2.403  0.00  0.00    -0.360 OA
ATOM     31  H   UNL d   1      30.280 -15.223   3.198  0.00  0.00     0.217 HD
ENDBRANCH   6  30
TORSDOF 6
ENDMDL
MODEL 3
REMARK VINA RESULT:    -7.731      4.583      9.037
REMARK INTER + INTRA:         -11.226
REMARK INTER:                  -9.521
REMARK INTRA:                  -1.706
REMARK CONF_INDEPENDENT:        1.790
REMARK UNBOUND:                -1.706
REMARK  6 active torsions:
REMARK  status: ('A' for Active; 'I' for Inactive)
REMARK       I    between atoms: N_6  and  C_7 
REMARK    1  A    between atoms: C_7  and  C_9 
REMARK    2  A    between atoms: C_11  and  N_12 
REMARK    3  A    between atoms: N_12  and  S_13 
REMARK    4  A    between atoms: S_13  and  C_16 
REMARK    5  A    between atoms: C_20  and  N_21 
REMARK    6  A    between atoms: C_27  and  O_28 
ROOT
ATOM      1  C   UNL d   1      26.181 -14.597  -2.973  0.00  0.00     0.067 A 
ATOM      2  C   UNL d   1      27.035 -13.699  -2.280  0.00  0.00     0.050 A 
ATOM      3  C   UNL d   1      28.238 -13.253  -2.863  0.00  0.00     0.043 A 
ATOM      4  C   UNL d   1      28.549 -13.704  -4.153  0.00  0.00     0.033 A 
ATOM      5  C   UNL d   1      27.696 -14.559  -4.857  0.00  0.00     0.040 A 
ATOM      6  C   UNL d   1      26.510 -14.986  -4.276  0.00  0.00     0.081 A 
ENDROOT
BRANCH   3   7
ATOM      7  N   UNL d   1      29.124 -12.370  -2.134  0.00  0.00    -0.281 N 
ATOM      8  H   UNL d   1      30.042 -12.697  -1.848  0.00  0.00     0.179 HD
BRANCH   7   9
ATOM      9  S   UNL d   1      28.650 -10.792  -1.753  0.00  0.00     0.263 S 
ATOM     10  O   UNL d   1      29.860 -10.003  -1.615  0.00  0.00    -0.200 OA
ATOM     11  O   UNL d   1      27.606 -10.394  -2.669  0.00  0.00    -0.200 OA
BRANCH   9  12
ATOM     12  C   UNL d   1      27.891 -10.830  -0.138  0.00  0.00     0.082 A 
ATOM     13  C   UNL d   1      27.637 -12.049   0.497  0.00  0.00     0.025 A 
ATOM     14  C   UNL d   1      26.837 -12.075   1.647  0.00  0.00     0.004 A 
ATOM     15  C   UNL d   1      26.339 -10.888   2.196  0.00  0.00     0.036 A 
ATOM     16  C   UNL d   1      26.600  -9.670   1.556  0.00  0.00     0.104 A 
ATOM     17  C   UNL d   1      27.373  -9.635   0.387  0.00  0.00     0.061 A 
BRANCH  16  18
ATOM     18  N   UNL d   1      26.008  -8.430   2.081  0.00  0.00    -0.116 N 
ATOM     19  O   UNL d   1      26.394  -8.030   3.189  0.00  0.00    -0.532 OA
ATOM     20  O   UNL d   1      25.155  -7.862   1.386  0.00  0.00    -0.532 OA
ENDBRANCH  16  18
ENDBRANCH   9  12
ENDBRANCH   7   9
ENDBRANCH   3   7
BRANCH   1  21
ATOM     21  C   UNL d   1      24.907 -15.068  -2.340  0.00  0.00     0.256 C 
ATOM     22  N   UNL d   1      24.942 -15.789  -1.135  0.00  0.00    -0.348 N 
ATOM     23  C   UNL d   1      26.145 -16.118  -0.375  0.00  0.00     0.126 C 
ATOM     24  C   UNL d   1      23.706 -16.309  -0.534  0.00  0.00     0.130 C 
ATOM     25  C   UNL d   1      26.294 -17.634  -0.220  0.00  0.00     0.020 C 
ATOM     26  C   UNL d   1      25.039 -18.244   0.403  0.00  0.00     0.007 C 
ATOM     27  C   UNL d   1      23.763 -17.840  -0.357  0.00  0.00    -0.001 C 
ATOM     28  C   UNL d   1      23.650 -18.542  -1.713  0.00  0.00     0.011 C 
ATOM     29  O   UNL d   1      23.861 -14.774  -2.917  0.00  0.00    -0.267 OA
ENDBRANCH   1  21
BRANCH   6  30
ATOM     30  O   UNL d   1      25.667 -15.786  -4.990  0.00  0.00    -0.360 OA
ATOM     31  H   UNL d   1      24.783 -15.791  -4.587  0.00  0.00     0.217 HD
ENDBRANCH   6  30
TORSDOF 6
ENDMDL
MODEL 4
REMARK VINA RESULT:    -7.665      5.422      9.495
REMARK INTER + INTRA:         -11.336
REMARK INTER:                  -9.455
REMARK INTRA:                  -1.881
REMARK CONF_INDEPENDENT:        1.790
REMARK UNBOUND:                -1.881
REMARK  6 active torsions:
REMARK  status: ('A' for Active; 'I' for Inactive)
REMARK       I    between atoms: N_6  and  C_7 
REMARK    1  A    between atoms: C_7  and  C_9 
REMARK    2  A    between atoms: C_11  and  N_12 
REMARK    3  A    between atoms: N_12  and  S_13 
REMARK    4  A    between atoms: S_13  and  C_16 
REMARK    5  A    between atoms: C_20  and  N_21 
REMARK    6  A    between atoms: C_27  and  O_28 
ROOT
ATOM      1  C   UNL d   1      26.144 -13.893  -3.872  0.00  0.00     0.067 A 
ATOM      2  C   UNL d   1      25.606 -12.624  -3.537  0.00  0.00     0.050 A 
ATOM      3  C   UNL d   1      25.925 -11.482  -4.299  0.00  0.00     0.043 A 
ATOM      4  C   UNL d   1      26.767 -11.646  -5.407  0.00  0.00     0.033 A 
ATOM      5  C   UNL d   1      27.273 -12.899  -5.764  0.00  0.00     0.040 A 
ATOM      6  C   UNL d   1      26.946 -14.018  -5.011  0.00  0.00     0.081 A 
ENDROOT
BRANCH   3   7
ATOM      7  N   UNL d   1      25.404 -10.183  -3.927  0.00  0.00    -0.281 N 
ATOM      8  H   UNL d   1      24.405 -10.003  -3.985  0.00  0.00     0.179 HD
BRANCH   7   9
ATOM      9  S   UNL d   1      26.438  -8.957  -3.391  0.00  0.00     0.263 S 
ATOM     10  O   UNL d   1      27.671  -9.078  -4.146  0.00  0.00    -0.200 OA
ATOM     11  O   UNL d   1      25.701  -7.714  -3.369  0.00  0.00    -0.200 OA
BRANCH   9  12
ATOM     12  C   UNL d   1      26.854  -9.305  -1.692  0.00  0.00     0.082 A 
ATOM     13  C   UNL d   1      27.482 -10.505  -1.348  0.00  0.00     0.025 A 
ATOM     14  C   UNL d   1      27.591 -10.865   0.003  0.00  0.00     0.004 A 
ATOM     15  C   UNL d   1      27.129 -10.009   1.008  0.00  0.00     0.036 A 
ATOM     16  C   UNL d   1      26.504  -8.806   0.656  0.00  0.00     0.104 A 
ATOM     17  C   UNL d   1      26.361  -8.450  -0.692  0.00  0.00     0.061 A 
BRANCH  16  18
ATOM     18  N   UNL d   1      25.940  -7.944   1.705  0.00  0.00    -0.116 N 
ATOM     19  O   UNL d   1      26.280  -8.163   2.877  0.00  0.00    -0.532 OA
ATOM     20  O   UNL d   1      25.155  -7.052   1.357  0.00  0.00    -0.532 OA
ENDBRANCH  16  18
ENDBRANCH   9  12
ENDBRANCH   7   9
ENDBRANCH   3   7
BRANCH   1  21
ATOM     21  C   UNL d   1      25.802 -15.099  -3.050  0.00  0.00     0.256 C 
ATOM     22  N   UNL d   1      25.934 -15.062  -1.652  0.00  0.00    -0.348 N 
ATOM     23  C   UNL d   1      26.361 -13.906  -0.868  0.00  0.00     0.126 C 
ATOM     24  C   UNL d   1      25.661 -16.254  -0.839  0.00  0.00     0.130 C 
ATOM     25  C   UNL d   1      27.619 -14.228  -0.060  0.00  0.00     0.020 C 
ATOM     26  C   UNL d   1      27.405 -15.464   0.814  0.00  0.00     0.007 C 
ATOM     27  C   UNL d   1      26.889 -16.664  -0.000  0.00  0.00    -0.001 C 
ATOM     28  C   UNL d   1      27.975 -17.265  -0.897  0.00  0.00     0.011 C 
ATOM     29  O   UNL d   1      25.392 -16.086  -3.660  0.00  0.00    -0.267 OA
ENDBRANCH   1  21
BRANCH   6  30
ATOM     30  O   UNL d   1      27.411 -15.241  -5.396  0.00  0.00    -0.360 OA
ATOM     31  H   UNL d   1      26.798 -15.940  -5.115  0.00  0.00     0.217 HD
ENDBRANCH   6  30
TORSDOF 6
ENDMDL
MODEL 5
REMARK VINA RESULT:    -7.545      5.428     10.033
REMARK INTER + INTRA:         -10.732
REMARK INTER:                  -9.335
REMARK INTRA:                  -1.397
REMARK CONF_INDEPENDENT:        1.790
REMARK UNBOUND:                -1.397
REMARK  6 active torsions:
REMARK  status: ('A' for Active; 'I' for Inactive)
REMARK       I    between atoms: N_6  and  C_7 
REMARK    1  A    between atoms: C_7  and  C_9 
REMARK    2  A    between atoms: C_11  and  N_12 
REMARK    3  A    between atoms: N_12  and  S_13 
REMARK    4  A    between atoms: S_13  and  C_16 
REMARK    5  A    between atoms: C_20  and  N_21 
REMARK    6  A    between atoms: C_27  and  O_28 
ROOT
ATOM      1  C   UNL d   1      26.113 -13.876  -3.967  0.00  0.00     0.067 A 
ATOM      2  C   UNL d   1      25.598 -12.580  -3.705  0.00  0.00     0.050 A 
ATOM      3  C   UNL d   1      25.966 -11.481  -4.507  0.00  0.00     0.043 A 
ATOM      4  C   UNL d   1      26.833 -11.716  -5.583  0.00  0.00     0.033 A 
ATOM      5  C   UNL d   1      27.317 -12.995  -5.870  0.00  0.00     0.040 A 
ATOM      6  C   UNL d   1      26.941 -14.071  -5.077  0.00  0.00     0.081 A 
ENDROOT
BRANCH   3   7
ATOM      7  N   UNL d   1      25.469 -10.154  -4.208  0.00  0.00    -0.281 N 
ATOM      8  H   UNL d   1      24.469  -9.975  -4.221  0.00  0.00     0.179 HD
BRANCH   7   9
ATOM      9  S   UNL d   1      26.533  -8.896  -3.832  0.00  0.00     0.263 S 
ATOM     10  O   UNL d   1      27.619  -9.470  -3.060  0.00  0.00    -0.200 OA
ATOM     11  O   UNL d   1      26.797  -8.144  -5.037  0.00  0.00    -0.200 OA
BRANCH   9  12
ATOM     12  C   UNL d   1      25.679  -7.774  -2.738  0.00  0.00     0.082 A 
ATOM     13  C   UNL d   1      25.237  -6.532  -3.202  0.00  0.00     0.025 A 
ATOM     14  C   UNL d   1      24.781  -5.575  -2.284  0.00  0.00     0.004 A 
ATOM     15  C   UNL d   1      24.712  -5.873  -0.919  0.00  0.00     0.036 A 
ATOM     16  C   UNL d   1      25.154  -7.120  -0.462  0.00  0.00     0.104 A 
ATOM     17  C   UNL d   1      25.642  -8.074  -1.366  0.00  0.00     0.061 A 
BRANCH  16  18
ATOM     18  N   UNL d   1      25.164  -7.407   0.980  0.00  0.00    -0.116 N 
ATOM     19  O   UNL d   1      25.529  -6.503   1.746  0.00  0.00    -0.532 OA
ATOM     20  O   UNL d   1      24.810  -8.536   1.345  0.00  0.00    -0.532 OA
ENDBRANCH  16  18
ENDBRANCH   9  12
ENDBRANCH   7   9
ENDBRANCH   3   7
BRANCH   1  21
ATOM     21  C   UNL d   1      25.718 -15.035  -3.103  0.00  0.00     0.256 C 
ATOM     22  N   UNL d   1      25.880 -14.964  -1.710  0.00  0.00    -0.348 N 
ATOM     23  C   UNL d   1      26.387 -13.811  -0.969  0.00  0.00     0.126 C 
ATOM     24  C   UNL d   1      25.554 -16.113  -0.856  0.00  0.00     0.130 C 
ATOM     25  C   UNL d   1      27.641 -14.182  -0.174  0.00  0.00     0.020 C 
ATOM     26  C   UNL d   1      27.374 -15.377   0.740  0.00  0.00     0.007 C 
ATOM     27  C   UNL d   1      26.774 -16.568  -0.027  0.00  0.00    -0.001 C 
ATOM     28  C   UNL d   1      27.805 -17.258  -0.924  0.00  0.00     0.011 C 
ATOM     29  O   UNL d   1      25.240 -16.014  -3.675  0.00  0.00    -0.267 OA
ENDBRANCH   1  21
BRANCH   6  30
ATOM     30  O   UNL d   1      27.386 -15.321  -5.395  0.00  0.00    -0.360 OA
ATOM     31  H   UNL d   1      27.151 -15.951  -4.694  0.00  0.00     0.217 HD
ENDBRANCH   6  30
TORSDOF 6
ENDMDL
MODEL 6
REMARK VINA RESULT:    -7.451      5.228      9.857
REMARK INTER + INTRA:         -10.795
REMARK INTER:                  -9.241
REMARK INTRA:                  -1.554
REMARK CONF_INDEPENDENT:        1.790
REMARK UNBOUND:                -1.554
REMARK  6 active torsions:
REMARK  status: ('A' for Active; 'I' for Inactive)
REMARK       I    between atoms: N_6  and  C_7 
REMARK    1  A    between atoms: C_7  and  C_9 
REMARK    2  A    between atoms: C_11  and  N_12 
REMARK    3  A    between atoms: N_12  and  S_13 
REMARK    4  A    between atoms: S_13  and  C_16 
REMARK    5  A    between atoms: C_20  and  N_21 
REMARK    6  A    between atoms: C_27  and  O_28 
ROOT
ATOM      1  C   UNL d   1      26.506 -13.987  -4.498  0.00  0.00     0.067 A 
ATOM      2  C   UNL d   1      27.446 -14.941  -4.967  0.00  0.00     0.050 A 
ATOM      3  C   UNL d   1      28.328 -14.626  -6.021  0.00  0.00     0.043 A 
ATOM      4  C   UNL d   1      28.261 -13.338  -6.570  0.00  0.00     0.033 A 
ATOM      5  C   UNL d   1      27.361 -12.382  -6.090  0.00  0.00     0.040 A 
ATOM      6  C   UNL d   1      26.503 -12.701  -5.047  0.00  0.00     0.081 A 
ENDROOT
BRANCH   3   7
ATOM      7  N   UNL d   1      29.257 -15.617  -6.521  0.00  0.00    -0.281 N 
ATOM      8  H   UNL d   1      29.319 -15.795  -7.519  0.00  0.00     0.179 HD
BRANCH   7   9
ATOM      9  S   UNL d   1      30.250 -16.484  -5.461  0.00  0.00     0.263 S 
ATOM     10  O   UNL d   1      31.556 -15.852  -5.486  0.00  0.00    -0.200 OA
ATOM     11  O   UNL d   1      29.540 -16.670  -4.217  0.00  0.00    -0.200 OA
BRANCH   9  12
ATOM     12  C   UNL d   1      30.473 -18.118  -6.143  0.00  0.00     0.082 A 
ATOM     13  C   UNL d   1      30.617 -19.224  -5.300  0.00  0.00     0.025 A 
ATOM     14  C   UNL d   1      31.020 -20.454  -5.837  0.00  0.00     0.004 A 
ATOM     15  C   UNL d   1      31.224 -20.597  -7.214  0.00  0.00     0.036 A 
ATOM     16  C   UNL d   1      31.073 -19.486  -8.053  0.00  0.00     0.104 A 
ATOM     17  C   UNL d   1      30.701 -18.243  -7.523  0.00  0.00     0.061 A 
BRANCH  16  18
ATOM     18  N   UNL d   1      31.369 -19.612  -9.488  0.00  0.00    -0.116 N 
ATOM     19  O   UNL d   1      30.411 -19.699 -10.270  0.00  0.00    -0.532 OA
ATOM     20  O   UNL d   1      32.559 -19.628  -9.831  0.00  0.00    -0.532 OA
ENDBRANCH  16  18
ENDBRANCH   9  12
ENDBRANCH   7   9
ENDBRANCH   3   7
BRANCH   1  21
ATOM     21  C   UNL d   1      25.570 -14.336  -3.381  0.00  0.00     0.256 C 
ATOM     22  N   UNL d   1      26.065 -14.911  -2.198  0.00  0.00    -0.348 N 
ATOM     23  C   UNL d   1      27.470 -15.191  -1.912  0.00  0.00     0.126 C 
ATOM     24  C   UNL d   1      25.154 -15.313  -1.119  0.00  0.00     0.130 C 
ATOM     25  C   UNL d   1      27.685 -16.682  -1.641  0.00  0.00     0.020 C 
ATOM     26  C   UNL d   1      26.765 -17.171  -0.523  0.00  0.00     0.007 C 
ATOM     27  C   UNL d   1      25.292 -16.814  -0.790  0.00  0.00    -0.001 C 
ATOM     28  C   UNL d   1      24.683 -17.666  -1.908  0.00  0.00     0.011 C 
ATOM     29  O   UNL d   1      24.380 -14.075  -3.553  0.00  0.00    -0.267 OA
ENDBRANCH   1  21
BRANCH   6  30
ATOM     30  O   UNL d   1      25.661 -11.745  -4.560  0.00  0.00    -0.360 OA
ATOM     31  H   UNL d   1      24.765 -12.105  -4.456  0.00  0.00     0.217 HD
ENDBRANCH   6  30
TORSDOF 6
ENDMDL
MODEL 7
REMARK VINA RESULT:    -7.227      3.178      5.902
REMARK INTER + INTRA:         -10.615
REMARK INTER:                  -9.017
REMARK INTRA:                  -1.598
REMARK CONF_INDEPENDENT:        1.790
REMARK UNBOUND:                -1.598
REMARK  6 active torsions:
REMARK  status: ('A' for Active; 'I' for Inactive)
REMARK       I    between atoms: N_6  and  C_7 
REMARK    1  A    between atoms: C_7  and  C_9 
REMARK    2  A    between atoms: C_11  and  N_12 
REMARK    3  A    between atoms: N_12  and  S_13 
REMARK    4  A    between atoms: S_13  and  C_16 
REMARK    5  A    between atoms: C_20  and  N_21 
REMARK    6  A    between atoms: C_27  and  O_28 
ROOT
ATOM      1  C   UNL d   1      27.552 -12.399  -6.100  0.00  0.00     0.067 A 
ATOM      2  C   UNL d   1      26.752 -13.156  -5.205  0.00  0.00     0.050 A 
ATOM      3  C   UNL d   1      26.961 -14.541  -5.046  0.00  0.00     0.043 A 
ATOM      4  C   UNL d   1      27.996 -15.137  -5.779  0.00  0.00     0.033 A 
ATOM      5  C   UNL d   1      28.812 -14.392  -6.635  0.00  0.00     0.040 A 
ATOM      6  C   UNL d   1      28.602 -13.028  -6.778  0.00  0.00     0.081 A 
ENDROOT
BRANCH   3   7
ATOM      7  N   UNL d   1      26.115 -15.314  -4.161  0.00  0.00    -0.281 N 
ATOM      8  H   UNL d   1      25.989 -16.308  -4.323  0.00  0.00     0.179 HD
BRANCH   7   9
ATOM      9  S   UNL d   1      25.332 -14.580  -2.853  0.00  0.00     0.263 S 
ATOM     10  O   UNL d   1      26.296 -13.703  -2.215  0.00  0.00    -0.200 OA
ATOM     11  O   UNL d   1      24.058 -14.075  -3.307  0.00  0.00    -0.200 OA
BRANCH   9  12
ATOM     12  C   UNL d   1      24.953 -15.856  -1.665  0.00  0.00     0.082 A 
ATOM     13  C   UNL d   1      25.972 -16.451  -0.914  0.00  0.00     0.025 A 
ATOM     14  C   UNL d   1      25.695 -17.601  -0.162  0.00  0.00     0.004 A 
ATOM     15  C   UNL d   1      24.398 -18.124  -0.112  0.00  0.00     0.036 A 
ATOM     16  C   UNL d   1      23.382 -17.521  -0.864  0.00  0.00     0.104 A 
ATOM     17  C   UNL d   1      23.654 -16.389  -1.645  0.00  0.00     0.061 A 
BRANCH  16  18
ATOM     18  N   UNL d   1      22.038 -18.117  -0.882  0.00  0.00    -0.116 N 
ATOM     19  O   UNL d   1      21.955 -19.354  -0.888  0.00  0.00    -0.532 OA
ATOM     20  O   UNL d   1      21.067 -17.348  -0.895  0.00  0.00    -0.532 OA
ENDBRANCH  16  18
ENDBRANCH   9  12
ENDBRANCH   7   9
ENDBRANCH   3   7
BRANCH   1  21
ATOM     21  C   UNL d   1      27.317 -10.929  -6.265  0.00  0.00     0.256 C 
ATOM     22  N   UNL d   1      27.152 -10.109  -5.136  0.00  0.00    -0.348 N 
ATOM     23  C   UNL d   1      27.220 -10.552  -3.745  0.00  0.00     0.126 C 
ATOM     24  C   UNL d   1      26.861  -8.677  -5.282  0.00  0.00     0.130 C 
ATOM     25  C   UNL d   1      25.909 -10.257  -3.013  0.00  0.00     0.020 C 
ATOM     26  C   UNL d   1      25.543  -8.778  -3.125  0.00  0.00     0.007 C 
ATOM     27  C   UNL d   1      25.539  -8.292  -4.585  0.00  0.00    -0.001 C 
ATOM     28  C   UNL d   1      24.342  -8.832  -5.372  0.00  0.00     0.011 C 
ATOM     29  O   UNL d   1      27.298 -10.496  -7.416  0.00  0.00    -0.267 OA
ENDBRANCH   1  21
BRANCH   6  30
ATOM     30  O   UNL d   1      29.432 -12.306  -7.585  0.00  0.00    -0.360 OA
ATOM     31  H   UNL d   1      29.065 -11.420  -7.742  0.00  0.00     0.217 HD
ENDBRANCH   6  30
TORSDOF 6
ENDMDL
MODEL 8
REMARK VINA RESULT:    -6.976      4.138      7.136
REMARK INTER + INTRA:         -10.327
REMARK INTER:                  -8.766
REMARK INTRA:                  -1.561
REMARK CONF_INDEPENDENT:        1.790
REMARK UNBOUND:                -1.561
REMARK  6 active torsions:
REMARK  status: ('A' for Active; 'I' for Inactive)
REMARK       I    between atoms: N_6  and  C_7 
REMARK    1  A    between atoms: C_7  and  C_9 
REMARK    2  A    between atoms: C_11  and  N_12 
REMARK    3  A    between atoms: N_12  and  S_13 
REMARK    4  A    between atoms: S_13  and  C_16 
REMARK    5  A    between atoms: C_20  and  N_21 
REMARK    6  A    between atoms: C_27  and  O_28 
ROOT
ATOM      1  C   UNL d   1      29.677 -15.155  -6.328  0.00  0.00     0.067 A 
ATOM      2  C   UNL d   1      28.519 -14.982  -5.528  0.00  0.00     0.050 A 
ATOM      3  C   UNL d   1      27.962 -13.702  -5.331  0.00  0.00     0.043 A 
ATOM      4  C   UNL d   1      28.575 -12.615  -5.970  0.00  0.00     0.033 A 
ATOM      5  C   UNL d   1      29.695 -12.782  -6.789  0.00  0.00     0.040 A 
ATOM      6  C   UNL d   1      30.229 -14.048  -6.981  0.00  0.00     0.081 A 
ENDROOT
BRANCH   3   7
ATOM      7  N   UNL d   1      26.804 -13.528  -4.480  0.00  0.00    -0.281 N 
ATOM      8  H   UNL d   1      26.691 -12.669  -3.949  0.00  0.00     0.179 HD
BRANCH   7   9
ATOM      9  S   UNL d   1      25.628 -14.738  -4.361  0.00  0.00     0.263 S 
ATOM     10  O   UNL d   1      24.342 -14.075  -4.253  0.00  0.00    -0.200 OA
ATOM     11  O   UNL d   1      25.874 -15.717  -5.394  0.00  0.00    -0.200 OA
BRANCH   9  12
ATOM     12  C   UNL d   1      25.884 -15.590  -2.814  0.00  0.00     0.082 A 
ATOM     13  C   UNL d   1      27.177 -15.817  -2.335  0.00  0.00     0.025 A 
ATOM     14  C   UNL d   1      27.370 -16.681  -1.250  0.00  0.00     0.004 A 
ATOM     15  C   UNL d   1      26.277 -17.273  -0.607  0.00  0.00     0.036 A 
ATOM     16  C   UNL d   1      24.984 -17.038  -1.090  0.00  0.00     0.104 A 
ATOM     17  C   UNL d   1      24.781 -16.200  -2.195  0.00  0.00     0.061 A 
BRANCH  16  18
ATOM     18  N   UNL d   1      23.840 -17.725  -0.472  0.00  0.00    -0.116 N 
ATOM     19  O   UNL d   1      22.852 -17.041  -0.166  0.00  0.00    -0.532 OA
ATOM     20  O   UNL d   1      23.932 -18.947  -0.289  0.00  0.00    -0.532 OA
ENDBRANCH  16  18
ENDBRANCH   9  12
ENDBRANCH   7   9
ENDBRANCH   3   7
BRANCH   1  21
ATOM     21  C   UNL d   1      30.262 -16.520  -6.525  0.00  0.00     0.256 C 
ATOM     22  N   UNL d   1      30.269 -17.445  -5.468  0.00  0.00    -0.348 N 
ATOM     23  C   UNL d   1      29.709 -17.220  -4.137  0.00  0.00     0.126 C 
ATOM     24  C   UNL d   1      30.893 -18.765  -5.627  0.00  0.00     0.130 C 
ATOM     25  C   UNL d   1      30.786 -17.370  -3.060  0.00  0.00     0.020 C 
ATOM     26  C   UNL d   1      31.480 -18.727  -3.166  0.00  0.00     0.007 C 
ATOM     27  C   UNL d   1      32.009 -18.995  -4.587  0.00  0.00    -0.001 C 
ATOM     28  C   UNL d   1      33.235 -18.141  -4.919  0.00  0.00     0.011 C 
ATOM     29  O   UNL d   1      30.705 -16.777  -7.644  0.00  0.00    -0.267 OA
ENDBRANCH   1  21
BRANCH   6  30
ATOM     30  O   UNL d   1      31.296 -14.202  -7.817  0.00  0.00    -0.360 OA
ATOM     31  H   UNL d   1      31.083 -14.833  -8.525  0.00  0.00     0.217 HD
ENDBRANCH   6  30
TORSDOF 6
ENDMDL
MODEL 9
REMARK VINA RESULT:    -6.902      4.825      7.956
REMARK INTER + INTRA:         -10.715
REMARK INTER:                  -8.691
REMARK INTRA:                  -2.024
REMARK CONF_INDEPENDENT:        1.790
REMARK UNBOUND:                -2.024
REMARK  6 active torsions:
REMARK  status: ('A' for Active; 'I' for Inactive)
REMARK       I    between atoms: N_6  and  C_7 
REMARK    1  A    between atoms: C_7  and  C_9 
REMARK    2  A    between atoms: C_11  and  N_12 
REMARK    3  A    between atoms: N_12  and  S_13 
REMARK    4  A    between atoms: S_13  and  C_16 
REMARK    5  A    between atoms: C_20  and  N_21 
REMARK    6  A    between atoms: C_27  and  O_28 
ROOT
ATOM      1  C   UNL d   1      25.883 -15.707  -1.229  0.00  0.00     0.067 A 
ATOM      2  C   UNL d   1      26.939 -15.113  -0.490  0.00  0.00     0.050 A 
ATOM      3  C   UNL d   1      27.511 -15.779   0.613  0.00  0.00     0.043 A 
ATOM      4  C   UNL d   1      27.020 -17.051   0.938  0.00  0.00     0.033 A 
ATOM      5  C   UNL d   1      26.004 -17.658   0.194  0.00  0.00     0.040 A 
ATOM      6  C   UNL d   1      25.454 -16.996  -0.895  0.00  0.00     0.081 A 
ENDROOT
BRANCH   3   7
ATOM      7  N   UNL d   1      28.561 -15.150   1.386  0.00  0.00    -0.281 N 
ATOM      8  H   UNL d   1      29.522 -15.464   1.284  0.00  0.00     0.179 HD
BRANCH   7   9
ATOM      9  S   UNL d   1      28.210 -13.892   2.460  0.00  0.00     0.263 S 
ATOM     10  O   UNL d   1      27.030 -14.284   3.208  0.00  0.00    -0.200 OA
ATOM     11  O   UNL d   1      29.428 -13.517   3.139  0.00  0.00    -0.200 OA
BRANCH   9  12
ATOM     12  C   UNL d   1      27.737 -12.470   1.490  0.00  0.00     0.082 A 
ATOM     13  C   UNL d   1      28.237 -12.297   0.196  0.00  0.00     0.025 A 
ATOM     14  C   UNL d   1      28.046 -11.074  -0.460  0.00  0.00     0.004 A 
ATOM     15  C   UNL d   1      27.313 -10.047   0.145  0.00  0.00     0.036 A 
ATOM     16  C   UNL d   1      26.813 -10.228   1.440  0.00  0.00     0.104 A 
ATOM     17  C   UNL d   1      27.024 -11.436   2.120  0.00  0.00     0.061 A 
BRANCH  16  18
ATOM     18  N   UNL d   1      26.117  -9.122   2.114  0.00  0.00    -0.116 N 
ATOM     19  O   UNL d   1      26.529  -8.774   3.230  0.00  0.00    -0.532 OA
ATOM     20  O   UNL d   1      25.155  -8.606   1.528  0.00  0.00    -0.532 OA
ENDBRANCH  16  18
ENDBRANCH   9  12
ENDBRANCH   7   9
ENDBRANCH   3   7
BRANCH   1  21
ATOM     21  C   UNL d   1      25.280 -14.986  -2.396  0.00  0.00     0.256 C 
ATOM     22  N   UNL d   1      26.100 -14.512  -3.434  0.00  0.00    -0.348 N 
ATOM     23  C   UNL d   1      27.548 -14.683  -3.519  0.00  0.00     0.126 C 
ATOM     24  C   UNL d   1      25.531 -13.752  -4.554  0.00  0.00     0.130 C 
ATOM     25  C   UNL d   1      28.254 -13.326  -3.580  0.00  0.00     0.020 C 
ATOM     26  C   UNL d   1      27.710 -12.478  -4.728  0.00  0.00     0.007 C 
ATOM     27  C   UNL d   1      26.176 -12.356  -4.679  0.00  0.00    -0.001 C 
ATOM     28  C   UNL d   1      25.704 -11.444  -3.544  0.00  0.00     0.011 C 
ATOM     29  O   UNL d   1      24.056 -14.858  -2.395  0.00  0.00    -0.267 OA
ENDBRANCH   1  21
BRANCH   6  30
ATOM     30  O   UNL d   1      24.494 -17.617  -1.638  0.00  0.00    -0.360 OA
ATOM     31  H   UNL d   1      23.921 -16.961  -2.068  0.00  0.00     0.217 HD
ENDBRANCH   6  30
TORSDOF 6
ENDMDL
