MODEL 1
REMARK VINA RESULT:    -7.218      0.000      0.000
REMARK INTER + INTRA:         -14.503
REMARK INTER:                 -11.096
REMARK INTRA:                  -3.407
REMARK CONF_INDEPENDENT:        3.878
REMARK UNBOUND:                -3.407
REMARK  13 active torsions:
REMARK  status: ('A' for Active; 'I' for Inactive)
REMARK    1  A    between atoms: C_2  and  C_3 
REMARK    2  A    between atoms: C_3  and  C_4 
REMARK    3  A    between atoms: C_4  and  N_5 
REMARK       I    between atoms: N_5  and  C_6 
REMARK    4  A    between atoms: C_6  and  C_8 
REMARK    5  A    between atoms: C_8  and  C_9 
REMARK    6  A    between atoms: C_8  and  N_16 
REMARK    7  A    between atoms: C_14  and  O_15 
REMARK    8  A    between atoms: N_16  and  C_17 
REMARK       I    between atoms: N_16  and  C_20 
REMARK    9  A    between atoms: C_17  and  C_18 
REMARK   10  A    between atoms: C_20  and  C_22 
REMARK   11  A    between atoms: C_22  and  O_23 
REMARK   12  A    between atoms: C_22  and  C_24 
REMARK   13  A    between atoms: C_22  and  C_30 
ROOT
ATOM      1  N   UNL d   1      28.327 -15.949  -3.746  0.00  0.00    -0.331 N 
ATOM      2  C   UNL d   1      28.873 -15.724  -5.050  0.00  0.00     0.265 C 
ATOM      3  O   UNL d   1      28.154 -15.347  -5.983  0.00  0.00    -0.269 OA
ENDROOT
BRANCH   1   4
ATOM      4  C   UNL d   1      26.838 -15.556  -3.529  0.00  0.00     0.215 C 
BRANCH   4   5
ATOM      5  C   UNL d   1      25.934 -16.151  -2.325  0.00  0.00     0.245 C 
ATOM      6  N   UNL d   1      24.736 -15.684  -1.910  0.00  0.00    -0.359 N 
ATOM      7  H   UNL d   1      24.447 -14.757  -2.197  0.00  0.00     0.162 HD
ATOM      8  O   UNL d   1      26.218 -17.105  -1.578  0.00  0.00    -0.271 OA
BRANCH   6   9
ATOM      9  C   UNL d   1      24.271 -16.326  -0.693  0.00  0.00     0.122 C 
BRANCH   9  10
ATOM     10  C   UNL d   1      22.993 -17.032  -0.894  0.00  0.00     0.019 C 
BRANCH  10  11
ATOM     11  C   UNL d   1      23.068 -18.371  -0.187  0.00  0.00    -0.003 C 
ATOM     12  C   UNL d   1      21.683 -18.958  -0.219  0.00  0.00     0.005 C 
ENDBRANCH  10  11
ENDBRANCH   9  10
ENDBRANCH   6   9
ENDBRANCH   4   5
BRANCH   4  13
ATOM     13  C   UNL d   1      26.690 -14.020  -3.516  0.00  0.00     0.007 A 
ATOM     14  C   UNL d   1      27.770 -13.174  -3.186  0.00  0.00     0.012 A 
ATOM     15  C   UNL d   1      27.632 -11.790  -3.177  0.00  0.00     0.001 A 
ATOM     16  C   UNL d   1      26.388 -11.224  -3.418  0.00  0.00     0.003 A 
ATOM     17  C   UNL d   1      25.302 -12.033  -3.744  0.00  0.00     0.037 A 
ATOM     18  C   UNL d   1      25.472 -13.410  -3.848  0.00  0.00     0.074 A 
BRANCH  18  19
ATOM     19  O   UNL d   1      24.421 -14.177  -4.275  0.00  0.00    -0.360 OA
ATOM     20  H   UNL d   1      23.978 -13.733  -5.017  0.00  0.00     0.217 HD
ENDBRANCH  18  19
ENDBRANCH   4  13
ENDBRANCH   1   4
BRANCH   1  21
ATOM     21  C   UNL d   1      29.218 -16.474  -2.679  0.00  0.00     0.127 C 
BRANCH  21  22
ATOM     22  C   UNL d   1      29.439 -15.608  -1.527  0.00  0.00     0.015 C 
ATOM     23  C   UNL d   1      28.555 -15.374  -0.357  0.00  0.00     0.006 C 
ENDBRANCH  21  22
ENDBRANCH   1  21
BRANCH   2  24
ATOM     24  C   UNL d   1      30.441 -15.993  -5.267  0.00  0.00     0.194 C 
BRANCH  24  25
ATOM     25  O   UNL d   1      31.195 -15.444  -4.166  0.00  0.00    -0.371 OA
ATOM     26  H   UNL d   1      30.900 -14.547  -3.983  0.00  0.00     0.212 HD
ENDBRANCH  24  25
BRANCH  24  27
ATOM     27  C   UNL d   1      30.667 -17.502  -5.427  0.00  0.00    -0.010 A 
ATOM     28  C   UNL d   1      30.406 -18.111  -6.677  0.00  0.00     0.011 A 
ATOM     29  C   UNL d   1      30.405 -19.492  -6.799  0.00  0.00     0.001 A 
ATOM     30  C   UNL d   1      30.797 -20.272  -5.716  0.00  0.00     0.000 A 
ATOM     31  C   UNL d   1      31.142 -19.679  -4.499  0.00  0.00     0.001 A 
ATOM     32  C   UNL d   1      31.072 -18.299  -4.347  0.00  0.00     0.011 A 
ENDBRANCH  24  27
BRANCH  24  33
ATOM     33  C   UNL d   1      30.992 -15.216  -6.457  0.00  0.00    -0.010 A 
ATOM     34  C   UNL d   1      32.050 -15.699  -7.245  0.00  0.00     0.011 A 
ATOM     35  C   UNL d   1      32.573 -14.931  -8.274  0.00  0.00     0.001 A 
ATOM     36  C   UNL d   1      31.996 -13.702  -8.579  0.00  0.00     0.000 A 
ATOM     37  C   UNL d   1      30.940 -13.209  -7.817  0.00  0.00     0.001 A 
ATOM     38  C   UNL d   1      30.452 -13.952  -6.750  0.00  0.00     0.011 A 
ENDBRANCH  24  33
ENDBRANCH   2  24
TORSDOF 13
ENDMDL
MODEL 2
REMARK VINA RESULT:    -7.121      1.410      3.078
REMARK INTER + INTRA:         -14.691
REMARK INTER:                 -10.999
REMARK INTRA:                  -3.692
REMARK CONF_INDEPENDENT:        3.878
REMARK UNBOUND:                -3.692
REMARK  13 active torsions:
REMARK  status: ('A' for Active; 'I' for Inactive)
REMARK    1  A    between atoms: C_2  and  C_3 
REMARK    2  A    between atoms: C_3  and  C_4 
REMARK    3  A    between atoms: C_4  and  N_5 
REMARK       I    between atoms: N_5  and  C_6 
REMARK    4  A    between atoms: C_6  and  C_8 
REMARK    5  A    between atoms: C_8  and  C_9 
REMARK    6  A    between atoms: C_8  and  N_16 
REMARK    7  A    between atoms: C_14  and  O_15 
REMARK    8  A    between atoms: N_16  and  C_17 
REMARK       I    between atoms: N_16  and  C_20 
REMARK    9  A    between atoms: C_17  and  C_18 
REMARK   10  A    between atoms: C_20  and  C_22 
REMARK   11  A    between atoms: C_22  and  O_23 
REMARK   12  A    between atoms: C_22  and  C_24 
REMARK   13  A    between atoms: C_22  and  C_30 
ROOT
ATOM      1  N   UNL d   1      28.177 -15.843  -4.080  0.00  0.00    -0.331 N 
ATOM      2  C   UNL d   1      28.532 -15.576  -5.440  0.00  0.00     0.265 C 
ATOM      3  O   UNL d   1      27.683 -15.195  -6.254  0.00  0.00    -0.269 OA
ENDROOT
BRANCH   1   4
ATOM      4  C   UNL d   1      26.725 -15.491  -3.649  0.00  0.00     0.215 C 
BRANCH   4   5
ATOM      5  C   UNL d   1      25.985 -16.184  -2.386  0.00  0.00     0.245 C 
ATOM      6  N   UNL d   1      24.713 -15.974  -1.983  0.00  0.00    -0.359 N 
ATOM      7  H   UNL d   1      24.218 -15.162  -2.331  0.00  0.00     0.162 HD
ATOM      8  O   UNL d   1      26.484 -16.988  -1.578  0.00  0.00    -0.271 OA
BRANCH   6   9
ATOM      9  C   UNL d   1      24.411 -16.612  -0.713  0.00  0.00     0.122 C 
BRANCH   9  10
ATOM     10  C   UNL d   1      22.982 -16.947  -0.589  0.00  0.00     0.019 C 
BRANCH  10  11
ATOM     11  C   UNL d   1      22.854 -18.448  -0.415  0.00  0.00    -0.003 C 
ATOM     12  C   UNL d   1      21.466 -18.820  -0.859  0.00  0.00     0.005 C 
ENDBRANCH  10  11
ENDBRANCH   9  10
ENDBRANCH   6   9
ENDBRANCH   4   5
BRANCH   4  13
ATOM     13  C   UNL d   1      26.569 -13.962  -3.506  0.00  0.00     0.007 A 
ATOM     14  C   UNL d   1      27.656 -13.136  -3.146  0.00  0.00     0.012 A 
ATOM     15  C   UNL d   1      27.511 -11.758  -3.020  0.00  0.00     0.001 A 
ATOM     16  C   UNL d   1      26.256 -11.186  -3.169  0.00  0.00     0.003 A 
ATOM     17  C   UNL d   1      25.163 -11.975  -3.520  0.00  0.00     0.037 A 
ATOM     18  C   UNL d   1      25.337 -13.337  -3.742  0.00  0.00     0.074 A 
BRANCH  18  19
ATOM     19  O   UNL d   1      24.275 -14.076  -4.192  0.00  0.00    -0.360 OA
ATOM     20  H   UNL d   1      24.029 -13.778  -5.084  0.00  0.00     0.217 HD
ENDBRANCH  18  19
ENDBRANCH   4  13
ENDBRANCH   1   4
BRANCH   1  21
ATOM     21  C   UNL d   1      29.218 -16.371  -3.160  0.00  0.00     0.127 C 
BRANCH  21  22
ATOM     22  C   UNL d   1      29.282 -15.770  -1.832  0.00  0.00     0.015 C 
ATOM     23  C   UNL d   1      29.460 -16.438  -0.518  0.00  0.00     0.006 C 
ENDBRANCH  21  22
ENDBRANCH   1  21
BRANCH   2  24
ATOM     24  C   UNL d   1      30.060 -15.802  -5.878  0.00  0.00     0.194 C 
BRANCH  24  25
ATOM     25  O   UNL d   1      30.274 -15.298  -7.214  0.00  0.00    -0.371 OA
ATOM     26  H   UNL d   1      29.427 -15.155  -7.648  0.00  0.00     0.212 HD
ENDBRANCH  24  25
BRANCH  24  27
ATOM     27  C   UNL d   1      30.975 -15.121  -4.852  0.00  0.00    -0.010 A 
ATOM     28  C   UNL d   1      30.667 -13.813  -4.411  0.00  0.00     0.011 A 
ATOM     29  C   UNL d   1      31.575 -13.097  -3.645  0.00  0.00     0.001 A 
ATOM     30  C   UNL d   1      32.732 -13.724  -3.198  0.00  0.00     0.000 A 
ATOM     31  C   UNL d   1      33.008 -15.046  -3.553  0.00  0.00     0.001 A 
ATOM     32  C   UNL d   1      32.139 -15.746  -4.383  0.00  0.00     0.011 A 
ENDBRANCH  24  27
BRANCH  24  33
ATOM     33  C   UNL d   1      30.396 -17.280  -6.031  0.00  0.00    -0.010 A 
ATOM     34  C   UNL d   1      30.321 -18.184  -4.958  0.00  0.00     0.011 A 
ATOM     35  C   UNL d   1      30.705 -19.506  -5.119  0.00  0.00     0.001 A 
ATOM     36  C   UNL d   1      31.097 -19.963  -6.374  0.00  0.00     0.000 A 
ATOM     37  C   UNL d   1      31.168 -19.086  -7.454  0.00  0.00     0.001 A 
ATOM     38  C   UNL d   1      30.838 -17.749  -7.280  0.00  0.00     0.011 A 
ENDBRANCH  24  33
ENDBRANCH   2  24
TORSDOF 13
ENDMDL
MODEL 3
REMARK VINA RESULT:    -6.964      2.230      5.078
REMARK INTER + INTRA:         -15.175
REMARK INTER:                 -10.842
REMARK INTRA:                  -4.334
REMARK CONF_INDEPENDENT:        3.878
REMARK UNBOUND:                -4.334
REMARK  13 active torsions:
REMARK  status: ('A' for Active; 'I' for Inactive)
REMARK    1  A    between atoms: C_2  and  C_3 
REMARK    2  A    between atoms: C_3  and  C_4 
REMARK    3  A    between atoms: C_4  and  N_5 
REMARK       I    between atoms: N_5  and  C_6 
REMARK    4  A    between atoms: C_6  and  C_8 
REMARK    5  A    between atoms: C_8  and  C_9 
REMARK    6  A    between atoms: C_8  and  N_16 
REMARK    7  A    between atoms: C_14  and  O_15 
REMARK    8  A    between atoms: N_16  and  C_17 
REMARK       I    between atoms: N_16  and  C_20 
REMARK    9  A    between atoms: C_17  and  C_18 
REMARK   10  A    between atoms: C_20  and  C_22 
REMARK   11  A    between atoms: C_22  and  O_23 
REMARK   12  A    between atoms: C_22  and  C_24 
REMARK   13  A    between atoms: C_22  and  C_30 
ROOT
ATOM      1  N   UNL d   1      26.712 -14.719  -2.108  0.00  0.00    -0.331 N 
ATOM      2  C   UNL d   1      26.166 -15.328  -3.283  0.00  0.00     0.265 C 
ATOM      3  O   UNL d   1      25.275 -16.181  -3.199  0.00  0.00    -0.269 OA
ENDROOT
BRANCH   1   4
ATOM      4  C   UNL d   1      26.035 -15.070  -0.753  0.00  0.00     0.215 C 
BRANCH   4   5
ATOM      5  C   UNL d   1      25.612 -16.578  -0.340  0.00  0.00     0.245 C 
ATOM      6  N   UNL d   1      24.670 -17.341  -0.935  0.00  0.00    -0.359 N 
ATOM      7  H   UNL d   1      23.995 -16.897  -1.546  0.00  0.00     0.162 HD
ATOM      8  O   UNL d   1      26.067 -17.249   0.604  0.00  0.00    -0.271 OA
BRANCH   6   9
ATOM      9  C   UNL d   1      24.408 -18.575  -0.215  0.00  0.00     0.122 C 
BRANCH   9  10
ATOM     10  C   UNL d   1      23.206 -19.264  -0.718  0.00  0.00     0.019 C 
BRANCH  10  11
ATOM     11  C   UNL d   1      22.011 -18.352  -0.520  0.00  0.00    -0.003 C 
ATOM     12  C   UNL d   1      20.783 -19.180  -0.787  0.00  0.00     0.005 C 
ENDBRANCH  10  11
ENDBRANCH   9  10
ENDBRANCH   6   9
ENDBRANCH   4   5
BRANCH   4  13
ATOM     13  C   UNL d   1      26.844 -14.470   0.417  0.00  0.00     0.007 A 
ATOM     14  C   UNL d   1      26.396 -13.333   1.122  0.00  0.00     0.012 A 
ATOM     15  C   UNL d   1      27.128 -12.796   2.176  0.00  0.00     0.001 A 
ATOM     16  C   UNL d   1      28.365 -13.336   2.495  0.00  0.00     0.003 A 
ATOM     17  C   UNL d   1      28.837 -14.457   1.814  0.00  0.00     0.037 A 
ATOM     18  C   UNL d   1      28.053 -15.047   0.828  0.00  0.00     0.074 A 
BRANCH  18  19
ATOM     19  O   UNL d   1      28.484 -16.210   0.247  0.00  0.00    -0.360 OA
ATOM     20  H   UNL d   1      28.227 -16.964   0.804  0.00  0.00     0.217 HD
ENDBRANCH  18  19
ENDBRANCH   4  13
ENDBRANCH   1   4
BRANCH   1  21
ATOM     21  C   UNL d   1      27.833 -13.755  -2.259  0.00  0.00     0.127 C 
BRANCH  21  22
ATOM     22  C   UNL d   1      27.584 -12.388  -1.814  0.00  0.00     0.015 C 
ATOM     23  C   UNL d   1      28.515 -11.445  -1.145  0.00  0.00     0.006 C 
ENDBRANCH  21  22
ENDBRANCH   1  21
BRANCH   2  24
ATOM     24  C   UNL d   1      26.755 -14.881  -4.707  0.00  0.00     0.194 C 
BRANCH  24  25
ATOM     25  O   UNL d   1      26.066 -15.572  -5.770  0.00  0.00    -0.371 OA
ATOM     26  H   UNL d   1      25.376 -16.132  -5.401  0.00  0.00     0.212 HD
ENDBRANCH  24  25
BRANCH  24  27
ATOM     27  C   UNL d   1      26.634 -13.357  -4.836  0.00  0.00    -0.010 A 
ATOM     28  C   UNL d   1      27.674 -12.630  -5.463  0.00  0.00     0.011 A 
ATOM     29  C   UNL d   1      27.692 -11.245  -5.416  0.00  0.00     0.001 A 
ATOM     30  C   UNL d   1      26.608 -10.568  -4.866  0.00  0.00     0.000 A 
ATOM     31  C   UNL d   1      25.531 -11.272  -4.322  0.00  0.00     0.001 A 
ATOM     32  C   UNL d   1      25.542 -12.662  -4.297  0.00  0.00     0.011 A 
ENDBRANCH  24  27
BRANCH  24  33
ATOM     33  C   UNL d   1      28.194 -15.344  -4.899  0.00  0.00    -0.010 A 
ATOM     34  C   UNL d   1      28.873 -15.207  -6.121  0.00  0.00     0.011 A 
ATOM     35  C   UNL d   1      30.157 -15.707  -6.278  0.00  0.00     0.001 A 
ATOM     36  C   UNL d   1      30.809 -16.282  -5.192  0.00  0.00     0.000 A 
ATOM     37  C   UNL d   1      30.159 -16.419  -3.968  0.00  0.00     0.001 A 
ATOM     38  C   UNL d   1      28.853 -15.969  -3.827  0.00  0.00     0.011 A 
ENDBRANCH  24  33
ENDBRANCH   2  24
TORSDOF 13
ENDMDL
MODEL 4
REMARK VINA RESULT:    -6.830      2.538      6.896
REMARK INTER + INTRA:         -14.494
REMARK INTER:                 -10.708
REMARK INTRA:                  -3.787
REMARK CONF_INDEPENDENT:        3.878
REMARK UNBOUND:                -3.787
REMARK  13 active torsions:
REMARK  status: ('A' for Active; 'I' for Inactive)
REMARK    1  A    between atoms: C_2  and  C_3 
REMARK    2  A    between atoms: C_3  and  C_4 
REMARK    3  A    between atoms: C_4  and  N_5 
REMARK       I    between atoms: N_5  and  C_6 
REMARK    4  A    between atoms: C_6  and  C_8 
REMARK    5  A    between atoms: C_8  and  C_9 
REMARK    6  A    between atoms: C_8  and  N_16 
REMARK    7  A    between atoms: C_14  and  O_15 
REMARK    8  A    between atoms: N_16  and  C_17 
REMARK       I    between atoms: N_16  and  C_20 
REMARK    9  A    between atoms: C_17  and  C_18 
REMARK   10  A    between atoms: C_20  and  C_22 
REMARK   11  A    between atoms: C_22  and  O_23 
REMARK   12  A    between atoms: C_22  and  C_24 
REMARK   13  A    between atoms: C_22  and  C_30 
ROOT
ATOM      1  N   UNL d   1      26.355 -13.483  -2.975  0.00  0.00    -0.331 N 
ATOM      2  C   UNL d   1      25.634 -14.680  -2.663  0.00  0.00     0.265 C 
ATOM      3  O   UNL d   1      24.781 -15.127  -3.437  0.00  0.00    -0.269 OA
ENDROOT
BRANCH   1   4
ATOM      4  C   UNL d   1      26.120 -12.868  -4.384  0.00  0.00     0.215 C 
BRANCH   4   5
ATOM      5  C   UNL d   1      25.771 -11.304  -4.618  0.00  0.00     0.245 C 
ATOM      6  N   UNL d   1      25.529 -10.701  -5.802  0.00  0.00    -0.359 N 
ATOM      7  H   UNL d   1      25.795 -11.176  -6.656  0.00  0.00     0.162 HD
ATOM      8  O   UNL d   1      25.705 -10.415  -3.749  0.00  0.00    -0.271 OA
BRANCH   6   9
ATOM      9  C   UNL d   1      25.425  -9.257  -5.689  0.00  0.00     0.122 C 
BRANCH   9  10
ATOM     10  C   UNL d   1      24.028  -8.794  -5.777  0.00  0.00     0.019 C 
BRANCH  10  11
ATOM     11  C   UNL d   1      23.966  -7.361  -5.288  0.00  0.00    -0.003 C 
ATOM     12  C   UNL d   1      22.528  -6.929  -5.389  0.00  0.00     0.005 C 
ENDBRANCH  10  11
ENDBRANCH   9  10
ENDBRANCH   6   9
ENDBRANCH   4   5
BRANCH   4  13
ATOM     13  C   UNL d   1      27.286 -13.237  -5.326  0.00  0.00     0.007 A 
ATOM     14  C   UNL d   1      28.159 -12.257  -5.845  0.00  0.00     0.012 A 
ATOM     15  C   UNL d   1      29.209 -12.595  -6.693  0.00  0.00     0.001 A 
ATOM     16  C   UNL d   1      29.358 -13.911  -7.106  0.00  0.00     0.003 A 
ATOM     17  C   UNL d   1      28.509 -14.900  -6.615  0.00  0.00     0.037 A 
ATOM     18  C   UNL d   1      27.525 -14.569  -5.690  0.00  0.00     0.074 A 
BRANCH  18  19
ATOM     19  O   UNL d   1      26.772 -15.571  -5.136  0.00  0.00    -0.360 OA
ATOM     20  H   UNL d   1      25.830 -15.390  -5.289  0.00  0.00     0.217 HD
ENDBRANCH  18  19
ENDBRANCH   4  13
ENDBRANCH   1   4
BRANCH   1  21
ATOM     21  C   UNL d   1      27.315 -12.946  -1.977  0.00  0.00     0.127 C 
BRANCH  21  22
ATOM     22  C   UNL d   1      28.564 -12.402  -2.498  0.00  0.00     0.015 C 
ATOM     23  C   UNL d   1      29.855 -13.097  -2.731  0.00  0.00     0.006 C 
ENDBRANCH  21  22
ENDBRANCH   1  21
BRANCH   2  24
ATOM     24  C   UNL d   1      25.957 -15.412  -1.271  0.00  0.00     0.194 C 
BRANCH  24  25
ATOM     25  O   UNL d   1      26.006 -14.445  -0.201  0.00  0.00    -0.371 OA
ATOM     26  H   UNL d   1      25.425 -14.721   0.515  0.00  0.00     0.212 HD
ENDBRANCH  24  25
BRANCH  24  27
ATOM     27  C   UNL d   1      24.898 -16.494  -1.024  0.00  0.00    -0.010 A 
ATOM     28  C   UNL d   1      23.531 -16.180  -1.210  0.00  0.00     0.011 A 
ATOM     29  C   UNL d   1      22.544 -17.064  -0.804  0.00  0.00     0.001 A 
ATOM     30  C   UNL d   1      22.908 -18.322  -0.336  0.00  0.00     0.000 A 
ATOM     31  C   UNL d   1      24.253 -18.680  -0.227  0.00  0.00     0.001 A 
ATOM     32  C   UNL d   1      25.250 -17.770  -0.562  0.00  0.00     0.011 A 
ENDBRANCH  24  27
BRANCH  24  33
ATOM     33  C   UNL d   1      27.365 -15.994  -1.247  0.00  0.00    -0.010 A 
ATOM     34  C   UNL d   1      28.058 -16.238  -0.050  0.00  0.00     0.011 A 
ATOM     35  C   UNL d   1      29.366 -16.700  -0.071  0.00  0.00     0.001 A 
ATOM     36  C   UNL d   1      29.972 -16.997  -1.287  0.00  0.00     0.000 A 
ATOM     37  C   UNL d   1      29.299 -16.773  -2.486  0.00  0.00     0.001 A 
ATOM     38  C   UNL d   1      28.011 -16.258  -2.467  0.00  0.00     0.011 A 
ENDBRANCH  24  33
ENDBRANCH   2  24
TORSDOF 13
ENDMDL
MODEL 5
REMARK VINA RESULT:    -6.729      2.219      7.248
REMARK INTER + INTRA:         -14.530
REMARK INTER:                 -10.607
REMARK INTRA:                  -3.922
REMARK CONF_INDEPENDENT:        3.878
REMARK UNBOUND:                -3.922
REMARK  13 active torsions:
REMARK  status: ('A' for Active; 'I' for Inactive)
REMARK    1  A    between atoms: C_2  and  C_3 
REMARK    2  A    between atoms: C_3  and  C_4 
REMARK    3  A    between atoms: C_4  and  N_5 
REMARK       I    between atoms: N_5  and  C_6 
REMARK    4  A    between atoms: C_6  and  C_8 
REMARK    5  A    between atoms: C_8  and  C_9 
REMARK    6  A    between atoms: C_8  and  N_16 
REMARK    7  A    between atoms: C_14  and  O_15 
REMARK    8  A    between atoms: N_16  and  C_17 
REMARK       I    between atoms: N_16  and  C_20 
REMARK    9  A    between atoms: C_17  and  C_18 
REMARK   10  A    between atoms: C_20  and  C_22 
REMARK   11  A    between atoms: C_22  and  O_23 
REMARK   12  A    between atoms: C_22  and  C_24 
REMARK   13  A    between atoms: C_22  and  C_30 
ROOT
ATOM      1  N   UNL d   1      28.607 -15.462  -2.317  0.00  0.00    -0.331 N 
ATOM      2  C   UNL d   1      28.218 -14.675  -1.187  0.00  0.00     0.265 C 
ATOM      3  O   UNL d   1      28.189 -13.441  -1.253  0.00  0.00    -0.269 OA
ENDROOT
BRANCH   1   4
ATOM      4  C   UNL d   1      28.842 -14.705  -3.655  0.00  0.00     0.215 C 
BRANCH   4   5
ATOM      5  C   UNL d   1      29.192 -15.456  -5.046  0.00  0.00     0.245 C 
ATOM      6  N   UNL d   1      30.326 -16.132  -5.334  0.00  0.00    -0.359 N 
ATOM      7  H   UNL d   1      31.139 -15.994  -4.746  0.00  0.00     0.162 HD
ATOM      8  O   UNL d   1      28.487 -15.498  -6.071  0.00  0.00    -0.271 OA
BRANCH   6   9
ATOM      9  C   UNL d   1      30.405 -16.535  -6.727  0.00  0.00     0.122 C 
BRANCH   9  10
ATOM     10  C   UNL d   1      30.781 -17.953  -6.872  0.00  0.00     0.019 C 
BRANCH  10  11
ATOM     11  C   UNL d   1      30.850 -18.574  -5.491  0.00  0.00    -0.003 C 
ATOM     12  C   UNL d   1      30.403 -20.004  -5.635  0.00  0.00     0.005 C 
ENDBRANCH  10  11
ENDBRANCH   9  10
ENDBRANCH   6   9
ENDBRANCH   4   5
BRANCH   4  13
ATOM     13  C   UNL d   1      27.675 -13.731  -3.926  0.00  0.00     0.007 A 
ATOM     14  C   UNL d   1      27.871 -12.334  -3.971  0.00  0.00     0.012 A 
ATOM     15  C   UNL d   1      26.817 -11.460  -4.217  0.00  0.00     0.001 A 
ATOM     16  C   UNL d   1      25.529 -11.960  -4.340  0.00  0.00     0.003 A 
ATOM     17  C   UNL d   1      25.303 -13.334  -4.297  0.00  0.00     0.037 A 
ATOM     18  C   UNL d   1      26.377 -14.206  -4.151  0.00  0.00     0.074 A 
BRANCH  18  19
ATOM     19  O   UNL d   1      26.148 -15.555  -4.220  0.00  0.00    -0.360 OA
ATOM     20  H   UNL d   1      26.738 -15.949  -4.883  0.00  0.00     0.217 HD
ENDBRANCH  18  19
ENDBRANCH   4  13
ENDBRANCH   1   4
BRANCH   1  21
ATOM     21  C   UNL d   1      28.699 -16.938  -2.163  0.00  0.00     0.127 C 
BRANCH  21  22
ATOM     22  C   UNL d   1      30.037 -17.518  -2.213  0.00  0.00     0.015 C 
ATOM     23  C   UNL d   1      30.870 -18.026  -1.094  0.00  0.00     0.006 C 
ENDBRANCH  21  22
ENDBRANCH   1  21
BRANCH   2  24
ATOM     24  C   UNL d   1      27.838 -15.443   0.171  0.00  0.00     0.194 C 
BRANCH  24  25
ATOM     25  O   UNL d   1      28.873 -16.389   0.514  0.00  0.00    -0.371 OA
ATOM     26  H   UNL d   1      29.276 -16.142   1.352  0.00  0.00     0.212 HD
ENDBRANCH  24  25
BRANCH  24  27
ATOM     27  C   UNL d   1      27.613 -14.407   1.279  0.00  0.00    -0.010 A 
ATOM     28  C   UNL d   1      26.712 -13.340   1.056  0.00  0.00     0.011 A 
ATOM     29  C   UNL d   1      26.638 -12.282   1.949  0.00  0.00     0.001 A 
ATOM     30  C   UNL d   1      27.357 -12.344   3.138  0.00  0.00     0.000 A 
ATOM     31  C   UNL d   1      28.185 -13.434   3.413  0.00  0.00     0.001 A 
ATOM     32  C   UNL d   1      28.323 -14.462   2.487  0.00  0.00     0.011 A 
ENDBRANCH  24  27
BRANCH  24  33
ATOM     33  C   UNL d   1      26.622 -16.344  -0.006  0.00  0.00    -0.010 A 
ATOM     34  C   UNL d   1      26.583 -17.660   0.484  0.00  0.00     0.011 A 
ATOM     35  C   UNL d   1      25.487 -18.474   0.240  0.00  0.00     0.001 A 
ATOM     36  C   UNL d   1      24.382 -17.959  -0.432  0.00  0.00     0.000 A 
ATOM     37  C   UNL d   1      24.396 -16.654  -0.918  0.00  0.00     0.001 A 
ATOM     38  C   UNL d   1      25.515 -15.857  -0.722  0.00  0.00     0.011 A 
ENDBRANCH  24  33
ENDBRANCH   2  24
TORSDOF 13
ENDMDL
MODEL 6
REMARK VINA RESULT:    -6.454      3.696      7.070
REMARK INTER + INTRA:         -14.739
REMARK INTER:                 -10.332
REMARK INTRA:                  -4.407
REMARK CONF_INDEPENDENT:        3.878
REMARK UNBOUND:                -4.407
REMARK  13 active torsions:
REMARK  status: ('A' for Active; 'I' for Inactive)
REMARK    1  A    between atoms: C_2  and  C_3 
REMARK    2  A    between atoms: C_3  and  C_4 
REMARK    3  A    between atoms: C_4  and  N_5 
REMARK       I    between atoms: N_5  and  C_6 
REMARK    4  A    between atoms: C_6  and  C_8 
REMARK    5  A    between atoms: C_8  and  C_9 
REMARK    6  A    between atoms: C_8  and  N_16 
REMARK    7  A    between atoms: C_14  and  O_15 
REMARK    8  A    between atoms: N_16  and  C_17 
REMARK       I    between atoms: N_16  and  C_20 
REMARK    9  A    between atoms: C_17  and  C_18 
REMARK   10  A    between atoms: C_20  and  C_22 
REMARK   11  A    between atoms: C_22  and  O_23 
REMARK   12  A    between atoms: C_22  and  C_24 
REMARK   13  A    between atoms: C_22  and  C_30 
ROOT
ATOM      1  N   UNL d   1      26.991 -14.346   0.269  0.00  0.00    -0.331 N 
ATOM      2  C   UNL d   1      27.258 -15.747   0.395  0.00  0.00     0.265 C 
ATOM      3  O   UNL d   1      27.901 -16.186   1.356  0.00  0.00    -0.269 OA
ENDROOT
BRANCH   1   4
ATOM      4  C   UNL d   1      27.414 -13.439   1.459  0.00  0.00     0.215 C 
BRANCH   4   5
ATOM      5  C   UNL d   1      27.462 -13.958   2.992  0.00  0.00     0.245 C 
ATOM      6  N   UNL d   1      28.380 -14.788   3.533  0.00  0.00    -0.359 N 
ATOM      7  H   UNL d   1      28.972 -15.330   2.916  0.00  0.00     0.162 HD
ATOM      8  O   UNL d   1      26.645 -13.698   3.895  0.00  0.00    -0.271 OA
BRANCH   6   9
ATOM      9  C   UNL d   1      28.041 -15.201   4.884  0.00  0.00     0.122 C 
BRANCH   9  10
ATOM     10  C   UNL d   1      29.073 -14.807   5.859  0.00  0.00     0.019 C 
BRANCH  10  11
ATOM     11  C   UNL d   1      28.533 -13.661   6.692  0.00  0.00    -0.003 C 
ATOM     12  C   UNL d   1      29.436 -13.531   7.889  0.00  0.00     0.005 C 
ENDBRANCH  10  11
ENDBRANCH   9  10
ENDBRANCH   6   9
ENDBRANCH   4   5
BRANCH   4  13
ATOM     13  C   UNL d   1      28.761 -12.751   1.151  0.00  0.00     0.007 A 
ATOM     14  C   UNL d   1      28.894 -11.346   1.153  0.00  0.00     0.012 A 
ATOM     15  C   UNL d   1      30.111 -10.731   0.876  0.00  0.00     0.001 A 
ATOM     16  C   UNL d   1      31.201 -11.506   0.509  0.00  0.00     0.003 A 
ATOM     17  C   UNL d   1      31.101 -12.895   0.495  0.00  0.00     0.037 A 
ATOM     18  C   UNL d   1      29.908 -13.505   0.870  0.00  0.00     0.074 A 
BRANCH  18  19
ATOM     19  O   UNL d   1      29.861 -14.872   0.955  0.00  0.00    -0.360 OA
ATOM     20  H   UNL d   1      29.734 -15.134   1.882  0.00  0.00     0.217 HD
ENDBRANCH  18  19
ENDBRANCH   4  13
ENDBRANCH   1   4
BRANCH   1  21
ATOM     21  C   UNL d   1      26.280 -13.861  -0.942  0.00  0.00     0.127 C 
BRANCH  21  22
ATOM     22  C   UNL d   1      26.794 -12.642  -1.558  0.00  0.00     0.015 C 
ATOM     23  C   UNL d   1      28.124 -12.401  -2.172  0.00  0.00     0.006 C 
ENDBRANCH  21  22
ENDBRANCH   1  21
BRANCH   2  24
ATOM     24  C   UNL d   1      26.712 -16.724  -0.755  0.00  0.00     0.194 C 
BRANCH  24  25
ATOM     25  O   UNL d   1      27.494 -17.936  -0.790  0.00  0.00    -0.371 OA
ATOM     26  H   UNL d   1      28.047 -17.990  -0.004  0.00  0.00     0.212 HD
ENDBRANCH  24  25
BRANCH  24  27
ATOM     27  C   UNL d   1      25.225 -17.004  -0.502  0.00  0.00    -0.010 A 
ATOM     28  C   UNL d   1      24.815 -18.313  -0.158  0.00  0.00     0.011 A 
ATOM     29  C   UNL d   1      23.469 -18.643  -0.122  0.00  0.00     0.001 A 
ATOM     30  C   UNL d   1      22.519 -17.642  -0.292  0.00  0.00     0.000 A 
ATOM     31  C   UNL d   1      22.908 -16.325  -0.545  0.00  0.00     0.001 A 
ATOM     32  C   UNL d   1      24.256 -16.002  -0.658  0.00  0.00     0.011 A 
ENDBRANCH  24  27
BRANCH  24  33
ATOM     33  C   UNL d   1      26.942 -16.150  -2.148  0.00  0.00    -0.010 A 
ATOM     34  C   UNL d   1      25.895 -15.950  -3.062  0.00  0.00     0.011 A 
ATOM     35  C   UNL d   1      26.153 -15.494  -4.345  0.00  0.00     0.001 A 
ATOM     36  C   UNL d   1      27.454 -15.158  -4.709  0.00  0.00     0.000 A 
ATOM     37  C   UNL d   1      28.506 -15.339  -3.815  0.00  0.00     0.001 A 
ATOM     38  C   UNL d   1      28.255 -15.849  -2.548  0.00  0.00     0.011 A 
ENDBRANCH  24  33
ENDBRANCH   2  24
TORSDOF 13
ENDMDL
MODEL 7
REMARK VINA RESULT:    -6.217      3.357      6.992
REMARK INTER + INTRA:         -14.540
REMARK INTER:                 -10.095
REMARK INTRA:                  -4.445
REMARK CONF_INDEPENDENT:        3.878
REMARK UNBOUND:                -4.445
REMARK  13 active torsions:
REMARK  status: ('A' for Active; 'I' for Inactive)
REMARK    1  A    between atoms: C_2  and  C_3 
REMARK    2  A    between atoms: C_3  and  C_4 
REMARK    3  A    between atoms: C_4  and  N_5 
REMARK       I    between atoms: N_5  and  C_6 
REMARK    4  A    between atoms: C_6  and  C_8 
REMARK    5  A    between atoms: C_8  and  C_9 
REMARK    6  A    between atoms: C_8  and  N_16 
REMARK    7  A    between atoms: C_14  and  O_15 
REMARK    8  A    between atoms: N_16  and  C_17 
REMARK       I    between atoms: N_16  and  C_20 
REMARK    9  A    between atoms: C_17  and  C_18 
REMARK   10  A    between atoms: C_20  and  C_22 
REMARK   11  A    between atoms: C_22  and  O_23 
REMARK   12  A    between atoms: C_22  and  C_24 
REMARK   13  A    between atoms: C_22  and  C_30 
ROOT
ATOM      1  N   UNL d   1      28.621 -14.412  -0.471  0.00  0.00    -0.331 N 
ATOM      2  C   UNL d   1      27.512 -15.291  -0.258  0.00  0.00     0.265 C 
ATOM      3  O   UNL d   1      27.106 -15.536   0.885  0.00  0.00    -0.269 OA
ENDROOT
BRANCH   1   4
ATOM      4  C   UNL d   1      29.185 -13.675   0.777  0.00  0.00     0.215 C 
BRANCH   4   5
ATOM      5  C   UNL d   1      28.331 -13.457   2.135  0.00  0.00     0.245 C 
ATOM      6  N   UNL d   1      28.042 -14.394   3.064  0.00  0.00    -0.359 N 
ATOM      7  H   UNL d   1      28.155 -15.372   2.823  0.00  0.00     0.162 HD
ATOM      8  O   UNL d   1      27.785 -12.404   2.514  0.00  0.00    -0.271 OA
BRANCH   6   9
ATOM      9  C   UNL d   1      27.108 -13.921   4.071  0.00  0.00     0.122 C 
BRANCH   9  10
ATOM     10  C   UNL d   1      27.781 -13.604   5.343  0.00  0.00     0.019 C 
BRANCH  10  11
ATOM     11  C   UNL d   1      28.559 -14.825   5.792  0.00  0.00    -0.003 C 
ATOM     12  C   UNL d   1      29.983 -14.621   5.348  0.00  0.00     0.005 C 
ENDBRANCH  10  11
ENDBRANCH   9  10
ENDBRANCH   6   9
ENDBRANCH   4   5
BRANCH   4  13
ATOM     13  C   UNL d   1      30.555 -14.267   1.170  0.00  0.00     0.007 A 
ATOM     14  C   UNL d   1      31.547 -13.485   1.800  0.00  0.00     0.012 A 
ATOM     15  C   UNL d   1      32.780 -14.024   2.154  0.00  0.00     0.001 A 
ATOM     16  C   UNL d   1      33.078 -15.335   1.811  0.00  0.00     0.003 A 
ATOM     17  C   UNL d   1      32.121 -16.130   1.185  0.00  0.00     0.037 A 
ATOM     18  C   UNL d   1      30.856 -15.613   0.925  0.00  0.00     0.074 A 
BRANCH  18  19
ATOM     19  O   UNL d   1      29.895 -16.442   0.409  0.00  0.00    -0.360 OA
ATOM     20  H   UNL d   1      29.109 -16.420   0.980  0.00  0.00     0.217 HD
ENDBRANCH  18  19
ENDBRANCH   4  13
ENDBRANCH   1   4
BRANCH   1  21
ATOM     21  C   UNL d   1      29.116 -14.211  -1.857  0.00  0.00     0.127 C 
BRANCH  21  22
ATOM     22  C   UNL d   1      30.378 -14.858  -2.201  0.00  0.00     0.015 C 
ATOM     23  C   UNL d   1      30.604 -16.071  -3.027  0.00  0.00     0.006 C 
ENDBRANCH  21  22
ENDBRANCH   1  21
BRANCH   2  24
ATOM     24  C   UNL d   1      26.823 -15.961  -1.544  0.00  0.00     0.194 C 
BRANCH  24  25
ATOM     25  O   UNL d   1      27.786 -16.755  -2.267  0.00  0.00    -0.371 OA
ATOM     26  H   UNL d   1      28.504 -17.011  -1.679  0.00  0.00     0.212 HD
ENDBRANCH  24  25
BRANCH  24  27
ATOM     27  C   UNL d   1      25.618 -16.792  -1.083  0.00  0.00    -0.010 A 
ATOM     28  C   UNL d   1      24.314 -16.375  -1.438  0.00  0.00     0.011 A 
ATOM     29  C   UNL d   1      23.203 -16.983  -0.874  0.00  0.00     0.001 A 
ATOM     30  C   UNL d   1      23.376 -18.097  -0.059  0.00  0.00     0.000 A 
ATOM     31  C   UNL d   1      24.656 -18.574   0.231  0.00  0.00     0.001 A 
ATOM     32  C   UNL d   1      25.778 -17.923  -0.271  0.00  0.00     0.011 A 
ENDBRANCH  24  27
BRANCH  24  33
ATOM     33  C   UNL d   1      26.418 -14.919  -2.580  0.00  0.00    -0.010 A 
ATOM     34  C   UNL d   1      26.526 -15.151  -3.961  0.00  0.00     0.011 A 
ATOM     35  C   UNL d   1      26.218 -14.152  -4.872  0.00  0.00     0.001 A 
ATOM     36  C   UNL d   1      25.724 -12.933  -4.418  0.00  0.00     0.000 A 
ATOM     37  C   UNL d   1      25.599 -12.686  -3.053  0.00  0.00     0.001 A 
ATOM     38  C   UNL d   1      25.961 -13.666  -2.139  0.00  0.00     0.011 A 
ENDBRANCH  24  33
ENDBRANCH   2  24
TORSDOF 13
ENDMDL
MODEL 8
REMARK VINA RESULT:    -5.706      3.703      7.373
REMARK INTER + INTRA:         -14.678
REMARK INTER:                  -9.584
REMARK INTRA:                  -5.094
REMARK CONF_INDEPENDENT:        3.878
REMARK UNBOUND:                -5.094
REMARK  13 active torsions:
REMARK  status: ('A' for Active; 'I' for Inactive)
REMARK    1  A    between atoms: C_2  and  C_3 
REMARK    2  A    between atoms: C_3  and  C_4 
REMARK    3  A    between atoms: C_4  and  N_5 
REMARK       I    between atoms: N_5  and  C_6 
REMARK    4  A    between atoms: C_6  and  C_8 
REMARK    5  A    between atoms: C_8  and  C_9 
REMARK    6  A    between atoms: C_8  and  N_16 
REMARK    7  A    between atoms: C_14  and  O_15 
REMARK    8  A    between atoms: N_16  and  C_17 
REMARK       I    between atoms: N_16  and  C_20 
REMARK    9  A    between atoms: C_17  and  C_18 
REMARK   10  A    between atoms: C_20  and  C_22 
REMARK   11  A    between atoms: C_22  and  O_23 
REMARK   12  A    between atoms: C_22  and  C_24 
REMARK   13  A    between atoms: C_22  and  C_30 
ROOT
ATOM      1  N   UNL d   1      27.863 -13.450   0.053  0.00  0.00    -0.331 N 
ATOM      2  C   UNL d   1      27.269 -14.751   0.113  0.00  0.00     0.265 C 
ATOM      3  O   UNL d   1      27.410 -15.468   1.110  0.00  0.00    -0.269 OA
ENDROOT
BRANCH   1   4
ATOM      4  C   UNL d   1      28.557 -12.933   1.344  0.00  0.00     0.215 C 
BRANCH   4   5
ATOM      5  C   UNL d   1      28.122 -13.405   2.831  0.00  0.00     0.245 C 
ATOM      6  N   UNL d   1      28.426 -14.579   3.425  0.00  0.00    -0.359 N 
ATOM      7  H   UNL d   1      28.759 -15.345   2.851  0.00  0.00     0.162 HD
ATOM      8  O   UNL d   1      27.416 -12.773   3.638  0.00  0.00    -0.271 OA
BRANCH   6   9
ATOM      9  C   UNL d   1      27.735 -14.768   4.689  0.00  0.00     0.122 C 
BRANCH   9  10
ATOM     10  C   UNL d   1      28.670 -14.825   5.826  0.00  0.00     0.019 C 
BRANCH  10  11
ATOM     11  C   UNL d   1      29.263 -13.445   6.031  0.00  0.00    -0.003 C 
ATOM     12  C   UNL d   1      28.294 -12.678   6.889  0.00  0.00     0.005 C 
ENDBRANCH  10  11
ENDBRANCH   9  10
ENDBRANCH   6   9
ENDBRANCH   4   5
BRANCH   4  13
ATOM     13  C   UNL d   1      30.088 -13.096   1.227  0.00  0.00     0.007 A 
ATOM     14  C   UNL d   1      30.964 -12.001   1.385  0.00  0.00     0.012 A 
ATOM     15  C   UNL d   1      32.343 -12.153   1.279  0.00  0.00     0.001 A 
ATOM     16  C   UNL d   1      32.871 -13.388   0.931  0.00  0.00     0.003 A 
ATOM     17  C   UNL d   1      32.031 -14.487   0.766  0.00  0.00     0.037 A 
ATOM     18  C   UNL d   1      30.662 -14.348   0.971  0.00  0.00     0.074 A 
BRANCH  18  19
ATOM     19  O   UNL d   1      29.867 -15.462   0.910  0.00  0.00    -0.360 OA
ATOM     20  H   UNL d   1      29.492 -15.639   1.789  0.00  0.00     0.217 HD
ENDBRANCH  18  19
ENDBRANCH   4  13
ENDBRANCH   1   4
BRANCH   1  21
ATOM     21  C   UNL d   1      27.726 -12.660  -1.198  0.00  0.00     0.127 C 
BRANCH  21  22
ATOM     22  C   UNL d   1      28.960 -12.347  -1.912  0.00  0.00     0.015 C 
ATOM     23  C   UNL d   1      30.090 -13.247  -2.252  0.00  0.00     0.006 C 
ENDBRANCH  21  22
ENDBRANCH   1  21
BRANCH   2  24
ATOM     24  C   UNL d   1      26.429 -15.256  -1.159  0.00  0.00     0.194 C 
BRANCH  24  25
ATOM     25  O   UNL d   1      25.530 -14.218  -1.604  0.00  0.00    -0.371 OA
ATOM     26  H   UNL d   1      25.924 -13.737  -2.338  0.00  0.00     0.212 HD
ENDBRANCH  24  25
BRANCH  24  27
ATOM     27  C   UNL d   1      27.408 -15.683  -2.261  0.00  0.00    -0.010 A 
ATOM     28  C   UNL d   1      28.533 -16.469  -1.920  0.00  0.00     0.011 A 
ATOM     29  C   UNL d   1      29.537 -16.700  -2.847  0.00  0.00     0.001 A 
ATOM     30  C   UNL d   1      29.366 -16.267  -4.157  0.00  0.00     0.000 A 
ATOM     31  C   UNL d   1      28.219 -15.564  -4.531  0.00  0.00     0.001 A 
ATOM     32  C   UNL d   1      27.242 -15.263  -3.588  0.00  0.00     0.011 A 
ENDBRANCH  24  27
BRANCH  24  33
ATOM     33  C   UNL d   1      25.469 -16.383  -0.797  0.00  0.00    -0.010 A 
ATOM     34  C   UNL d   1      25.889 -17.538  -0.117  0.00  0.00     0.011 A 
ATOM     35  C   UNL d   1      25.001 -18.575   0.130  0.00  0.00     0.001 A 
ATOM     36  C   UNL d   1      23.665 -18.439  -0.232  0.00  0.00     0.000 A 
ATOM     37  C   UNL d   1      23.225 -17.298  -0.898  0.00  0.00     0.001 A 
ATOM     38  C   UNL d   1      24.125 -16.283  -1.196  0.00  0.00     0.011 A 
ENDBRANCH  24  33
ENDBRANCH   2  24
TORSDOF 13
ENDMDL
MODEL 9
REMARK VINA RESULT:    -5.457      3.936      7.481
REMARK INTER + INTRA:         -14.791
REMARK INTER:                  -9.335
REMARK INTRA:                  -5.456
REMARK CONF_INDEPENDENT:        3.878
REMARK UNBOUND:                -5.456
REMARK  13 active torsions:
REMARK  status: ('A' for Active; 'I' for Inactive)
REMARK    1  A    between atoms: C_2  and  C_3 
REMARK    2  A    between atoms: C_3  and  C_4 
REMARK    3  A    between atoms: C_4  and  N_5 
REMARK       I    between atoms: N_5  and  C_6 
REMARK    4  A    between atoms: C_6  and  C_8 
REMARK    5  A    between atoms: C_8  and  C_9 
REMARK    6  A    between atoms: C_8  and  N_16 
REMARK    7  A    between atoms: C_14  and  O_15 
REMARK    8  A    between atoms: N_16  and  C_17 
REMARK       I    between atoms: N_16  and  C_20 
REMARK    9  A    between atoms: C_17  and  C_18 
REMARK   10  A    between atoms: C_20  and  C_22 
REMARK   11  A    between atoms: C_22  and  O_23 
REMARK   12  A    between atoms: C_22  and  C_24 
REMARK   13  A    between atoms: C_22  and  C_30 
ROOT
ATOM      1  N   UNL d   1      28.752 -15.217  -0.434  0.00  0.00    -0.331 N 
ATOM      2  C   UNL d   1      28.325 -14.941   0.905  0.00  0.00     0.265 C 
ATOM      3  O   UNL d   1      27.231 -15.344   1.317  0.00  0.00    -0.269 OA
ENDROOT
BRANCH   1   4
ATOM      4  C   UNL d   1      27.852 -16.160  -1.280  0.00  0.00     0.215 C 
BRANCH   4   5
ATOM      5  C   UNL d   1      26.839 -17.240  -0.623  0.00  0.00     0.245 C 
ATOM      6  N   UNL d   1      25.647 -16.979  -0.046  0.00  0.00    -0.359 N 
ATOM      7  H   UNL d   1      25.431 -16.025   0.220  0.00  0.00     0.162 HD
ATOM      8  O   UNL d   1      27.020 -18.467  -0.520  0.00  0.00    -0.271 OA
BRANCH   6   9
ATOM      9  C   UNL d   1      25.068 -18.141   0.605  0.00  0.00     0.122 C 
BRANCH   9  10
ATOM     10  C   UNL d   1      23.820 -18.576  -0.046  0.00  0.00     0.019 C 
BRANCH  10  11
ATOM     11  C   UNL d   1      23.473 -17.578  -1.133  0.00  0.00    -0.003 C 
ATOM     12  C   UNL d   1      22.532 -16.576  -0.520  0.00  0.00     0.005 C 
ENDBRANCH  10  11
ENDBRANCH   9  10
ENDBRANCH   6   9
ENDBRANCH   4   5
BRANCH   4  13
ATOM     13  C   UNL d   1      27.059 -15.344  -2.323  0.00  0.00     0.007 A 
ATOM     14  C   UNL d   1      27.199 -15.575  -3.708  0.00  0.00     0.012 A 
ATOM     15  C   UNL d   1      26.482 -14.837  -4.644  0.00  0.00     0.001 A 
ATOM     16  C   UNL d   1      25.670 -13.796  -4.218  0.00  0.00     0.003 A 
ATOM     17  C   UNL d   1      25.513 -13.542  -2.858  0.00  0.00     0.037 A 
ATOM     18  C   UNL d   1      26.157 -14.348  -1.925  0.00  0.00     0.074 A 
BRANCH  18  19
ATOM     19  O   UNL d   1      25.905 -14.151  -0.593  0.00  0.00    -0.360 OA
ATOM     20  H   UNL d   1      26.331 -14.855  -0.076  0.00  0.00     0.217 HD
ENDBRANCH  18  19
ENDBRANCH   4  13
ENDBRANCH   1   4
BRANCH   1  21
ATOM     21  C   UNL d   1      30.042 -14.647  -0.903  0.00  0.00     0.127 C 
BRANCH  21  22
ATOM     22  C   UNL d   1      29.985 -13.776  -2.072  0.00  0.00     0.015 C 
ATOM     23  C   UNL d   1      29.294 -12.471  -2.225  0.00  0.00     0.006 C 
ENDBRANCH  21  22
ENDBRANCH   1  21
BRANCH   2  24
ATOM     24  C   UNL d   1      29.302 -14.082   1.846  0.00  0.00     0.194 C 
BRANCH  24  25
ATOM     25  O   UNL d   1      30.625 -14.658   1.846  0.00  0.00    -0.371 OA
ATOM     26  H   UNL d   1      30.578 -15.584   2.103  0.00  0.00     0.212 HD
ENDBRANCH  24  25
BRANCH  24  27
ATOM     27  C   UNL d   1      29.305 -12.628   1.358  0.00  0.00    -0.010 A 
ATOM     28  C   UNL d   1      30.537 -11.946   1.222  0.00  0.00     0.011 A 
ATOM     29  C   UNL d   1      30.563 -10.581   0.981  0.00  0.00     0.001 A 
ATOM     30  C   UNL d   1      29.370  -9.910   0.738  0.00  0.00     0.000 A 
ATOM     31  C   UNL d   1      28.150 -10.587   0.783  0.00  0.00     0.001 A 
ATOM     32  C   UNL d   1      28.110 -11.941   1.099  0.00  0.00     0.011 A 
ENDBRANCH  24  27
BRANCH  24  33
ATOM     33  C   UNL d   1      28.907 -14.178   3.314  0.00  0.00    -0.010 A 
ATOM     34  C   UNL d   1      27.590 -13.962   3.755  0.00  0.00     0.011 A 
ATOM     35  C   UNL d   1      27.284 -13.986   5.107  0.00  0.00     0.001 A 
ATOM     36  C   UNL d   1      28.274 -14.300   6.032  0.00  0.00     0.000 A 
ATOM     37  C   UNL d   1      29.584 -14.527   5.617  0.00  0.00     0.001 A 
ATOM     38  C   UNL d   1      29.903 -14.449   4.268  0.00  0.00     0.011 A 
ENDBRANCH  24  33
ENDBRANCH   2  24
TORSDOF 13
ENDMDL
