MODEL 1
REMARK VINA RESULT:    -7.763      0.000      0.000
REMARK INTER + INTRA:         -10.350
REMARK INTER:                  -9.254
REMARK INTRA:                  -1.095
REMARK CONF_INDEPENDENT:        1.492
REMARK UNBOUND:                -1.095
REMARK  5 active torsions:
REMARK  status: ('A' for Active; 'I' for Inactive)
REMARK    1  A    between atoms: O_1  and  C_2 
REMARK    2  A    between atoms: C_4  and  N_5 
REMARK    3  A    between atoms: N_5  and  C_6 
REMARK    4  A    between atoms: C_13  and  N_14 
REMARK    5  A    between atoms: N_14  and  C_15 
ROOT
ATOM      1  C   UNL d   1      24.521 -17.685  -1.167  0.00  0.00     0.142 C 
ATOM      2  C   UNL d   1      23.874 -18.410  -0.011  0.00  0.00     0.059 C 
ATOM      3  C   UNL d   1      22.468 -17.802   0.102  0.00  0.00     0.086 C 
ATOM      4  C   UNL d   1      22.594 -16.400  -0.548  0.00  0.00     0.052 C 
ATOM      5  C   UNL d   1      24.083 -16.242  -0.926  0.00  0.00     0.112 C 
ENDROOT
BRANCH   3   6
ATOM      6  N   UNL d   1      21.418 -18.608  -0.530  0.00  0.00    -0.385 N 
ATOM      7  H   UNL d   1      21.623 -18.969  -1.461  0.00  0.00     0.160 HD
BRANCH   6   8
ATOM      8  C   UNL d   1      20.456 -19.324   0.177  0.00  0.00     0.028 C 
ATOM      9  C   UNL d   1      20.441 -19.414   1.578  0.00  0.00     0.029 C 
ATOM     10  C   UNL d   1      19.516 -20.218   2.252  0.00  0.00     0.002 C 
ATOM     11  C   UNL d   1      18.496 -20.835   1.550  0.00  0.00     0.000 C 
ATOM     12  C   UNL d   1      18.420 -20.676   0.167  0.00  0.00     0.002 C 
ATOM     13  C   UNL d   1      19.402 -19.936  -0.508  0.00  0.00     0.029 C 
ENDBRANCH   6   8
ENDBRANCH   3   6
BRANCH   1  14
ATOM     14  O   UNL d   1      24.017 -18.205  -2.399  0.00  0.00    -0.393 OA
ATOM     15  H   UNL d   1      24.423 -17.693  -3.120  0.00  0.00     0.210 HD
ENDBRANCH   1  14
BRANCH   5  16
ATOM     16  N   UNL d   1      24.275 -15.281  -2.016  0.00  0.00    -0.383 N 
ATOM     17  H   UNL d   1      23.448 -15.105  -2.582  0.00  0.00     0.160 HD
BRANCH  16  18
ATOM     18  C   UNL d   1      25.445 -15.285  -2.780  0.00  0.00     0.028 A 
ATOM     19  C   UNL d   1      26.650 -15.509  -2.105  0.00  0.00     0.029 A 
ATOM     20  C   UNL d   1      27.879 -15.467  -2.774  0.00  0.00     0.002 A 
ATOM     21  C   UNL d   1      27.927 -15.213  -4.138  0.00  0.00     0.000 A 
ATOM     22  C   UNL d   1      26.751 -14.938  -4.822  0.00  0.00     0.002 A 
ATOM     23  C   UNL d   1      25.533 -14.933  -4.131  0.00  0.00     0.029 A 
ENDBRANCH  16  18
ENDBRANCH   5  16
TORSDOF 5
ENDMDL
MODEL 2
REMARK VINA RESULT:    -7.709      0.135      1.515
REMARK INTER + INTRA:         -10.326
REMARK INTER:                  -9.201
REMARK INTRA:                  -1.125
REMARK CONF_INDEPENDENT:        1.492
REMARK UNBOUND:                -1.125
REMARK  5 active torsions:
REMARK  status: ('A' for Active; 'I' for Inactive)
REMARK    1  A    between atoms: O_1  and  C_2 
REMARK    2  A    between atoms: C_4  and  N_5 
REMARK    3  A    between atoms: N_5  and  C_6 
REMARK    4  A    between atoms: C_13  and  N_14 
REMARK    5  A    between atoms: N_14  and  C_15 
ROOT
ATOM      1  C   UNL d   1      24.492 -17.773  -1.162  0.00  0.00     0.142 C 
ATOM      2  C   UNL d   1      23.814 -18.517  -0.038  0.00  0.00     0.059 C 
ATOM      3  C   UNL d   1      22.446 -17.836   0.120  0.00  0.00     0.086 C 
ATOM      4  C   UNL d   1      22.647 -16.412  -0.461  0.00  0.00     0.052 C 
ATOM      5  C   UNL d   1      24.140 -16.321  -0.846  0.00  0.00     0.112 C 
ENDROOT
BRANCH   3   6
ATOM      6  N   UNL d   1      21.347 -18.548  -0.541  0.00  0.00    -0.385 N 
ATOM      7  H   UNL d   1      21.499 -18.815  -1.512  0.00  0.00     0.160 HD
BRANCH   6   8
ATOM      8  C   UNL d   1      20.397 -19.310   0.134  0.00  0.00     0.028 C 
ATOM      9  C   UNL d   1      19.419 -20.075  -0.520  0.00  0.00     0.029 C 
ATOM     10  C   UNL d   1      18.423 -20.755   0.188  0.00  0.00     0.002 C 
ATOM     11  C   UNL d   1      18.468 -20.802   1.570  0.00  0.00     0.000 C 
ATOM     12  C   UNL d   1      19.492 -20.140   2.247  0.00  0.00     0.002 C 
ATOM     13  C   UNL d   1      20.437 -19.393   1.529  0.00  0.00     0.029 C 
ENDBRANCH   6   8
ENDBRANCH   3   6
BRANCH   1  14
ATOM     14  O   UNL d   1      23.951 -18.201  -2.414  0.00  0.00    -0.393 OA
ATOM     15  H   UNL d   1      24.372 -17.670  -3.112  0.00  0.00     0.210 HD
ENDBRANCH   1  14
BRANCH   5  16
ATOM     16  N   UNL d   1      24.380 -15.319  -1.888  0.00  0.00    -0.383 N 
ATOM     17  H   UNL d   1      23.585 -15.136  -2.497  0.00  0.00     0.160 HD
BRANCH  16  18
ATOM     18  C   UNL d   1      25.593 -15.278  -2.580  0.00  0.00     0.028 A 
ATOM     19  C   UNL d   1      25.545 -14.950  -3.939  0.00  0.00     0.029 A 
ATOM     20  C   UNL d   1      26.699 -14.947  -4.730  0.00  0.00     0.002 A 
ATOM     21  C   UNL d   1      27.933 -15.262  -4.173  0.00  0.00     0.000 A 
ATOM     22  C   UNL d   1      28.001 -15.639  -2.839  0.00  0.00     0.002 A 
ATOM     23  C   UNL d   1      26.831 -15.687  -2.071  0.00  0.00     0.029 A 
ENDBRANCH  16  18
ENDBRANCH   5  16
TORSDOF 5
ENDMDL
MODEL 3
REMARK VINA RESULT:    -7.578      1.470      7.741
REMARK INTER + INTRA:         -10.325
REMARK INTER:                  -9.070
REMARK INTRA:                  -1.255
REMARK CONF_INDEPENDENT:        1.492
REMARK UNBOUND:                -1.255
REMARK  5 active torsions:
REMARK  status: ('A' for Active; 'I' for Inactive)
REMARK    1  A    between atoms: O_1  and  C_2 
REMARK    2  A    between atoms: C_4  and  N_5 
REMARK    3  A    between atoms: N_5  and  C_6 
REMARK    4  A    between atoms: C_13  and  N_14 
REMARK    5  A    between atoms: N_14  and  C_15 
ROOT
ATOM      1  C   UNL d   1      23.480 -18.815  -0.852  0.00  0.00     0.142 C 
ATOM      2  C   UNL d   1      23.987 -17.825  -1.873  0.00  0.00     0.059 C 
ATOM      3  C   UNL d   1      23.720 -16.444  -1.255  0.00  0.00     0.086 C 
ATOM      4  C   UNL d   1      22.564 -16.682  -0.249  0.00  0.00     0.052 C 
ATOM      5  C   UNL d   1      22.172 -18.168  -0.401  0.00  0.00     0.112 C 
ENDROOT
BRANCH   3   6
ATOM      6  N   UNL d   1      24.893 -15.843  -0.611  0.00  0.00    -0.385 N 
ATOM      7  H   UNL d   1      24.734 -15.393   0.289  0.00  0.00     0.160 HD
BRANCH   6   8
ATOM      8  C   UNL d   1      26.202 -16.263  -0.833  0.00  0.00     0.028 C 
ATOM      9  C   UNL d   1      26.911 -17.077   0.064  0.00  0.00     0.029 C 
ATOM     10  C   UNL d   1      28.255 -17.403  -0.146  0.00  0.00     0.002 C 
ATOM     11  C   UNL d   1      28.878 -17.042  -1.326  0.00  0.00     0.000 C 
ATOM     12  C   UNL d   1      28.166 -16.324  -2.286  0.00  0.00     0.002 C 
ATOM     13  C   UNL d   1      26.844 -15.931  -2.030  0.00  0.00     0.029 C 
ENDBRANCH   6   8
ENDBRANCH   3   6
BRANCH   1  14
ATOM     14  O   UNL d   1      24.424 -18.927   0.215  0.00  0.00    -0.393 OA
ATOM     15  H   UNL d   1      24.153 -18.306   0.912  0.00  0.00     0.210 HD
ENDBRANCH   1  14
BRANCH   5  16
ATOM     16  N   UNL d   1      21.533 -18.696   0.808  0.00  0.00    -0.383 N 
ATOM     17  H   UNL d   1      22.174 -19.084   1.496  0.00  0.00     0.160 HD
BRANCH  16  18
ATOM     18  C   UNL d   1      20.340 -19.421   0.733  0.00  0.00     0.028 A 
ATOM     19  C   UNL d   1      19.903 -20.058   1.898  0.00  0.00     0.029 A 
ATOM     20  C   UNL d   1      18.756 -20.859   1.905  0.00  0.00     0.002 A 
ATOM     21  C   UNL d   1      18.012 -21.031   0.744  0.00  0.00     0.000 A 
ATOM     22  C   UNL d   1      18.452 -20.450  -0.438  0.00  0.00     0.002 A 
ATOM     23  C   UNL d   1      19.629 -19.692  -0.442  0.00  0.00     0.029 A 
ENDBRANCH  16  18
ENDBRANCH   5  16
TORSDOF 5
ENDMDL
MODEL 4
REMARK VINA RESULT:    -7.550      1.633      2.583
REMARK INTER + INTRA:         -10.227
REMARK INTER:                  -9.041
REMARK INTRA:                  -1.185
REMARK CONF_INDEPENDENT:        1.492
REMARK UNBOUND:                -1.185
REMARK  5 active torsions:
REMARK  status: ('A' for Active; 'I' for Inactive)
REMARK    1  A    between atoms: O_1  and  C_2 
REMARK    2  A    between atoms: C_4  and  N_5 
REMARK    3  A    between atoms: N_5  and  C_6 
REMARK    4  A    between atoms: C_13  and  N_14 
REMARK    5  A    between atoms: N_14  and  C_15 
ROOT
ATOM      1  C   UNL d   1      23.709 -17.142  -1.600  0.00  0.00     0.142 C 
ATOM      2  C   UNL d   1      22.862 -18.391  -1.575  0.00  0.00     0.059 C 
ATOM      3  C   UNL d   1      22.993 -18.932  -0.144  0.00  0.00     0.086 C 
ATOM      4  C   UNL d   1      24.336 -18.352   0.372  0.00  0.00     0.052 C 
ATOM      5  C   UNL d   1      24.945 -17.577  -0.817  0.00  0.00     0.112 C 
ENDROOT
BRANCH   3   6
ATOM      6  N   UNL d   1      21.871 -18.578   0.732  0.00  0.00    -0.385 N 
ATOM      7  H   UNL d   1      21.773 -17.592   0.966  0.00  0.00     0.160 HD
BRANCH   6   8
ATOM      8  C   UNL d   1      20.700 -19.325   0.834  0.00  0.00     0.028 C 
ATOM      9  C   UNL d   1      19.985 -19.789  -0.281  0.00  0.00     0.029 C 
ATOM     10  C   UNL d   1      18.763 -20.455  -0.144  0.00  0.00     0.002 C 
ATOM     11  C   UNL d   1      18.301 -20.799   1.113  0.00  0.00     0.000 C 
ATOM     12  C   UNL d   1      19.044 -20.447   2.238  0.00  0.00     0.002 C 
ATOM     13  C   UNL d   1      20.226 -19.705   2.093  0.00  0.00     0.029 C 
ENDBRANCH   6   8
ENDBRANCH   3   6
BRANCH   1  14
ATOM     14  O   UNL d   1      23.008 -16.076  -0.957  0.00  0.00    -0.393 OA
ATOM     15  H   UNL d   1      22.221 -16.458  -0.531  0.00  0.00     0.210 HD
ENDBRANCH   1  14
BRANCH   5  16
ATOM     16  N   UNL d   1      25.875 -16.533  -0.376  0.00  0.00    -0.383 N 
ATOM     17  H   UNL d   1      25.473 -15.600  -0.318  0.00  0.00     0.160 HD
BRANCH  16  18
ATOM     18  C   UNL d   1      27.197 -16.510  -0.828  0.00  0.00     0.028 A 
ATOM     19  C   UNL d   1      27.422 -16.042  -2.127  0.00  0.00     0.029 A 
ATOM     20  C   UNL d   1      28.703 -16.042  -2.690  0.00  0.00     0.002 A 
ATOM     21  C   UNL d   1      29.791 -16.501  -1.959  0.00  0.00     0.000 A 
ATOM     22  C   UNL d   1      29.588 -17.018  -0.687  0.00  0.00     0.002 A 
ATOM     23  C   UNL d   1      28.294 -17.058  -0.154  0.00  0.00     0.029 A 
ENDBRANCH  16  18
ENDBRANCH   5  16
TORSDOF 5
ENDMDL
MODEL 5
REMARK VINA RESULT:    -7.432      1.341      7.889
REMARK INTER + INTRA:         -10.182
REMARK INTER:                  -8.923
REMARK INTRA:                  -1.259
REMARK CONF_INDEPENDENT:        1.492
REMARK UNBOUND:                -1.259
REMARK  5 active torsions:
REMARK  status: ('A' for Active; 'I' for Inactive)
REMARK    1  A    between atoms: O_1  and  C_2 
REMARK    2  A    between atoms: C_4  and  N_5 
REMARK    3  A    between atoms: N_5  and  C_6 
REMARK    4  A    between atoms: C_13  and  N_14 
REMARK    5  A    between atoms: N_14  and  C_15 
ROOT
ATOM      1  C   UNL d   1      22.644 -16.800  -0.200  0.00  0.00     0.142 C 
ATOM      2  C   UNL d   1      24.151 -16.875  -0.147  0.00  0.00     0.059 C 
ATOM      3  C   UNL d   1      24.542 -17.815  -1.297  0.00  0.00     0.086 C 
ATOM      4  C   UNL d   1      23.280 -18.682  -1.541  0.00  0.00     0.052 C 
ATOM      5  C   UNL d   1      22.259 -18.253  -0.465  0.00  0.00     0.112 C 
ENDROOT
BRANCH   3   6
ATOM      6  N   UNL d   1      24.973 -17.119  -2.514  0.00  0.00    -0.385 N 
ATOM      7  H   UNL d   1      24.518 -17.399  -3.381  0.00  0.00     0.160 HD
BRANCH   6   8
ATOM      8  C   UNL d   1      25.516 -15.837  -2.525  0.00  0.00     0.028 C 
ATOM      9  C   UNL d   1      24.802 -14.703  -2.945  0.00  0.00     0.029 C 
ATOM     10  C   UNL d   1      25.407 -13.445  -3.031  0.00  0.00     0.002 C 
ATOM     11  C   UNL d   1      26.696 -13.265  -2.564  0.00  0.00     0.000 C 
ATOM     12  C   UNL d   1      27.395 -14.352  -2.041  0.00  0.00     0.002 C 
ATOM     13  C   UNL d   1      26.809 -15.626  -2.035  0.00  0.00     0.029 C 
ENDBRANCH   6   8
ENDBRANCH   3   6
BRANCH   1  14
ATOM     14  O   UNL d   1      22.247 -15.931  -1.263  0.00  0.00    -0.393 OA
ATOM     15  H   UNL d   1      22.889 -16.040  -1.985  0.00  0.00     0.210 HD
ENDBRANCH   1  14
BRANCH   5  16
ATOM     16  N   UNL d   1      20.878 -18.528  -0.875  0.00  0.00    -0.383 N 
ATOM     17  H   UNL d   1      20.398 -17.744  -1.311  0.00  0.00     0.160 HD
BRANCH  16  18
ATOM     18  C   UNL d   1      20.025 -19.284  -0.066  0.00  0.00     0.028 A 
ATOM     19  C   UNL d   1      20.354 -19.389   1.289  0.00  0.00     0.029 A 
ATOM     20  C   UNL d   1      19.598 -20.176   2.164  0.00  0.00     0.002 A 
ATOM     21  C   UNL d   1      18.485 -20.868   1.703  0.00  0.00     0.000 A 
ATOM     22  C   UNL d   1      18.167 -20.821   0.353  0.00  0.00     0.002 A 
ATOM     23  C   UNL d   1      18.961 -20.070  -0.521  0.00  0.00     0.029 A 
ENDBRANCH  16  18
ENDBRANCH   5  16
TORSDOF 5
ENDMDL
MODEL 6
REMARK VINA RESULT:    -7.110      3.221      5.599
REMARK INTER + INTRA:          -9.787
REMARK INTER:                  -8.602
REMARK INTRA:                  -1.185
REMARK CONF_INDEPENDENT:        1.492
REMARK UNBOUND:                -1.185
REMARK  5 active torsions:
REMARK  status: ('A' for Active; 'I' for Inactive)
REMARK    1  A    between atoms: O_1  and  C_2 
REMARK    2  A    between atoms: C_4  and  N_5 
REMARK    3  A    between atoms: N_5  and  C_6 
REMARK    4  A    between atoms: C_13  and  N_14 
REMARK    5  A    between atoms: N_14  and  C_15 
ROOT
ATOM      1  C   UNL d   1      25.269 -14.418  -4.600  0.00  0.00     0.142 C 
ATOM      2  C   UNL d   1      25.905 -15.550  -3.829  0.00  0.00     0.059 C 
ATOM      3  C   UNL d   1      26.489 -14.894  -2.569  0.00  0.00     0.086 C 
ATOM      4  C   UNL d   1      26.701 -13.409  -2.964  0.00  0.00     0.052 C 
ATOM      5  C   UNL d   1      26.306 -13.308  -4.453  0.00  0.00     0.112 C 
ENDROOT
BRANCH   3   6
ATOM      6  N   UNL d   1      25.642 -15.030  -1.380  0.00  0.00    -0.385 N 
ATOM      7  H   UNL d   1      25.197 -14.178  -1.041  0.00  0.00     0.160 HD
BRANCH   6   8
ATOM      8  C   UNL d   1      25.004 -16.211  -1.011  0.00  0.00     0.028 C 
ATOM      9  C   UNL d   1      25.673 -17.293  -0.417  0.00  0.00     0.029 C 
ATOM     10  C   UNL d   1      25.021 -18.500  -0.145  0.00  0.00     0.002 C 
ATOM     11  C   UNL d   1      23.654 -18.603  -0.328  0.00  0.00     0.000 C 
ATOM     12  C   UNL d   1      22.942 -17.508  -0.816  0.00  0.00     0.002 C 
ATOM     13  C   UNL d   1      23.619 -16.330  -1.164  0.00  0.00     0.029 C 
ENDBRANCH   6   8
ENDBRANCH   3   6
BRANCH   1  14
ATOM     14  O   UNL d   1      24.019 -14.075  -3.999  0.00  0.00    -0.393 OA
ATOM     15  H   UNL d   1      23.490 -13.609  -4.670  0.00  0.00     0.210 HD
ENDBRANCH   1  14
BRANCH   5  16
ATOM     16  N   UNL d   1      25.905 -11.948  -4.825  0.00  0.00    -0.383 N 
ATOM     17  H   UNL d   1      24.927 -11.728  -4.651  0.00  0.00     0.160 HD
BRANCH  16  18
ATOM     18  C   UNL d   1      26.376 -11.355  -6.000  0.00  0.00     0.028 A 
ATOM     19  C   UNL d   1      27.410 -12.010  -6.678  0.00  0.00     0.029 A 
ATOM     20  C   UNL d   1      27.991 -11.462  -7.827  0.00  0.00     0.002 A 
ATOM     21  C   UNL d   1      27.541 -10.248  -8.330  0.00  0.00     0.000 A 
ATOM     22  C   UNL d   1      26.551  -9.553  -7.648  0.00  0.00     0.002 A 
ATOM     23  C   UNL d   1      26.013 -10.089  -6.472  0.00  0.00     0.029 A 
ENDBRANCH  16  18
ENDBRANCH   5  16
TORSDOF 5
ENDMDL
MODEL 7
REMARK VINA RESULT:    -7.097      3.324      5.781
REMARK INTER + INTRA:          -9.763
REMARK INTER:                  -8.589
REMARK INTRA:                  -1.175
REMARK CONF_INDEPENDENT:        1.492
REMARK UNBOUND:                -1.175
REMARK  5 active torsions:
REMARK  status: ('A' for Active; 'I' for Inactive)
REMARK    1  A    between atoms: O_1  and  C_2 
REMARK    2  A    between atoms: C_4  and  N_5 
REMARK    3  A    between atoms: N_5  and  C_6 
REMARK    4  A    between atoms: C_13  and  N_14 
REMARK    5  A    between atoms: N_14  and  C_15 
ROOT
ATOM      1  C   UNL d   1      25.222 -14.385  -4.611  0.00  0.00     0.142 C 
ATOM      2  C   UNL d   1      25.905 -15.497  -3.852  0.00  0.00     0.059 C 
ATOM      3  C   UNL d   1      26.495 -14.823  -2.604  0.00  0.00     0.086 C 
ATOM      4  C   UNL d   1      26.657 -13.333  -3.003  0.00  0.00     0.052 C 
ATOM      5  C   UNL d   1      26.230 -13.244  -4.485  0.00  0.00     0.112 C 
ENDROOT
BRANCH   3   6
ATOM      6  N   UNL d   1      25.675 -14.982  -1.398  0.00  0.00    -0.385 N 
ATOM      7  H   UNL d   1      25.255 -14.134  -1.021  0.00  0.00     0.160 HD
BRANCH   6   8
ATOM      8  C   UNL d   1      25.025 -16.163  -1.051  0.00  0.00     0.028 C 
ATOM      9  C   UNL d   1      23.656 -16.380  -1.270  0.00  0.00     0.029 C 
ATOM     10  C   UNL d   1      23.015 -17.540  -0.825  0.00  0.00     0.002 C 
ATOM     11  C   UNL d   1      23.756 -18.572  -0.278  0.00  0.00     0.000 C 
ATOM     12  C   UNL d   1      25.137 -18.430  -0.145  0.00  0.00     0.002 C 
ATOM     13  C   UNL d   1      25.757 -17.229  -0.519  0.00  0.00     0.029 C 
ENDBRANCH   6   8
ENDBRANCH   3   6
BRANCH   1  14
ATOM     14  O   UNL d   1      23.974 -14.077  -3.986  0.00  0.00    -0.393 OA
ATOM     15  H   UNL d   1      23.420 -13.626  -4.646  0.00  0.00     0.210 HD
ENDBRANCH   1  14
BRANCH   5  16
ATOM     16  N   UNL d   1      25.782 -11.897  -4.850  0.00  0.00    -0.383 N 
ATOM     17  H   UNL d   1      24.779 -11.745  -4.778  0.00  0.00     0.160 HD
BRANCH  16  18
ATOM     18  C   UNL d   1      26.339 -11.226  -5.942  0.00  0.00     0.028 A 
ATOM     19  C   UNL d   1      25.838  -9.954  -6.236  0.00  0.00     0.029 A 
ATOM     20  C   UNL d   1      26.287  -9.232  -7.347  0.00  0.00     0.002 A 
ATOM     21  C   UNL d   1      27.259  -9.765  -8.185  0.00  0.00     0.000 A 
ATOM     22  C   UNL d   1      27.736 -11.046  -7.944  0.00  0.00     0.002 A 
ATOM     23  C   UNL d   1      27.242 -11.777  -6.858  0.00  0.00     0.029 A 
ENDBRANCH  16  18
ENDBRANCH   5  16
TORSDOF 5
ENDMDL
MODEL 8
REMARK VINA RESULT:    -6.744      2.001      2.634
REMARK INTER + INTRA:          -9.386
REMARK INTER:                  -8.235
REMARK INTRA:                  -1.151
REMARK CONF_INDEPENDENT:        1.492
REMARK UNBOUND:                -1.151
REMARK  5 active torsions:
REMARK  status: ('A' for Active; 'I' for Inactive)
REMARK    1  A    between atoms: O_1  and  C_2 
REMARK    2  A    between atoms: C_4  and  N_5 
REMARK    3  A    between atoms: N_5  and  C_6 
REMARK    4  A    between atoms: C_13  and  N_14 
REMARK    5  A    between atoms: N_14  and  C_15 
ROOT
ATOM      1  C   UNL d   1      24.765 -16.718  -1.240  0.00  0.00     0.142 C 
ATOM      2  C   UNL d   1      23.655 -17.673  -1.609  0.00  0.00     0.059 C 
ATOM      3  C   UNL d   1      23.539 -18.629  -0.412  0.00  0.00     0.086 C 
ATOM      4  C   UNL d   1      24.931 -18.572   0.271  0.00  0.00     0.052 C 
ATOM      5  C   UNL d   1      25.798 -17.652  -0.616  0.00  0.00     0.112 C 
ENDROOT
BRANCH   3   6
ATOM      6  N   UNL d   1      22.458 -18.289   0.519  0.00  0.00    -0.385 N 
ATOM      7  H   UNL d   1      22.409 -17.318   0.821  0.00  0.00     0.160 HD
BRANCH   6   8
ATOM      8  C   UNL d   1      21.258 -18.991   0.605  0.00  0.00     0.028 C 
ATOM      9  C   UNL d   1      20.649 -19.324   1.824  0.00  0.00     0.029 C 
ATOM     10  C   UNL d   1      19.493 -20.110   1.877  0.00  0.00     0.002 C 
ATOM     11  C   UNL d   1      18.841 -20.459   0.709  0.00  0.00     0.000 C 
ATOM     12  C   UNL d   1      19.364 -20.051  -0.518  0.00  0.00     0.002 C 
ATOM     13  C   UNL d   1      20.568 -19.333  -0.562  0.00  0.00     0.029 C 
ENDBRANCH   6   8
ENDBRANCH   3   6
BRANCH   1  14
ATOM     14  O   UNL d   1      24.273 -15.753  -0.307  0.00  0.00    -0.393 OA
ATOM     15  H   UNL d   1      24.514 -16.060   0.584  0.00  0.00     0.210 HD
ENDBRANCH   1  14
BRANCH   5  16
ATOM     16  N   UNL d   1      26.901 -17.044   0.135  0.00  0.00    -0.383 N 
ATOM     17  H   UNL d   1      26.932 -17.288   1.122  0.00  0.00     0.160 HD
BRANCH  16  18
ATOM     18  C   UNL d   1      27.278 -15.717  -0.091  0.00  0.00     0.028 A 
ATOM     19  C   UNL d   1      27.065 -14.805   0.947  0.00  0.00     0.029 A 
ATOM     20  C   UNL d   1      27.350 -13.444   0.792  0.00  0.00     0.002 A 
ATOM     21  C   UNL d   1      27.868 -12.967  -0.406  0.00  0.00     0.000 A 
ATOM     22  C   UNL d   1      28.042 -13.843  -1.469  0.00  0.00     0.002 A 
ATOM     23  C   UNL d   1      27.705 -15.193  -1.317  0.00  0.00     0.029 A 
ENDBRANCH  16  18
ENDBRANCH   5  16
TORSDOF 5
ENDMDL
MODEL 9
REMARK VINA RESULT:    -6.714      5.332      8.118
REMARK INTER + INTRA:          -9.274
REMARK INTER:                  -8.205
REMARK INTRA:                  -1.069
REMARK CONF_INDEPENDENT:        1.492
REMARK UNBOUND:                -1.069
REMARK  5 active torsions:
REMARK  status: ('A' for Active; 'I' for Inactive)
REMARK    1  A    between atoms: O_1  and  C_2 
REMARK    2  A    between atoms: C_4  and  N_5 
REMARK    3  A    between atoms: N_5  and  C_6 
REMARK    4  A    between atoms: C_13  and  N_14 
REMARK    5  A    between atoms: N_14  and  C_15 
ROOT
ATOM      1  C   UNL d   1      29.120 -15.057  -0.180  0.00  0.00     0.142 C 
ATOM      2  C   UNL d   1      29.274 -13.934   0.817  0.00  0.00     0.059 C 
ATOM      3  C   UNL d   1      28.095 -14.101   1.788  0.00  0.00     0.086 C 
ATOM      4  C   UNL d   1      27.028 -14.882   0.978  0.00  0.00     0.052 C 
ATOM      5  C   UNL d   1      27.615 -15.052  -0.440  0.00  0.00     0.112 C 
ENDROOT
BRANCH   3   6
ATOM      6  N   UNL d   1      28.445 -14.785   3.038  0.00  0.00    -0.385 N 
ATOM      7  H   UNL d   1      29.082 -15.575   2.959  0.00  0.00     0.160 HD
BRANCH   6   8
ATOM      8  C   UNL d   1      28.418 -14.176   4.290  0.00  0.00     0.028 C 
ATOM      9  C   UNL d   1      27.780 -12.951   4.536  0.00  0.00     0.029 C 
ATOM     10  C   UNL d   1      27.852 -12.322   5.783  0.00  0.00     0.002 C 
ATOM     11  C   UNL d   1      28.443 -12.972   6.851  0.00  0.00     0.000 C 
ATOM     12  C   UNL d   1      28.992 -14.240   6.665  0.00  0.00     0.002 C 
ATOM     13  C   UNL d   1      28.988 -14.825   5.390  0.00  0.00     0.029 C 
ENDBRANCH   6   8
ENDBRANCH   3   6
BRANCH   1  14
ATOM     14  O   UNL d   1      29.563 -16.282   0.408  0.00  0.00    -0.393 OA
ATOM     15  H   UNL d   1      29.708 -16.116   1.356  0.00  0.00     0.210 HD
ENDBRANCH   1  14
BRANCH   5  16
ATOM     16  N   UNL d   1      27.041 -16.204  -1.140  0.00  0.00    -0.383 N 
ATOM     17  H   UNL d   1      27.208 -16.221  -2.144  0.00  0.00     0.160 HD
BRANCH  16  18
ATOM     18  C   UNL d   1      25.771 -16.686  -0.809  0.00  0.00     0.028 A 
ATOM     19  C   UNL d   1      25.708 -17.896  -0.111  0.00  0.00     0.029 A 
ATOM     20  C   UNL d   1      24.482 -18.491   0.207  0.00  0.00     0.002 A 
ATOM     21  C   UNL d   1      23.289 -17.879  -0.157  0.00  0.00     0.000 A 
ATOM     22  C   UNL d   1      23.325 -16.704  -0.894  0.00  0.00     0.002 A 
ATOM     23  C   UNL d   1      24.558 -16.146  -1.250  0.00  0.00     0.029 A 
ENDBRANCH  16  18
ENDBRANCH   5  16
TORSDOF 5
ENDMDL
