MODEL 1
REMARK VINA RESULT:    -9.177      0.000      0.000
REMARK INTER + INTRA:         -11.721
REMARK INTER:                 -10.967
REMARK INTRA:                  -0.754
REMARK CONF_INDEPENDENT:        1.790
REMARK UNBOUND:                -0.754
REMARK  6 active torsions:
REMARK  status: ('A' for Active; 'I' for Inactive)
REMARK       I    between atoms: N_1  and  C_2 
REMARK       I    between atoms: C_2  and  N_4 
REMARK    1  A    between atoms: N_4  and  C_5 
REMARK    2  A    between atoms: C_9  and  C_10 
REMARK       I    between atoms: C_10  and  N_12 
REMARK    3  A    between atoms: N_12  and  C_13 
REMARK    4  A    between atoms: C_16  and  O_17 
REMARK    5  A    between atoms: O_17  and  C_18 
REMARK    6  A    between atoms: C_18  and  C_19 
ROOT
ATOM      1  C   UNL d   1      26.280 -15.426  -3.639  0.00  0.00     0.256 C 
ATOM      2  O   UNL d   1      25.248 -15.554  -4.302  0.00  0.00    -0.267 OA
ATOM      3  N   UNL d   1      26.396 -15.803  -2.304  0.00  0.00    -0.322 N 
ATOM      4  H   UNL d   1      27.170 -15.472  -1.747  0.00  0.00     0.169 HD
ENDROOT
BRANCH   3   5
ATOM      5  C   UNL d   1      25.349 -16.435  -1.604  0.00  0.00     0.052 A 
ATOM      6  C   UNL d   1      25.595 -17.534  -0.798  0.00  0.00     0.035 A 
ATOM      7  C   UNL d   1      24.549 -18.137  -0.112  0.00  0.00     0.060 A 
ATOM      8  C   UNL d   1      23.263 -17.633  -0.256  0.00  0.00     0.164 A 
ATOM      9  N   UNL d   1      22.996 -16.552  -1.025  0.00  0.00    -0.235 NA
ATOM     10  C   UNL d   1      24.041 -15.971  -1.670  0.00  0.00     0.149 A 
BRANCH   8  11
ATOM     11  O   UNL d   1      22.157 -18.160   0.354  0.00  0.00    -0.330 OA
BRANCH  11  12
ATOM     12  C   UNL d   1      21.119 -18.592  -0.524  0.00  0.00     0.216 C 
BRANCH  12  13
ATOM     13  C   UNL d   1      20.157 -19.508   0.190  0.00  0.00    -0.034 A 
ATOM     14  C   UNL d   1      19.100 -20.104  -0.508  0.00  0.00     0.009 A 
ATOM     15  C   UNL d   1      18.124 -20.825   0.176  0.00  0.00     0.001 A 
ATOM     16  C   UNL d   1      18.236 -21.021   1.551  0.00  0.00     0.000 A 
ATOM     17  C   UNL d   1      19.296 -20.451   2.253  0.00  0.00     0.001 A 
ATOM     18  C   UNL d   1      20.245 -19.684   1.578  0.00  0.00     0.009 A 
ENDBRANCH  12  13
ENDBRANCH  11  12
ENDBRANCH   8  11
ENDBRANCH   3   5
BRANCH   1  19
ATOM     19  C   UNL d   1      27.443 -14.745  -4.282  0.00  0.00     0.034 A 
ATOM     20  C   UNL d   1      28.534 -14.371  -3.483  0.00  0.00     0.017 A 
ATOM     21  C   UNL d   1      29.670 -13.797  -4.059  0.00  0.00     0.003 A 
ATOM     22  C   UNL d   1      29.716 -13.563  -5.439  0.00  0.00     0.029 A 
ATOM     23  C   UNL d   1      28.630 -13.921  -6.241  0.00  0.00     0.037 A 
ATOM     24  C   UNL d   1      27.503 -14.503  -5.654  0.00  0.00     0.046 A 
BRANCH  23  25
ATOM     25  N   UNL d   1      28.680 -13.760  -7.645  0.00  0.00    -0.309 N 
ATOM     26  C   UNL d   1      28.886 -12.543  -8.243  0.00  0.00     0.318 C 
ATOM     27  N   UNL d   1      28.851 -12.556  -9.594  0.00  0.00    -0.352 N 
ATOM     28  O   UNL d   1      29.110 -11.478  -7.668  0.00  0.00    -0.247 OA
ATOM     29  H   UNL d   1      29.026 -11.667 -10.044  0.00  0.00     0.160 HD
ATOM     30  H   UNL d   1      28.648 -13.357 -10.170  0.00  0.00     0.160 HD
ATOM     31  H   UNL d   1      28.731 -14.590  -8.217  0.00  0.00     0.170 HD
ENDBRANCH  23  25
ENDBRANCH   1  19
TORSDOF 6
ENDMDL
MODEL 2
REMARK VINA RESULT:    -8.932      1.602      2.065
REMARK INTER + INTRA:         -11.478
REMARK INTER:                 -10.722
REMARK INTRA:                  -0.756
REMARK CONF_INDEPENDENT:        1.790
REMARK UNBOUND:                -0.756
REMARK  6 active torsions:
REMARK  status: ('A' for Active; 'I' for Inactive)
REMARK       I    between atoms: N_1  and  C_2 
REMARK       I    between atoms: C_2  and  N_4 
REMARK    1  A    between atoms: N_4  and  C_5 
REMARK    2  A    between atoms: C_9  and  C_10 
REMARK       I    between atoms: C_10  and  N_12 
REMARK    3  A    between atoms: N_12  and  C_13 
REMARK    4  A    between atoms: C_16  and  O_17 
REMARK    5  A    between atoms: O_17  and  C_18 
REMARK    6  A    between atoms: C_18  and  C_19 
ROOT
ATOM      1  C   UNL d   1      26.199 -15.145  -4.070  0.00  0.00     0.256 C 
ATOM      2  O   UNL d   1      25.155 -15.376  -4.685  0.00  0.00    -0.267 OA
ATOM      3  N   UNL d   1      26.413 -15.507  -2.744  0.00  0.00    -0.322 N 
ATOM      4  H   UNL d   1      27.176 -15.100  -2.221  0.00  0.00     0.169 HD
ENDROOT
BRANCH   3   5
ATOM      5  C   UNL d   1      25.467 -16.238  -1.997  0.00  0.00     0.052 A 
ATOM      6  C   UNL d   1      25.850 -17.338  -1.247  0.00  0.00     0.035 A 
ATOM      7  C   UNL d   1      24.902 -18.040  -0.515  0.00  0.00     0.060 A 
ATOM      8  C   UNL d   1      23.575 -17.632  -0.556  0.00  0.00     0.164 A 
ATOM      9  N   UNL d   1      23.175 -16.553  -1.267  0.00  0.00    -0.235 NA
ATOM     10  C   UNL d   1      24.126 -15.875  -1.960  0.00  0.00     0.149 A 
BRANCH   8  11
ATOM     11  O   UNL d   1      22.556 -18.261   0.108  0.00  0.00    -0.330 OA
BRANCH  11  12
ATOM     12  C   UNL d   1      21.447 -18.652  -0.699  0.00  0.00     0.216 C 
BRANCH  12  13
ATOM     13  C   UNL d   1      20.391 -19.334   0.132  0.00  0.00    -0.034 A 
ATOM     14  C   UNL d   1      20.478 -19.327   1.530  0.00  0.00     0.009 A 
ATOM     15  C   UNL d   1      19.592 -20.084   2.294  0.00  0.00     0.001 A 
ATOM     16  C   UNL d   1      18.564 -20.791   1.673  0.00  0.00     0.000 A 
ATOM     17  C   UNL d   1      18.453 -20.787   0.284  0.00  0.00     0.001 A 
ATOM     18  C   UNL d   1      19.372 -20.074  -0.485  0.00  0.00     0.009 A 
ENDBRANCH  12  13
ENDBRANCH  11  12
ENDBRANCH   8  11
ENDBRANCH   3   5
BRANCH   1  19
ATOM     19  C   UNL d   1      27.258 -14.354  -4.764  0.00  0.00     0.034 A 
ATOM     20  C   UNL d   1      27.417 -13.000  -4.434  0.00  0.00     0.017 A 
ATOM     21  C   UNL d   1      28.443 -12.246  -5.010  0.00  0.00     0.003 A 
ATOM     22  C   UNL d   1      29.304 -12.831  -5.946  0.00  0.00     0.029 A 
ATOM     23  C   UNL d   1      29.147 -14.176  -6.290  0.00  0.00     0.037 A 
ATOM     24  C   UNL d   1      28.122 -14.922  -5.700  0.00  0.00     0.046 A 
BRANCH  23  25
ATOM     25  N   UNL d   1      30.046 -14.808  -7.179  0.00  0.00    -0.309 N 
ATOM     26  C   UNL d   1      30.586 -16.043  -6.931  0.00  0.00     0.318 C 
ATOM     27  N   UNL d   1      31.469 -16.479  -7.857  0.00  0.00    -0.352 N 
ATOM     28  O   UNL d   1      30.327 -16.771  -5.972  0.00  0.00    -0.247 OA
ATOM     29  H   UNL d   1      31.854 -17.401  -7.693  0.00  0.00     0.160 HD
ATOM     30  H   UNL d   1      31.780 -15.962  -8.663  0.00  0.00     0.160 HD
ATOM     31  H   UNL d   1      30.162 -14.411  -8.100  0.00  0.00     0.170 HD
ENDBRANCH  23  25
ENDBRANCH   1  19
TORSDOF 6
ENDMDL
MODEL 3
REMARK VINA RESULT:    -8.504      4.752      6.687
REMARK INTER + INTRA:         -10.926
REMARK INTER:                 -10.294
REMARK INTRA:                  -0.632
REMARK CONF_INDEPENDENT:        1.790
REMARK UNBOUND:                -0.632
REMARK  6 active torsions:
REMARK  status: ('A' for Active; 'I' for Inactive)
REMARK       I    between atoms: N_1  and  C_2 
REMARK       I    between atoms: C_2  and  N_4 
REMARK    1  A    between atoms: N_4  and  C_5 
REMARK    2  A    between atoms: C_9  and  C_10 
REMARK       I    between atoms: C_10  and  N_12 
REMARK    3  A    between atoms: N_12  and  C_13 
REMARK    4  A    between atoms: C_16  and  O_17 
REMARK    5  A    between atoms: O_17  and  C_18 
REMARK    6  A    between atoms: C_18  and  C_19 
ROOT
ATOM      1  C   UNL d   1      27.300 -15.173   0.880  0.00  0.00     0.256 C 
ATOM      2  O   UNL d   1      26.379 -14.357   0.806  0.00  0.00    -0.267 OA
ATOM      3  N   UNL d   1      27.165 -16.525   0.577  0.00  0.00    -0.322 N 
ATOM      4  H   UNL d   1      27.869 -17.186   0.869  0.00  0.00     0.169 HD
ENDROOT
BRANCH   3   5
ATOM      5  C   UNL d   1      25.961 -17.072   0.089  0.00  0.00     0.052 A 
ATOM      6  C   UNL d   1      25.087 -16.307  -0.665  0.00  0.00     0.035 A 
ATOM      7  C   UNL d   1      23.909 -16.870  -1.141  0.00  0.00     0.060 A 
ATOM      8  C   UNL d   1      23.620 -18.194  -0.841  0.00  0.00     0.164 A 
ATOM      9  N   UNL d   1      24.462 -18.969  -0.119  0.00  0.00    -0.235 NA
ATOM     10  C   UNL d   1      25.615 -18.399   0.318  0.00  0.00     0.149 A 
BRANCH   8  11
ATOM     11  O   UNL d   1      22.482 -18.842  -1.238  0.00  0.00    -0.330 OA
BRANCH  11  12
ATOM     12  C   UNL d   1      21.257 -18.256  -0.803  0.00  0.00     0.216 C 
BRANCH  12  13
ATOM     13  C   UNL d   1      20.445 -19.239  -0.000  0.00  0.00    -0.034 A 
ATOM     14  C   UNL d   1      19.440 -19.995  -0.617  0.00  0.00     0.009 A 
ATOM     15  C   UNL d   1      18.587 -20.789   0.148  0.00  0.00     0.001 A 
ATOM     16  C   UNL d   1      18.780 -20.894   1.525  0.00  0.00     0.000 A 
ATOM     17  C   UNL d   1      19.791 -20.164   2.146  0.00  0.00     0.001 A 
ATOM     18  C   UNL d   1      20.611 -19.327   1.390  0.00  0.00     0.009 A 
ENDBRANCH  12  13
ENDBRANCH  11  12
ENDBRANCH   8  11
ENDBRANCH   3   5
BRANCH   1  19
ATOM     19  C   UNL d   1      28.614 -14.699   1.408  0.00  0.00     0.034 A 
ATOM     20  C   UNL d   1      29.599 -14.285   0.500  0.00  0.00     0.017 A 
ATOM     21  C   UNL d   1      30.813 -13.768   0.958  0.00  0.00     0.003 A 
ATOM     22  C   UNL d   1      31.069 -13.688   2.333  0.00  0.00     0.029 A 
ATOM     23  C   UNL d   1      30.098 -14.109   3.245  0.00  0.00     0.037 A 
ATOM     24  C   UNL d   1      28.883 -14.615   2.774  0.00  0.00     0.046 A 
BRANCH  23  25
ATOM     25  N   UNL d   1      30.303 -13.973   4.637  0.00  0.00    -0.309 N 
ATOM     26  C   UNL d   1      29.511 -14.595   5.567  0.00  0.00     0.318 C 
ATOM     27  N   UNL d   1      29.810 -14.317   6.855  0.00  0.00    -0.352 N 
ATOM     28  O   UNL d   1      28.588 -15.377   5.330  0.00  0.00    -0.247 OA
ATOM     29  H   UNL d   1      29.244 -14.791   7.547  0.00  0.00     0.160 HD
ATOM     30  H   UNL d   1      30.519 -13.674   7.169  0.00  0.00     0.160 HD
ATOM     31  H   UNL d   1      31.159 -13.539   4.952  0.00  0.00     0.170 HD
ENDBRANCH  23  25
ENDBRANCH   1  19
TORSDOF 6
ENDMDL
MODEL 4
REMARK VINA RESULT:    -8.437      2.664      2.809
REMARK INTER + INTRA:         -11.024
REMARK INTER:                 -10.227
REMARK INTRA:                  -0.796
REMARK CONF_INDEPENDENT:        1.790
REMARK UNBOUND:                -0.796
REMARK  6 active torsions:
REMARK  status: ('A' for Active; 'I' for Inactive)
REMARK       I    between atoms: N_1  and  C_2 
REMARK       I    between atoms: C_2  and  N_4 
REMARK    1  A    between atoms: N_4  and  C_5 
REMARK    2  A    between atoms: C_9  and  C_10 
REMARK       I    between atoms: C_10  and  N_12 
REMARK    3  A    between atoms: N_12  and  C_13 
REMARK    4  A    between atoms: C_16  and  O_17 
REMARK    5  A    between atoms: O_17  and  C_18 
REMARK    6  A    between atoms: C_18  and  C_19 
ROOT
ATOM      1  C   UNL d   1      25.765 -14.737  -3.420  0.00  0.00     0.256 C 
ATOM      2  O   UNL d   1      25.157 -15.383  -4.277  0.00  0.00    -0.267 OA
ATOM      3  N   UNL d   1      25.650 -14.962  -2.052  0.00  0.00    -0.322 N 
ATOM      4  H   UNL d   1      25.979 -14.273  -1.392  0.00  0.00     0.169 HD
ENDROOT
BRANCH   3   5
ATOM      5  C   UNL d   1      24.868 -16.008  -1.522  0.00  0.00     0.052 A 
ATOM      6  C   UNL d   1      25.457 -17.177  -1.068  0.00  0.00     0.035 A 
ATOM      7  C   UNL d   1      24.666 -18.192  -0.545  0.00  0.00     0.060 A 
ATOM      8  C   UNL d   1      23.289 -18.022  -0.494  0.00  0.00     0.164 A 
ATOM      9  N   UNL d   1      22.688 -16.886  -0.915  0.00  0.00    -0.235 NA
ATOM     10  C   UNL d   1      23.487 -15.902  -1.407  0.00  0.00     0.149 A 
BRANCH   8  11
ATOM     11  O   UNL d   1      22.415 -18.962  -0.019  0.00  0.00    -0.330 OA
BRANCH  11  12
ATOM     12  C   UNL d   1      21.133 -18.979  -0.643  0.00  0.00     0.216 C 
BRANCH  12  13
ATOM     13  C   UNL d   1      20.143 -19.762   0.181  0.00  0.00    -0.034 A 
ATOM     14  C   UNL d   1      19.044 -20.377  -0.430  0.00  0.00     0.009 A 
ATOM     15  C   UNL d   1      18.048 -20.969   0.344  0.00  0.00     0.001 A 
ATOM     16  C   UNL d   1      18.180 -21.018   1.731  0.00  0.00     0.000 A 
ATOM     17  C   UNL d   1      19.280 -20.428   2.349  0.00  0.00     0.001 A 
ATOM     18  C   UNL d   1      20.250 -19.789   1.580  0.00  0.00     0.009 A 
ENDBRANCH  12  13
ENDBRANCH  11  12
ENDBRANCH   8  11
ENDBRANCH   3   5
BRANCH   1  19
ATOM     19  C   UNL d   1      26.605 -13.590  -3.876  0.00  0.00     0.034 A 
ATOM     20  C   UNL d   1      27.958 -13.816  -4.167  0.00  0.00     0.017 A 
ATOM     21  C   UNL d   1      28.759 -12.784  -4.665  0.00  0.00     0.003 A 
ATOM     22  C   UNL d   1      28.221 -11.504  -4.846  0.00  0.00     0.029 A 
ATOM     23  C   UNL d   1      26.878 -11.265  -4.548  0.00  0.00     0.037 A 
ATOM     24  C   UNL d   1      26.085 -12.309  -4.060  0.00  0.00     0.046 A 
BRANCH  23  25
ATOM     25  N   UNL d   1      26.294 -10.001  -4.789  0.00  0.00    -0.309 N 
ATOM     26  C   UNL d   1      25.566  -9.329  -3.842  0.00  0.00     0.318 C 
ATOM     27  N   UNL d   1      25.032  -8.157  -4.254  0.00  0.00    -0.352 N 
ATOM     28  O   UNL d   1      25.380  -9.687  -2.678  0.00  0.00    -0.247 OA
ATOM     29  H   UNL d   1      24.513  -7.643  -3.552  0.00  0.00     0.160 HD
ATOM     30  H   UNL d   1      25.091  -7.778  -5.185  0.00  0.00     0.160 HD
ATOM     31  H   UNL d   1      26.562  -9.506  -5.628  0.00  0.00     0.170 HD
ENDBRANCH  23  25
ENDBRANCH   1  19
TORSDOF 6
ENDMDL
MODEL 5
REMARK VINA RESULT:    -8.152      7.793     10.525
REMARK INTER + INTRA:         -10.876
REMARK INTER:                  -9.942
REMARK INTRA:                  -0.934
REMARK CONF_INDEPENDENT:        1.790
REMARK UNBOUND:                -0.934
REMARK  6 active torsions:
REMARK  status: ('A' for Active; 'I' for Inactive)
REMARK       I    between atoms: N_1  and  C_2 
REMARK       I    between atoms: C_2  and  N_4 
REMARK    1  A    between atoms: N_4  and  C_5 
REMARK    2  A    between atoms: C_9  and  C_10 
REMARK       I    between atoms: C_10  and  N_12 
REMARK    3  A    between atoms: N_12  and  C_13 
REMARK    4  A    between atoms: C_16  and  O_17 
REMARK    5  A    between atoms: O_17  and  C_18 
REMARK    6  A    between atoms: C_18  and  C_19 
ROOT
ATOM      1  C   UNL d   1      28.245 -14.070   5.206  0.00  0.00     0.256 C 
ATOM      2  O   UNL d   1      27.744 -15.198   5.209  0.00  0.00    -0.267 OA
ATOM      3  N   UNL d   1      28.328 -13.261   4.077  0.00  0.00    -0.322 N 
ATOM      4  H   UNL d   1      28.941 -12.459   4.068  0.00  0.00     0.169 HD
ENDROOT
BRANCH   3   5
ATOM      5  C   UNL d   1      27.780 -13.639   2.835  0.00  0.00     0.052 A 
ATOM      6  C   UNL d   1      28.155 -14.825   2.224  0.00  0.00     0.035 A 
ATOM      7  C   UNL d   1      27.597 -15.180   1.003  0.00  0.00     0.060 A 
ATOM      8  C   UNL d   1      26.676 -14.331   0.404  0.00  0.00     0.164 A 
ATOM      9  N   UNL d   1      26.280 -13.175   0.985  0.00  0.00    -0.235 NA
ATOM     10  C   UNL d   1      26.828 -12.861   2.187  0.00  0.00     0.149 A 
BRANCH   8  11
ATOM     11  O   UNL d   1      26.081 -14.570  -0.805  0.00  0.00    -0.330 OA
BRANCH  11  12
ATOM     12  C   UNL d   1      26.242 -15.891  -1.319  0.00  0.00     0.216 C 
BRANCH  12  13
ATOM     13  C   UNL d   1      25.023 -16.731  -1.039  0.00  0.00    -0.034 A 
ATOM     14  C   UNL d   1      23.741 -16.194  -1.211  0.00  0.00     0.009 A 
ATOM     15  C   UNL d   1      22.618 -16.914  -0.808  0.00  0.00     0.001 A 
ATOM     16  C   UNL d   1      22.760 -18.204  -0.301  0.00  0.00     0.000 A 
ATOM     17  C   UNL d   1      24.030 -18.756  -0.145  0.00  0.00     0.001 A 
ATOM     18  C   UNL d   1      25.158 -18.018  -0.498  0.00  0.00     0.009 A 
ENDBRANCH  12  13
ENDBRANCH  11  12
ENDBRANCH   8  11
ENDBRANCH   3   5
BRANCH   1  19
ATOM     19  C   UNL d   1      28.875 -13.583   6.469  0.00  0.00     0.034 A 
ATOM     20  C   UNL d   1      28.198 -12.624   7.236  0.00  0.00     0.017 A 
ATOM     21  C   UNL d   1      28.722 -12.197   8.460  0.00  0.00     0.003 A 
ATOM     22  C   UNL d   1      29.947 -12.702   8.914  0.00  0.00     0.029 A 
ATOM     23  C   UNL d   1      30.634 -13.649   8.151  0.00  0.00     0.037 A 
ATOM     24  C   UNL d   1      30.094 -14.076   6.934  0.00  0.00     0.046 A 
BRANCH  23  25
ATOM     25  N   UNL d   1      31.835 -14.227   8.621  0.00  0.00    -0.309 N 
ATOM     26  C   UNL d   1      31.862 -15.190   9.597  0.00  0.00     0.318 C 
ATOM     27  N   UNL d   1      33.096 -15.597   9.967  0.00  0.00    -0.352 N 
ATOM     28  O   UNL d   1      30.882 -15.709  10.133  0.00  0.00    -0.247 OA
ATOM     29  H   UNL d   1      33.123 -16.325  10.671  0.00  0.00     0.160 HD
ATOM     30  H   UNL d   1      33.966 -15.226   9.623  0.00  0.00     0.160 HD
ATOM     31  H   UNL d   1      32.684 -14.045   8.105  0.00  0.00     0.170 HD
ENDBRANCH  23  25
ENDBRANCH   1  19
TORSDOF 6
ENDMDL
MODEL 6
REMARK VINA RESULT:    -8.143      4.136      5.257
REMARK INTER + INTRA:         -10.672
REMARK INTER:                  -9.933
REMARK INTRA:                  -0.739
REMARK CONF_INDEPENDENT:        1.790
REMARK UNBOUND:                -0.739
REMARK  6 active torsions:
REMARK  status: ('A' for Active; 'I' for Inactive)
REMARK       I    between atoms: N_1  and  C_2 
REMARK       I    between atoms: C_2  and  N_4 
REMARK    1  A    between atoms: N_4  and  C_5 
REMARK    2  A    between atoms: C_9  and  C_10 
REMARK       I    between atoms: C_10  and  N_12 
REMARK    3  A    between atoms: N_12  and  C_13 
REMARK    4  A    between atoms: C_16  and  O_17 
REMARK    5  A    between atoms: O_17  and  C_18 
REMARK    6  A    between atoms: C_18  and  C_19 
ROOT
ATOM      1  C   UNL d   1      26.624 -15.176  -0.768  0.00  0.00     0.256 C 
ATOM      2  O   UNL d   1      26.240 -15.006  -1.928  0.00  0.00    -0.267 OA
ATOM      3  N   UNL d   1      26.048 -16.084   0.114  0.00  0.00    -0.322 N 
ATOM      4  H   UNL d   1      26.239 -16.026   1.104  0.00  0.00     0.169 HD
ENDROOT
BRANCH   3   5
ATOM      5  C   UNL d   1      25.002 -16.948  -0.267  0.00  0.00     0.052 A 
ATOM      6  C   UNL d   1      25.098 -18.315  -0.061  0.00  0.00     0.035 A 
ATOM      7  C   UNL d   1      24.052 -19.147  -0.439  0.00  0.00     0.060 A 
ATOM      8  C   UNL d   1      22.926 -18.593  -1.032  0.00  0.00     0.164 A 
ATOM      9  N   UNL d   1      22.798 -17.261  -1.232  0.00  0.00    -0.235 NA
ATOM     10  C   UNL d   1      23.828 -16.469  -0.836  0.00  0.00     0.149 A 
BRANCH   8  11
ATOM     11  O   UNL d   1      21.847 -19.319  -1.463  0.00  0.00    -0.330 OA
BRANCH  11  12
ATOM     12  C   UNL d   1      20.576 -18.702  -1.270  0.00  0.00     0.216 C 
BRANCH  12  13
ATOM     13  C   UNL d   1      19.804 -19.390  -0.174  0.00  0.00    -0.034 A 
ATOM     14  C   UNL d   1      20.251 -19.325   1.152  0.00  0.00     0.009 A 
ATOM     15  C   UNL d   1      19.629 -20.084   2.142  0.00  0.00     0.001 A 
ATOM     16  C   UNL d   1      18.510 -20.853   1.831  0.00  0.00     0.000 A 
ATOM     17  C   UNL d   1      18.042 -20.908   0.519  0.00  0.00     0.001 A 
ATOM     18  C   UNL d   1      18.696 -20.192  -0.483  0.00  0.00     0.009 A 
ENDBRANCH  12  13
ENDBRANCH  11  12
ENDBRANCH   8  11
ENDBRANCH   3   5
BRANCH   1  19
ATOM     19  C   UNL d   1      27.715 -14.293  -0.257  0.00  0.00     0.034 A 
ATOM     20  C   UNL d   1      27.715 -12.939  -0.621  0.00  0.00     0.017 A 
ATOM     21  C   UNL d   1      28.677 -12.066  -0.105  0.00  0.00     0.003 A 
ATOM     22  C   UNL d   1      29.671 -12.547   0.756  0.00  0.00     0.029 A 
ATOM     23  C   UNL d   1      29.686 -13.896   1.115  0.00  0.00     0.037 A 
ATOM     24  C   UNL d   1      28.712 -14.757   0.601  0.00  0.00     0.046 A 
BRANCH  23  25
ATOM     25  N   UNL d   1      30.635 -14.392   2.039  0.00  0.00    -0.309 N 
ATOM     26  C   UNL d   1      31.772 -13.702   2.373  0.00  0.00     0.318 C 
ATOM     27  N   UNL d   1      32.599 -14.342   3.230  0.00  0.00    -0.352 N 
ATOM     28  O   UNL d   1      32.082 -12.576   1.981  0.00  0.00    -0.247 OA
ATOM     29  H   UNL d   1      33.429 -13.829   3.500  0.00  0.00     0.160 HD
ATOM     30  H   UNL d   1      32.466 -15.272   3.592  0.00  0.00     0.160 HD
ATOM     31  H   UNL d   1      30.384 -15.198   2.592  0.00  0.00     0.170 HD
ENDBRANCH  23  25
ENDBRANCH   1  19
TORSDOF 6
ENDMDL
MODEL 7
REMARK VINA RESULT:    -7.940      7.362     10.222
REMARK INTER + INTRA:         -10.532
REMARK INTER:                  -9.730
REMARK INTRA:                  -0.802
REMARK CONF_INDEPENDENT:        1.790
REMARK UNBOUND:                -0.802
REMARK  6 active torsions:
REMARK  status: ('A' for Active; 'I' for Inactive)
REMARK       I    between atoms: N_1  and  C_2 
REMARK       I    between atoms: C_2  and  N_4 
REMARK    1  A    between atoms: N_4  and  C_5 
REMARK    2  A    between atoms: C_9  and  C_10 
REMARK       I    between atoms: C_10  and  N_12 
REMARK    3  A    between atoms: N_12  and  C_13 
REMARK    4  A    between atoms: C_16  and  O_17 
REMARK    5  A    between atoms: O_17  and  C_18 
REMARK    6  A    between atoms: C_18  and  C_19 
ROOT
ATOM      1  C   UNL d   1      28.335 -13.355   4.406  0.00  0.00     0.256 C 
ATOM      2  O   UNL d   1      27.468 -12.485   4.295  0.00  0.00    -0.267 OA
ATOM      3  N   UNL d   1      28.557 -14.354   3.462  0.00  0.00    -0.322 N 
ATOM      4  H   UNL d   1      29.108 -15.165   3.698  0.00  0.00     0.169 HD
ENDROOT
BRANCH   3   5
ATOM      5  C   UNL d   1      27.843 -14.418   2.248  0.00  0.00     0.052 A 
ATOM      6  C   UNL d   1      27.162 -13.312   1.765  0.00  0.00     0.035 A 
ATOM      7  C   UNL d   1      26.471 -13.397   0.564  0.00  0.00     0.060 A 
ATOM      8  C   UNL d   1      26.462 -14.598  -0.132  0.00  0.00     0.164 A 
ATOM      9  N   UNL d   1      27.130 -15.689   0.309  0.00  0.00    -0.235 NA
ATOM     10  C   UNL d   1      27.813 -15.574   1.477  0.00  0.00     0.149 A 
BRANCH   8  11
ATOM     11  O   UNL d   1      25.798 -14.800  -1.311  0.00  0.00    -0.330 OA
BRANCH  11  12
ATOM     12  C   UNL d   1      25.744 -16.152  -1.762  0.00  0.00     0.216 C 
BRANCH  12  13
ATOM     13  C   UNL d   1      24.614 -16.897  -1.099  0.00  0.00    -0.034 A 
ATOM     14  C   UNL d   1      24.807 -18.202  -0.630  0.00  0.00     0.009 A 
ATOM     15  C   UNL d   1      23.728 -18.946  -0.156  0.00  0.00     0.001 A 
ATOM     16  C   UNL d   1      22.463 -18.367  -0.077  0.00  0.00     0.000 A 
ATOM     17  C   UNL d   1      22.263 -17.061  -0.520  0.00  0.00     0.001 A 
ATOM     18  C   UNL d   1      23.331 -16.334  -1.043  0.00  0.00     0.009 A 
ENDBRANCH  12  13
ENDBRANCH  11  12
ENDBRANCH   8  11
ENDBRANCH   3   5
BRANCH   1  19
ATOM     19  C   UNL d   1      29.132 -13.390   5.667  0.00  0.00     0.034 A 
ATOM     20  C   UNL d   1      30.365 -12.721   5.707  0.00  0.00     0.017 A 
ATOM     21  C   UNL d   1      31.106 -12.670   6.890  0.00  0.00     0.003 A 
ATOM     22  C   UNL d   1      30.637 -13.315   8.041  0.00  0.00     0.029 A 
ATOM     23  C   UNL d   1      29.417 -13.994   8.009  0.00  0.00     0.037 A 
ATOM     24  C   UNL d   1      28.679 -14.029   6.821  0.00  0.00     0.046 A 
BRANCH  23  25
ATOM     25  N   UNL d   1      28.888 -14.594   9.175  0.00  0.00    -0.309 N 
ATOM     26  C   UNL d   1      28.191 -13.886  10.120  0.00  0.00     0.318 C 
ATOM     27  N   UNL d   1      27.801 -14.600  11.199  0.00  0.00    -0.352 N 
ATOM     28  O   UNL d   1      27.887 -12.694  10.058  0.00  0.00    -0.247 OA
ATOM     29  H   UNL d   1      27.266 -14.090  11.890  0.00  0.00     0.160 HD
ATOM     30  H   UNL d   1      28.016 -15.569  11.373  0.00  0.00     0.160 HD
ATOM     31  H   UNL d   1      28.880 -15.602   9.229  0.00  0.00     0.170 HD
ENDBRANCH  23  25
ENDBRANCH   1  19
TORSDOF 6
ENDMDL
MODEL 8
REMARK VINA RESULT:    -7.726      4.340     10.269
REMARK INTER + INTRA:         -10.308
REMARK INTER:                  -9.515
REMARK INTRA:                  -0.793
REMARK CONF_INDEPENDENT:        1.790
REMARK UNBOUND:                -0.793
REMARK  6 active torsions:
REMARK  status: ('A' for Active; 'I' for Inactive)
REMARK       I    between atoms: N_1  and  C_2 
REMARK       I    between atoms: C_2  and  N_4 
REMARK    1  A    between atoms: N_4  and  C_5 
REMARK    2  A    between atoms: C_9  and  C_10 
REMARK       I    between atoms: C_10  and  N_12 
REMARK    3  A    between atoms: N_12  and  C_13 
REMARK    4  A    between atoms: C_16  and  O_17 
REMARK    5  A    between atoms: O_17  and  C_18 
REMARK    6  A    between atoms: C_18  and  C_19 
ROOT
ATOM      1  C   UNL d   1      25.227 -15.384  -2.586  0.00  0.00     0.256 C 
ATOM      2  O   UNL d   1      25.186 -15.627  -3.794  0.00  0.00    -0.267 OA
ATOM      3  N   UNL d   1      25.614 -14.159  -2.053  0.00  0.00    -0.322 N 
ATOM      4  H   UNL d   1      25.851 -14.080  -1.075  0.00  0.00     0.169 HD
ENDROOT
BRANCH   3   5
ATOM      5  C   UNL d   1      25.935 -13.051  -2.863  0.00  0.00     0.052 A 
ATOM      6  C   UNL d   1      25.504 -12.983  -4.178  0.00  0.00     0.035 A 
ATOM      7  C   UNL d   1      25.827 -11.879  -4.955  0.00  0.00     0.060 A 
ATOM      8  C   UNL d   1      26.592 -10.860  -4.403  0.00  0.00     0.164 A 
ATOM      9  N   UNL d   1      27.013 -10.892  -3.118  0.00  0.00    -0.235 NA
ATOM     10  C   UNL d   1      26.668 -11.976  -2.375  0.00  0.00     0.149 A 
BRANCH   8  11
ATOM     11  O   UNL d   1      26.986  -9.739  -5.082  0.00  0.00    -0.330 OA
BRANCH  11  12
ATOM     12  C   UNL d   1      26.116  -9.318  -6.131  0.00  0.00     0.216 C 
BRANCH  12  13
ATOM     13  C   UNL d   1      25.100  -8.328  -5.624  0.00  0.00    -0.034 A 
ATOM     14  C   UNL d   1      23.800  -8.322  -6.144  0.00  0.00     0.009 A 
ATOM     15  C   UNL d   1      22.906  -7.313  -5.790  0.00  0.00     0.001 A 
ATOM     16  C   UNL d   1      23.277  -6.347  -4.857  0.00  0.00     0.000 A 
ATOM     17  C   UNL d   1      24.562  -6.356  -4.316  0.00  0.00     0.001 A 
ATOM     18  C   UNL d   1      25.475  -7.333  -4.709  0.00  0.00     0.009 A 
ENDBRANCH  12  13
ENDBRANCH  11  12
ENDBRANCH   8  11
ENDBRANCH   3   5
BRANCH   1  19
ATOM     19  C   UNL d   1      24.926 -16.500  -1.639  0.00  0.00     0.034 A 
ATOM     20  C   UNL d   1      25.993 -17.191  -1.048  0.00  0.00     0.017 A 
ATOM     21  C   UNL d   1      25.752 -18.192  -0.103  0.00  0.00     0.003 A 
ATOM     22  C   UNL d   1      24.438 -18.535   0.237  0.00  0.00     0.029 A 
ATOM     23  C   UNL d   1      23.368 -17.861  -0.355  0.00  0.00     0.037 A 
ATOM     24  C   UNL d   1      23.622 -16.853  -1.291  0.00  0.00     0.046 A 
BRANCH  23  25
ATOM     25  N   UNL d   1      22.035 -18.139   0.024  0.00  0.00    -0.309 N 
ATOM     26  C   UNL d   1      21.163 -18.823  -0.784  0.00  0.00     0.318 C 
ATOM     27  N   UNL d   1      19.911 -18.956  -0.293  0.00  0.00    -0.352 N 
ATOM     28  O   UNL d   1      21.426 -19.325  -1.878  0.00  0.00    -0.247 OA
ATOM     29  H   UNL d   1      19.268 -19.481  -0.872  0.00  0.00     0.160 HD
ATOM     30  H   UNL d   1      19.573 -18.566   0.572  0.00  0.00     0.160 HD
ATOM     31  H   UNL d   1      21.769 -17.974   0.984  0.00  0.00     0.170 HD
ENDBRANCH  23  25
ENDBRANCH   1  19
TORSDOF 6
ENDMDL
MODEL 9
REMARK VINA RESULT:    -7.671      4.862      6.140
REMARK INTER + INTRA:         -10.456
REMARK INTER:                  -9.461
REMARK INTRA:                  -0.995
REMARK CONF_INDEPENDENT:        1.790
REMARK UNBOUND:                -0.995
REMARK  6 active torsions:
REMARK  status: ('A' for Active; 'I' for Inactive)
REMARK       I    between atoms: N_1  and  C_2 
REMARK       I    between atoms: C_2  and  N_4 
REMARK    1  A    between atoms: N_4  and  C_5 
REMARK    2  A    between atoms: C_9  and  C_10 
REMARK       I    between atoms: C_10  and  N_12 
REMARK    3  A    between atoms: N_12  and  C_13 
REMARK    4  A    between atoms: C_16  and  O_17 
REMARK    5  A    between atoms: O_17  and  C_18 
REMARK    6  A    between atoms: C_18  and  C_19 
ROOT
ATOM      1  C   UNL d   1      26.419 -11.047  -4.565  0.00  0.00     0.256 C 
ATOM      2  O   UNL d   1      27.629 -11.224  -4.403  0.00  0.00    -0.267 OA
ATOM      3  N   UNL d   1      25.445 -11.974  -4.209  0.00  0.00    -0.322 N 
ATOM      4  H   UNL d   1      24.504 -11.888  -4.564  0.00  0.00     0.169 HD
ENDROOT
BRANCH   3   5
ATOM      5  C   UNL d   1      25.757 -13.187  -3.562  0.00  0.00     0.052 A 
ATOM      6  C   UNL d   1      25.661 -14.395  -4.233  0.00  0.00     0.035 A 
ATOM      7  C   UNL d   1      25.980 -15.577  -3.577  0.00  0.00     0.060 A 
ATOM      8  C   UNL d   1      26.382 -15.530  -2.249  0.00  0.00     0.164 A 
ATOM      9  N   UNL d   1      26.500 -14.363  -1.574  0.00  0.00    -0.235 NA
ATOM     10  C   UNL d   1      26.198 -13.221  -2.245  0.00  0.00     0.149 A 
BRANCH   8  11
ATOM     11  O   UNL d   1      26.699 -16.631  -1.501  0.00  0.00    -0.330 OA
BRANCH  11  12
ATOM     12  C   UNL d   1      26.080 -16.702  -0.218  0.00  0.00     0.216 C 
BRANCH  12  13
ATOM     13  C   UNL d   1      24.673 -17.231  -0.327  0.00  0.00    -0.034 A 
ATOM     14  C   UNL d   1      24.420 -18.600  -0.181  0.00  0.00     0.009 A 
ATOM     15  C   UNL d   1      23.148 -19.111  -0.433  0.00  0.00     0.001 A 
ATOM     16  C   UNL d   1      22.101 -18.249  -0.757  0.00  0.00     0.000 A 
ATOM     17  C   UNL d   1      22.337 -16.881  -0.883  0.00  0.00     0.001 A 
ATOM     18  C   UNL d   1      23.621 -16.375  -0.684  0.00  0.00     0.009 A 
ENDBRANCH  12  13
ENDBRANCH  11  12
ENDBRANCH   8  11
ENDBRANCH   3   5
BRANCH   1  19
ATOM     19  C   UNL d   1      25.982  -9.801  -5.263  0.00  0.00     0.034 A 
ATOM     20  C   UNL d   1      26.788  -9.282  -6.288  0.00  0.00     0.017 A 
ATOM     21  C   UNL d   1      26.377  -8.160  -7.012  0.00  0.00     0.003 A 
ATOM     22  C   UNL d   1      25.170  -7.524  -6.699  0.00  0.00     0.029 A 
ATOM     23  C   UNL d   1      24.366  -8.026  -5.672  0.00  0.00     0.037 A 
ATOM     24  C   UNL d   1      24.783  -9.156  -4.961  0.00  0.00     0.046 A 
BRANCH  23  25
ATOM     25  N   UNL d   1      23.110  -7.446  -5.383  0.00  0.00    -0.309 N 
ATOM     26  C   UNL d   1      22.982  -6.220  -4.782  0.00  0.00     0.318 C 
ATOM     27  N   UNL d   1      21.711  -5.836  -4.529  0.00  0.00    -0.352 N 
ATOM     28  O   UNL d   1      23.902  -5.457  -4.481  0.00  0.00    -0.247 OA
ATOM     29  H   UNL d   1      21.607  -4.921  -4.107  0.00  0.00     0.160 HD
ATOM     30  H   UNL d   1      20.885  -6.384  -4.703  0.00  0.00     0.160 HD
ATOM     31  H   UNL d   1      22.286  -7.872  -5.782  0.00  0.00     0.170 HD
ENDBRANCH  23  25
ENDBRANCH   1  19
TORSDOF 6
ENDMDL
