MODEL 1
REMARK VINA RESULT:    -9.343      0.000      0.000
REMARK INTER + INTRA:         -13.051
REMARK INTER:                 -11.431
REMARK INTRA:                  -1.621
REMARK CONF_INDEPENDENT:        2.088
REMARK UNBOUND:                -1.621
REMARK  7 active torsions:
REMARK  status: ('A' for Active; 'I' for Inactive)
REMARK    1  A    between atoms: C_5  and  N_6 
REMARK       I    between atoms: N_6  and  C_7 
REMARK    2  A    between atoms: C_7  and  C_9 
REMARK    3  A    between atoms: C_9  and  C_10 
REMARK    4  A    between atoms: C_10  and  C_11 
REMARK    5  A    between atoms: C_13  and  C_14 
REMARK    6  A    between atoms: C_14  and  S_15 
REMARK    7  A    between atoms: S_15  and  C_16 
ROOT
ATOM      1  C   UNL d   1      25.048 -15.209  -2.684  0.00  0.00     0.173 A 
ATOM      2  N   UNL d   1      25.255 -13.944  -2.945  0.00  0.00    -0.208 NA
ATOM      3  C   UNL d   1      25.570 -13.962  -4.269  0.00  0.00     0.165 A 
ATOM      4  N   UNL d   1      25.536 -15.168  -4.845  0.00  0.00    -0.110 NA
ATOM      5  O   UNL d   1      25.192 -16.015  -3.776  0.00  0.00    -0.196 OA
ENDROOT
BRANCH   1   6
ATOM      6  C   UNL d   1      24.684 -15.788  -1.379  0.00  0.00     0.098 C 
BRANCH   6   7
ATOM      7  C   UNL d   1      25.182 -17.214  -1.122  0.00  0.00     0.111 C 
BRANCH   7   8
ATOM      8  C   UNL d   1      24.070 -17.955  -0.409  0.00  0.00     0.222 C 
ATOM      9  N   UNL d   1      22.858 -18.053  -1.076  0.00  0.00    -0.327 N 
ATOM     10  H   UNL d   1      22.763 -17.647  -2.000  0.00  0.00     0.169 HD
ATOM     11  O   UNL d   1      24.317 -18.415   0.707  0.00  0.00    -0.273 OA
BRANCH   9  12
ATOM     12  C   UNL d   1      21.710 -18.727  -0.555  0.00  0.00     0.035 A 
ATOM     13  C   UNL d   1      20.689 -19.182  -1.389  0.00  0.00     0.030 A 
ATOM     14  C   UNL d   1      19.548 -19.802  -0.895  0.00  0.00     0.009 A 
ATOM     15  C   UNL d   1      19.389 -20.007   0.470  0.00  0.00    -0.056 A 
ATOM     16  C   UNL d   1      18.123 -20.663   0.943  0.00  0.00     0.049 C 
ATOM     17  C   UNL d   1      20.416 -19.595   1.344  0.00  0.00    -0.054 A 
ATOM     18  C   UNL d   1      21.569 -18.950   0.824  0.00  0.00     0.037 A 
ATOM     19  C   UNL d   1      20.281 -19.850   2.823  0.00  0.00     0.049 C 
ENDBRANCH   9  12
ENDBRANCH   7   8
ENDBRANCH   6   7
ENDBRANCH   1   6
BRANCH   3  20
ATOM     20  C   UNL d   1      25.893 -12.715  -5.009  0.00  0.00     0.160 C 
BRANCH  20  21
ATOM     21  S   UNL d   1      27.674 -12.730  -5.561  0.00  0.00    -0.115 SA
BRANCH  21  22
ATOM     22  C   UNL d   1      27.904 -14.369  -6.264  0.00  0.00     0.247 A 
ATOM     23  N   UNL d   1      29.041 -14.553  -7.187  0.00  0.00    -0.359 N 
ATOM     24  C   UNL d   1      29.852 -15.416  -6.707  0.00  0.00     0.057 A 
ATOM     25  H   UNL d   1      29.220 -14.040  -8.050  0.00  0.00     0.162 HD
ATOM     26  C   UNL d   1      31.149 -15.826  -7.208  0.00  0.00     0.031 A 
ATOM     27  C   UNL d   1      29.282 -15.993  -5.456  0.00  0.00     0.057 A 
ATOM     28  C   UNL d   1      31.769 -16.765  -6.479  0.00  0.00     0.002 A 
ATOM     29  C   UNL d   1      31.214 -17.357  -5.272  0.00  0.00     0.002 A 
ATOM     30  C   UNL d   1      30.026 -17.024  -4.737  0.00  0.00     0.031 A 
ATOM     31  N   UNL d   1      28.155 -15.431  -5.228  0.00  0.00    -0.359 N 
ATOM     32  H   UNL d   1      27.554 -15.636  -4.425  0.00  0.00     0.162 HD
ENDBRANCH  21  22
ENDBRANCH  20  21
ENDBRANCH   3  20
TORSDOF 7
ENDMDL
MODEL 2
REMARK VINA RESULT:    -7.777      4.465      6.361
REMARK INTER + INTRA:         -12.302
REMARK INTER:                  -9.865
REMARK INTRA:                  -2.437
REMARK CONF_INDEPENDENT:        2.088
REMARK UNBOUND:                -2.437
REMARK  7 active torsions:
REMARK  status: ('A' for Active; 'I' for Inactive)
REMARK    1  A    between atoms: C_5  and  N_6 
REMARK       I    between atoms: N_6  and  C_7 
REMARK    2  A    between atoms: C_7  and  C_9 
REMARK    3  A    between atoms: C_9  and  C_10 
REMARK    4  A    between atoms: C_10  and  C_11 
REMARK    5  A    between atoms: C_13  and  C_14 
REMARK    6  A    between atoms: C_14  and  S_15 
REMARK    7  A    between atoms: S_15  and  C_16 
ROOT
ATOM      1  C   UNL d   1      25.834 -14.836  -2.306  0.00  0.00     0.173 A 
ATOM      2  N   UNL d   1      26.219 -13.635  -2.656  0.00  0.00    -0.208 NA
ATOM      3  C   UNL d   1      25.780 -13.546  -3.941  0.00  0.00     0.165 A 
ATOM      4  N   UNL d   1      25.117 -14.616  -4.391  0.00  0.00    -0.110 NA
ATOM      5  O   UNL d   1      25.158 -15.493  -3.293  0.00  0.00    -0.196 OA
ENDROOT
BRANCH   1   6
ATOM      6  C   UNL d   1      26.056 -15.484  -1.002  0.00  0.00     0.098 C 
BRANCH   6   7
ATOM      7  C   UNL d   1      27.462 -15.326  -0.412  0.00  0.00     0.111 C 
BRANCH   7   8
ATOM      8  C   UNL d   1      27.322 -14.545   0.878  0.00  0.00     0.222 C 
ATOM      9  N   UNL d   1      28.211 -14.859   1.896  0.00  0.00    -0.327 N 
ATOM     10  H   UNL d   1      28.915 -15.573   1.741  0.00  0.00     0.169 HD
ATOM     11  O   UNL d   1      26.435 -13.694   0.935  0.00  0.00    -0.273 OA
BRANCH   9  12
ATOM     12  C   UNL d   1      28.227 -14.213   3.171  0.00  0.00     0.035 A 
ATOM     13  C   UNL d   1      28.337 -14.940   4.357  0.00  0.00     0.030 A 
ATOM     14  C   UNL d   1      28.312 -14.332   5.605  0.00  0.00     0.009 A 
ATOM     15  C   UNL d   1      28.191 -12.952   5.717  0.00  0.00    -0.056 A 
ATOM     16  C   UNL d   1      28.149 -12.356   7.095  0.00  0.00     0.049 C 
ATOM     17  C   UNL d   1      28.115 -12.178   4.541  0.00  0.00    -0.054 A 
ATOM     18  C   UNL d   1      28.128 -12.817   3.273  0.00  0.00     0.037 A 
ATOM     19  C   UNL d   1      28.030 -10.676   4.643  0.00  0.00     0.049 C 
ENDBRANCH   9  12
ENDBRANCH   7   8
ENDBRANCH   6   7
ENDBRANCH   1   6
BRANCH   3  20
ATOM     20  C   UNL d   1      26.005 -12.324  -4.756  0.00  0.00     0.160 C 
BRANCH  20  21
ATOM     21  S   UNL d   1      27.533 -12.518  -5.808  0.00  0.00    -0.115 SA
BRANCH  21  22
ATOM     22  C   UNL d   1      27.617 -14.283  -6.143  0.00  0.00     0.247 A 
ATOM     23  N   UNL d   1      28.711 -14.751  -7.016  0.00  0.00    -0.359 N 
ATOM     24  C   UNL d   1      29.467 -15.554  -6.370  0.00  0.00     0.057 A 
ATOM     25  H   UNL d   1      28.905 -14.452  -7.971  0.00  0.00     0.162 HD
ATOM     26  C   UNL d   1      30.714 -16.165  -6.784  0.00  0.00     0.031 A 
ATOM     27  C   UNL d   1      28.888 -15.802  -5.017  0.00  0.00     0.057 A 
ATOM     28  C   UNL d   1      31.280 -16.973  -5.876  0.00  0.00     0.002 A 
ATOM     29  C   UNL d   1      30.715 -17.245  -4.563  0.00  0.00     0.002 A 
ATOM     30  C   UNL d   1      29.571 -16.711  -4.100  0.00  0.00     0.031 A 
ATOM     31  N   UNL d   1      27.815 -15.115  -4.905  0.00  0.00    -0.359 N 
ATOM     32  H   UNL d   1      27.222 -15.094  -4.070  0.00  0.00     0.162 HD
ENDBRANCH  21  22
ENDBRANCH  20  21
ENDBRANCH   3  20
TORSDOF 7
ENDMDL
MODEL 3
REMARK VINA RESULT:    -7.606      3.267      6.103
REMARK INTER + INTRA:         -12.975
REMARK INTER:                  -9.694
REMARK INTRA:                  -3.281
REMARK CONF_INDEPENDENT:        2.088
REMARK UNBOUND:                -3.281
REMARK  7 active torsions:
REMARK  status: ('A' for Active; 'I' for Inactive)
REMARK    1  A    between atoms: C_5  and  N_6 
REMARK       I    between atoms: N_6  and  C_7 
REMARK    2  A    between atoms: C_7  and  C_9 
REMARK    3  A    between atoms: C_9  and  C_10 
REMARK    4  A    between atoms: C_10  and  C_11 
REMARK    5  A    between atoms: C_13  and  C_14 
REMARK    6  A    between atoms: C_14  and  S_15 
REMARK    7  A    between atoms: S_15  and  C_16 
ROOT
ATOM      1  C   UNL d   1      27.627 -13.818  -5.045  0.00  0.00     0.173 A 
ATOM      2  N   UNL d   1      28.605 -14.062  -4.210  0.00  0.00    -0.208 NA
ATOM      3  C   UNL d   1      28.866 -15.379  -4.437  0.00  0.00     0.165 A 
ATOM      4  N   UNL d   1      28.122 -15.950  -5.390  0.00  0.00    -0.110 NA
ATOM      5  O   UNL d   1      27.278 -14.901  -5.797  0.00  0.00    -0.196 OA
ENDROOT
BRANCH   1   6
ATOM      6  C   UNL d   1      26.927 -12.535  -5.224  0.00  0.00     0.098 C 
BRANCH   6   7
ATOM      7  C   UNL d   1      25.938 -12.156  -4.116  0.00  0.00     0.111 C 
BRANCH   7   8
ATOM      8  C   UNL d   1      25.319 -13.441  -3.608  0.00  0.00     0.222 C 
ATOM      9  N   UNL d   1      25.902 -14.014  -2.487  0.00  0.00    -0.327 N 
ATOM     10  H   UNL d   1      26.694 -13.557  -2.048  0.00  0.00     0.169 HD
ATOM     11  O   UNL d   1      24.350 -13.888  -4.222  0.00  0.00    -0.273 OA
BRANCH   9  12
ATOM     12  C   UNL d   1      25.438 -15.217  -1.871  0.00  0.00     0.035 A 
ATOM     13  C   UNL d   1      24.103 -15.616  -1.960  0.00  0.00     0.030 A 
ATOM     14  C   UNL d   1      23.628 -16.760  -1.333  0.00  0.00     0.009 A 
ATOM     15  C   UNL d   1      24.482 -17.569  -0.593  0.00  0.00    -0.056 A 
ATOM     16  C   UNL d   1      23.902 -18.780   0.079  0.00  0.00     0.049 C 
ATOM     17  C   UNL d   1      25.845 -17.220  -0.509  0.00  0.00    -0.054 A 
ATOM     18  C   UNL d   1      26.313 -16.040  -1.145  0.00  0.00     0.037 A 
ATOM     19  C   UNL d   1      26.796 -18.111   0.250  0.00  0.00     0.049 C 
ENDBRANCH   9  12
ENDBRANCH   7   8
ENDBRANCH   6   7
ENDBRANCH   1   6
BRANCH   3  20
ATOM     20  C   UNL d   1      29.928 -16.101  -3.690  0.00  0.00     0.160 C 
BRANCH  20  21
ATOM     21  S   UNL d   1      29.300 -16.631  -2.017  0.00  0.00    -0.115 SA
BRANCH  21  22
ATOM     22  C   UNL d   1      29.675 -15.238  -0.943  0.00  0.00     0.247 A 
ATOM     23  N   UNL d   1      28.999 -13.958  -1.239  0.00  0.00    -0.359 N 
ATOM     24  C   UNL d   1      28.268 -13.617  -0.248  0.00  0.00     0.057 A 
ATOM     25  H   UNL d   1      29.035 -13.433  -2.112  0.00  0.00     0.162 HD
ATOM     26  C   UNL d   1      27.345 -12.505  -0.137  0.00  0.00     0.031 A 
ATOM     27  C   UNL d   1      28.467 -14.580   0.873  0.00  0.00     0.057 A 
ATOM     28  C   UNL d   1      26.715 -12.405   1.043  0.00  0.00     0.002 A 
ATOM     29  C   UNL d   1      26.919 -13.321   2.154  0.00  0.00     0.002 A 
ATOM     30  C   UNL d   1      27.746 -14.380   2.128  0.00  0.00     0.031 A 
ATOM     31  N   UNL d   1      29.299 -15.475   0.494  0.00  0.00    -0.359 N 
ATOM     32  H   UNL d   1      29.608 -16.264   1.069  0.00  0.00     0.162 HD
ENDBRANCH  21  22
ENDBRANCH  20  21
ENDBRANCH   3  20
TORSDOF 7
ENDMDL
MODEL 4
REMARK VINA RESULT:    -6.712      3.273      8.195
REMARK INTER + INTRA:         -12.403
REMARK INTER:                  -8.800
REMARK INTRA:                  -3.603
REMARK CONF_INDEPENDENT:        2.088
REMARK UNBOUND:                -3.603
REMARK  7 active torsions:
REMARK  status: ('A' for Active; 'I' for Inactive)
REMARK    1  A    between atoms: C_5  and  N_6 
REMARK       I    between atoms: N_6  and  C_7 
REMARK    2  A    between atoms: C_7  and  C_9 
REMARK    3  A    between atoms: C_9  and  C_10 
REMARK    4  A    between atoms: C_10  and  C_11 
REMARK    5  A    between atoms: C_13  and  C_14 
REMARK    6  A    between atoms: C_14  and  S_15 
REMARK    7  A    between atoms: S_15  and  C_16 
ROOT
ATOM      1  C   UNL d   1      26.522 -12.705  -2.592  0.00  0.00     0.173 A 
ATOM      2  N   UNL d   1      26.337 -13.038  -1.340  0.00  0.00    -0.208 NA
ATOM      3  C   UNL d   1      27.603 -13.293  -0.910  0.00  0.00     0.165 A 
ATOM      4  N   UNL d   1      28.562 -13.105  -1.823  0.00  0.00    -0.110 NA
ATOM      5  O   UNL d   1      27.836 -12.716  -2.963  0.00  0.00    -0.196 OA
ENDROOT
BRANCH   1   6
ATOM      6  C   UNL d   1      25.480 -12.335  -3.565  0.00  0.00     0.098 C 
BRANCH   6   7
ATOM      7  C   UNL d   1      24.785 -13.503  -4.272  0.00  0.00     0.111 C 
BRANCH   7   8
ATOM      8  C   UNL d   1      25.849 -14.533  -4.589  0.00  0.00     0.222 C 
ATOM      9  N   UNL d   1      27.087 -14.048  -4.986  0.00  0.00    -0.327 N 
ATOM     10  H   UNL d   1      27.239 -13.047  -5.034  0.00  0.00     0.169 HD
ATOM     11  O   UNL d   1      25.544 -15.721  -4.478  0.00  0.00    -0.273 OA
BRANCH   9  12
ATOM     12  C   UNL d   1      28.204 -14.879  -5.310  0.00  0.00     0.035 A 
ATOM     13  C   UNL d   1      28.845 -14.791  -6.547  0.00  0.00     0.030 A 
ATOM     14  C   UNL d   1      29.905 -15.618  -6.894  0.00  0.00     0.009 A 
ATOM     15  C   UNL d   1      30.382 -16.569  -6.000  0.00  0.00    -0.056 A 
ATOM     16  C   UNL d   1      31.516 -17.448  -6.443  0.00  0.00     0.049 C 
ATOM     17  C   UNL d   1      29.786 -16.665  -4.726  0.00  0.00    -0.054 A 
ATOM     18  C   UNL d   1      28.694 -15.821  -4.392  0.00  0.00     0.037 A 
ATOM     19  C   UNL d   1      30.320 -17.659  -3.727  0.00  0.00     0.049 C 
ENDBRANCH   9  12
ENDBRANCH   7   8
ENDBRANCH   6   7
ENDBRANCH   1   6
BRANCH   3  20
ATOM     20  C   UNL d   1      27.880 -13.718   0.486  0.00  0.00     0.160 C 
BRANCH  20  21
ATOM     21  S   UNL d   1      29.072 -15.152   0.504  0.00  0.00    -0.115 SA
BRANCH  21  22
ATOM     22  C   UNL d   1      28.334 -16.353  -0.614  0.00  0.00     0.247 A 
ATOM     23  N   UNL d   1      27.711 -17.545  -0.005  0.00  0.00    -0.359 N 
ATOM     24  C   UNL d   1      26.464 -17.571  -0.287  0.00  0.00     0.057 A 
ATOM     25  H   UNL d   1      28.159 -18.228   0.605  0.00  0.00     0.162 HD
ATOM     26  C   UNL d   1      25.443 -18.484   0.186  0.00  0.00     0.031 A 
ATOM     27  C   UNL d   1      26.140 -16.452  -1.217  0.00  0.00     0.057 A 
ATOM     28  C   UNL d   1      24.211 -18.256  -0.293  0.00  0.00     0.002 A 
ATOM     29  C   UNL d   1      23.885 -17.186  -1.222  0.00  0.00     0.002 A 
ATOM     30  C   UNL d   1      24.770 -16.292  -1.698  0.00  0.00     0.031 A 
ATOM     31  N   UNL d   1      27.210 -15.787  -1.439  0.00  0.00    -0.359 N 
ATOM     32  H   UNL d   1      27.268 -14.959  -2.038  0.00  0.00     0.162 HD
ENDBRANCH  21  22
ENDBRANCH  20  21
ENDBRANCH   3  20
TORSDOF 7
ENDMDL
MODEL 5
REMARK VINA RESULT:    -6.684      3.562      7.131
REMARK INTER + INTRA:         -12.855
REMARK INTER:                  -8.772
REMARK INTRA:                  -4.083
REMARK CONF_INDEPENDENT:        2.088
REMARK UNBOUND:                -4.083
REMARK  7 active torsions:
REMARK  status: ('A' for Active; 'I' for Inactive)
REMARK    1  A    between atoms: C_5  and  N_6 
REMARK       I    between atoms: N_6  and  C_7 
REMARK    2  A    between atoms: C_7  and  C_9 
REMARK    3  A    between atoms: C_9  and  C_10 
REMARK    4  A    between atoms: C_10  and  C_11 
REMARK    5  A    between atoms: C_13  and  C_14 
REMARK    6  A    between atoms: C_14  and  S_15 
REMARK    7  A    between atoms: S_15  and  C_16 
ROOT
ATOM      1  C   UNL d   1      26.310 -13.700  -4.584  0.00  0.00     0.173 A 
ATOM      2  N   UNL d   1      27.608 -13.826  -4.462  0.00  0.00    -0.208 NA
ATOM      3  C   UNL d   1      27.818 -15.113  -4.853  0.00  0.00     0.165 A 
ATOM      4  N   UNL d   1      26.724 -15.776  -5.239  0.00  0.00    -0.110 NA
ATOM      5  O   UNL d   1      25.701 -14.828  -5.051  0.00  0.00    -0.196 OA
ENDROOT
BRANCH   1   6
ATOM      6  C   UNL d   1      25.513 -12.500  -4.280  0.00  0.00     0.098 C 
BRANCH   6   7
ATOM      7  C   UNL d   1      26.059 -11.604  -3.163  0.00  0.00     0.111 C 
BRANCH   7   8
ATOM      8  C   UNL d   1      26.281 -12.483  -1.950  0.00  0.00     0.222 C 
ATOM      9  N   UNL d   1      27.034 -11.943  -0.917  0.00  0.00    -0.327 N 
ATOM     10  H   UNL d   1      27.391 -10.997  -1.001  0.00  0.00     0.169 HD
ATOM     11  O   UNL d   1      25.783 -13.609  -1.964  0.00  0.00    -0.273 OA
BRANCH   9  12
ATOM     12  C   UNL d   1      27.328 -12.629   0.301  0.00  0.00     0.035 A 
ATOM     13  C   UNL d   1      27.540 -14.008   0.331  0.00  0.00     0.030 A 
ATOM     14  C   UNL d   1      27.786 -14.696   1.512  0.00  0.00     0.009 A 
ATOM     15  C   UNL d   1      27.845 -14.020   2.725  0.00  0.00    -0.056 A 
ATOM     16  C   UNL d   1      28.092 -14.824   3.969  0.00  0.00     0.049 C 
ATOM     17  C   UNL d   1      27.673 -12.621   2.733  0.00  0.00    -0.054 A 
ATOM     18  C   UNL d   1      27.409 -11.935   1.519  0.00  0.00     0.037 A 
ATOM     19  C   UNL d   1      27.780 -11.866   4.034  0.00  0.00     0.049 C 
ENDBRANCH   9  12
ENDBRANCH   7   8
ENDBRANCH   6   7
ENDBRANCH   1   6
BRANCH   3  20
ATOM     20  C   UNL d   1      29.180 -15.706  -4.872  0.00  0.00     0.160 C 
BRANCH  20  21
ATOM     21  S   UNL d   1      29.383 -16.908  -3.460  0.00  0.00    -0.115 SA
BRANCH  21  22
ATOM     22  C   UNL d   1      28.432 -16.180  -2.120  0.00  0.00     0.247 A 
ATOM     23  N   UNL d   1      27.008 -15.891  -2.383  0.00  0.00    -0.359 N 
ATOM     24  C   UNL d   1      26.275 -16.573  -1.590  0.00  0.00     0.057 A 
ATOM     25  H   UNL d   1      26.629 -15.295  -3.119  0.00  0.00     0.162 HD
ATOM     26  C   UNL d   1      24.831 -16.695  -1.562  0.00  0.00     0.031 A 
ATOM     27  C   UNL d   1      27.138 -17.311  -0.624  0.00  0.00     0.057 A 
ATOM     28  C   UNL d   1      24.347 -17.493  -0.600  0.00  0.00     0.002 A 
ATOM     29  C   UNL d   1      25.175 -18.198   0.367  0.00  0.00     0.002 A 
ATOM     30  C   UNL d   1      26.518 -18.147   0.401  0.00  0.00     0.031 A 
ATOM     31  N   UNL d   1      28.362 -17.053  -0.896  0.00  0.00    -0.359 N 
ATOM     32  H   UNL d   1      29.165 -17.437  -0.390  0.00  0.00     0.162 HD
ENDBRANCH  21  22
ENDBRANCH  20  21
ENDBRANCH   3  20
TORSDOF 7
ENDMDL
