MODEL 1
REMARK VINA RESULT:    -8.802      0.000      0.000
REMARK INTER + INTRA:         -12.582
REMARK INTER:                 -10.890
REMARK INTRA:                  -1.692
REMARK CONF_INDEPENDENT:        2.088
REMARK UNBOUND:                -1.692
REMARK  7 active torsions:
REMARK  status: ('A' for Active; 'I' for Inactive)
REMARK    1  A    between atoms: C_2  and  O_3 
REMARK    2  A    between atoms: C_2  and  C_4 
REMARK    3  A    between atoms: C_4  and  N_5 
REMARK       I    between atoms: N_5  and  C_6 
REMARK    4  A    between atoms: C_6  and  C_8 
REMARK       I    between atoms: C_8  and  N_10 
REMARK    5  A    between atoms: N_10  and  C_11 
REMARK    6  A    between atoms: C_15  and  C_16 
REMARK       I    between atoms: C_16  and  N_18 
REMARK    7  A    between atoms: N_18  and  C_19 
ROOT
ATOM      1  C   UNL d   1      24.376 -17.616  -0.598  0.00  0.00     0.036 A 
ATOM      2  C   UNL d   1      25.452 -17.830   0.269  0.00  0.00     0.029 A 
ATOM      3  C   UNL d   1      26.702 -17.260  -0.004  0.00  0.00     0.003 A 
ATOM      4  C   UNL d   1      26.883 -16.485  -1.151  0.00  0.00     0.017 A 
ATOM      5  C   UNL d   1      25.803 -16.243  -2.012  0.00  0.00     0.034 A 
ATOM      6  C   UNL d   1      24.565 -16.821  -1.730  0.00  0.00     0.046 A 
ENDROOT
BRANCH   1   7
ATOM      7  N   UNL d   1      23.091 -18.137  -0.322  0.00  0.00    -0.319 N 
ATOM      8  C   UNL d   1      22.370 -18.913  -1.229  0.00  0.00     0.313 C 
ATOM      9  O   UNL d   1      22.769 -19.325  -2.315  0.00  0.00    -0.262 OA
ATOM     10  H   UNL d   1      22.690 -17.994   0.601  0.00  0.00     0.169 HD
BRANCH   8  11
ATOM     11  C   UNL d   1      20.948 -19.324  -0.779  0.00  0.00     0.309 C 
ATOM     12  N   UNL d   1      20.799 -19.500   0.586  0.00  0.00    -0.350 N 
ATOM     13  H   UNL d   1      21.624 -19.386   1.176  0.00  0.00     0.162 HD
ATOM     14  O   UNL d   1      20.059 -19.473  -1.613  0.00  0.00    -0.262 OA
BRANCH  12  15
ATOM     15  C   UNL d   1      19.538 -19.905   1.188  0.00  0.00     0.154 C 
BRANCH  15  16
ATOM     16  C   UNL d   1      18.809 -21.018   0.411  0.00  0.00     0.132 C 
ATOM     17  C   UNL d   1      18.030 -21.929   1.355  0.00  0.00     0.041 C 
BRANCH  16  18
ATOM     18  O   UNL d   1      17.901 -20.450  -0.536  0.00  0.00    -0.394 OA
ATOM     19  H   UNL d   1      18.402 -19.840  -1.105  0.00  0.00     0.210 HD
ENDBRANCH  16  18
ENDBRANCH  15  16
ENDBRANCH  12  15
ENDBRANCH   8  11
ENDBRANCH   1   7
BRANCH   5  20
ATOM     20  C   UNL d   1      26.007 -15.327  -3.165  0.00  0.00     0.252 C 
ATOM     21  O   UNL d   1      25.530 -15.649  -4.252  0.00  0.00    -0.268 OA
ATOM     22  N   UNL d   1      26.743 -14.168  -2.967  0.00  0.00    -0.349 N 
ATOM     23  H   UNL d   1      27.107 -13.939  -2.055  0.00  0.00     0.163 HD
BRANCH  22  24
ATOM     24  C   UNL d   1      27.010 -13.201  -4.038  0.00  0.00     0.022 C 
ATOM     25  C   UNL d   1      25.688 -12.655  -4.596  0.00  0.00     0.037 C 
ATOM     26  C   UNL d   1      27.892 -12.064  -3.505  0.00  0.00     0.037 C 
ATOM     27  C   UNL d   1      27.765 -13.891  -5.192  0.00  0.00     0.037 C 
ENDBRANCH  22  24
ENDBRANCH   5  20
TORSDOF 7
ENDMDL
MODEL 2
REMARK VINA RESULT:    -8.615      1.868      8.727
REMARK INTER + INTRA:         -12.635
REMARK INTER:                 -10.703
REMARK INTRA:                  -1.932
REMARK CONF_INDEPENDENT:        2.088
REMARK UNBOUND:                -1.932
REMARK  7 active torsions:
REMARK  status: ('A' for Active; 'I' for Inactive)
REMARK    1  A    between atoms: C_2  and  O_3 
REMARK    2  A    between atoms: C_2  and  C_4 
REMARK    3  A    between atoms: C_4  and  N_5 
REMARK       I    between atoms: N_5  and  C_6 
REMARK    4  A    between atoms: C_6  and  C_8 
REMARK       I    between atoms: C_8  and  N_10 
REMARK    5  A    between atoms: N_10  and  C_11 
REMARK    6  A    between atoms: C_15  and  C_16 
REMARK       I    between atoms: C_16  and  N_18 
REMARK    7  A    between atoms: N_18  and  C_19 
ROOT
ATOM      1  C   UNL d   1      25.317 -16.952  -1.498  0.00  0.00     0.036 A 
ATOM      2  C   UNL d   1      26.100 -17.480  -0.467  0.00  0.00     0.029 A 
ATOM      3  C   UNL d   1      25.500 -18.201   0.575  0.00  0.00     0.003 A 
ATOM      4  C   UNL d   1      24.117 -18.384   0.595  0.00  0.00     0.017 A 
ATOM      5  C   UNL d   1      23.328 -17.882  -0.449  0.00  0.00     0.034 A 
ATOM      6  C   UNL d   1      23.937 -17.161  -1.478  0.00  0.00     0.046 A 
ENDROOT
BRANCH   1   7
ATOM      7  N   UNL d   1      25.900 -16.264  -2.588  0.00  0.00    -0.319 N 
ATOM      8  C   UNL d   1      25.307 -15.158  -3.196  0.00  0.00     0.313 C 
ATOM      9  O   UNL d   1      24.287 -14.582  -2.829  0.00  0.00    -0.262 OA
ATOM     10  H   UNL d   1      26.821 -16.546  -2.911  0.00  0.00     0.169 HD
BRANCH   8  11
ATOM     11  C   UNL d   1      26.055 -14.589  -4.426  0.00  0.00     0.309 C 
ATOM     12  N   UNL d   1      25.922 -13.223  -4.606  0.00  0.00    -0.350 N 
ATOM     13  H   UNL d   1      25.326 -12.711  -3.956  0.00  0.00     0.162 HD
ATOM     14  O   UNL d   1      26.700 -15.341  -5.153  0.00  0.00    -0.262 OA
BRANCH  12  15
ATOM     15  C   UNL d   1      26.541 -12.520  -5.719  0.00  0.00     0.154 C 
BRANCH  15  16
ATOM     16  C   UNL d   1      26.447 -10.986  -5.612  0.00  0.00     0.132 C 
ATOM     17  C   UNL d   1      25.765 -10.389  -6.840  0.00  0.00     0.041 C 
BRANCH  16  18
ATOM     18  O   UNL d   1      25.708 -10.613  -4.447  0.00  0.00    -0.394 OA
ATOM     19  H   UNL d   1      24.785 -10.455  -4.714  0.00  0.00     0.210 HD
ENDBRANCH  16  18
ENDBRANCH  15  16
ENDBRANCH  12  15
ENDBRANCH   8  11
ENDBRANCH   1   7
BRANCH   5  20
ATOM     20  C   UNL d   1      21.872 -18.187  -0.449  0.00  0.00     0.252 C 
ATOM     21  O   UNL d   1      21.115 -17.398  -1.010  0.00  0.00    -0.268 OA
ATOM     22  N   UNL d   1      21.438 -19.332   0.201  0.00  0.00    -0.349 N 
ATOM     23  H   UNL d   1      22.097 -19.958   0.639  0.00  0.00     0.163 HD
BRANCH  22  24
ATOM     24  C   UNL d   1      20.025 -19.723   0.268  0.00  0.00     0.022 C 
ATOM     25  C   UNL d   1      19.246 -19.083  -0.889  0.00  0.00     0.037 C 
ATOM     26  C   UNL d   1      19.905 -21.253   0.231  0.00  0.00     0.037 C 
ATOM     27  C   UNL d   1      19.406 -19.227   1.591  0.00  0.00     0.037 C 
ENDBRANCH  22  24
ENDBRANCH   5  20
TORSDOF 7
ENDMDL
MODEL 3
REMARK VINA RESULT:    -8.213      1.752      8.978
REMARK INTER + INTRA:         -12.439
REMARK INTER:                 -10.301
REMARK INTRA:                  -2.138
REMARK CONF_INDEPENDENT:        2.088
REMARK UNBOUND:                -2.138
REMARK  7 active torsions:
REMARK  status: ('A' for Active; 'I' for Inactive)
REMARK    1  A    between atoms: C_2  and  O_3 
REMARK    2  A    between atoms: C_2  and  C_4 
REMARK    3  A    between atoms: C_4  and  N_5 
REMARK       I    between atoms: N_5  and  C_6 
REMARK    4  A    between atoms: C_6  and  C_8 
REMARK       I    between atoms: C_8  and  N_10 
REMARK    5  A    between atoms: N_10  and  C_11 
REMARK    6  A    between atoms: C_15  and  C_16 
REMARK       I    between atoms: C_16  and  N_18 
REMARK    7  A    between atoms: N_18  and  C_19 
ROOT
ATOM      1  C   UNL d   1      24.902 -16.279  -1.292  0.00  0.00     0.036 A 
ATOM      2  C   UNL d   1      25.833 -17.135  -0.698  0.00  0.00     0.029 A 
ATOM      3  C   UNL d   1      25.403 -18.286  -0.022  0.00  0.00     0.003 A 
ATOM      4  C   UNL d   1      24.040 -18.574   0.071  0.00  0.00     0.017 A 
ATOM      5  C   UNL d   1      23.102 -17.736  -0.546  0.00  0.00     0.034 A 
ATOM      6  C   UNL d   1      23.544 -16.591  -1.211  0.00  0.00     0.046 A 
ENDROOT
BRANCH   1   7
ATOM      7  N   UNL d   1      25.310 -15.139  -2.023  0.00  0.00    -0.319 N 
ATOM      8  C   UNL d   1      25.638 -15.179  -3.378  0.00  0.00     0.313 C 
ATOM      9  O   UNL d   1      25.530 -16.146  -4.128  0.00  0.00    -0.262 OA
ATOM     10  H   UNL d   1      25.310 -14.233  -1.563  0.00  0.00     0.169 HD
BRANCH   8  11
ATOM     11  C   UNL d   1      26.139 -13.847  -3.986  0.00  0.00     0.309 C 
ATOM     12  N   UNL d   1      26.921 -13.983  -5.120  0.00  0.00    -0.350 N 
ATOM     13  H   UNL d   1      27.136 -14.927  -5.442  0.00  0.00     0.162 HD
ATOM     14  O   UNL d   1      25.838 -12.780  -3.457  0.00  0.00    -0.262 OA
BRANCH  12  15
ATOM     15  C   UNL d   1      27.495 -12.840  -5.814  0.00  0.00     0.154 C 
BRANCH  15  16
ATOM     16  C   UNL d   1      28.494 -13.224  -6.921  0.00  0.00     0.132 C 
ATOM     17  C   UNL d   1      29.907 -12.766  -6.571  0.00  0.00     0.041 C 
BRANCH  16  18
ATOM     18  O   UNL d   1      28.504 -14.641  -7.113  0.00  0.00    -0.394 OA
ATOM     19  H   UNL d   1      28.689 -14.817  -8.052  0.00  0.00     0.210 HD
ENDBRANCH  16  18
ENDBRANCH  15  16
ENDBRANCH  12  15
ENDBRANCH   8  11
ENDBRANCH   1   7
BRANCH   5  20
ATOM     20  C   UNL d   1      21.669 -18.132  -0.516  0.00  0.00     0.252 C 
ATOM     21  O   UNL d   1      20.868 -17.460  -1.164  0.00  0.00    -0.268 OA
ATOM     22  N   UNL d   1      21.301 -19.223   0.257  0.00  0.00    -0.349 N 
ATOM     23  H   UNL d   1      21.994 -19.752   0.763  0.00  0.00     0.163 HD
BRANCH  22  24
ATOM     24  C   UNL d   1      19.915 -19.694   0.363  0.00  0.00     0.022 C 
ATOM     25  C   UNL d   1      19.136 -19.327  -0.908  0.00  0.00     0.037 C 
ATOM     26  C   UNL d   1      19.896 -21.210   0.601  0.00  0.00     0.037 C 
ATOM     27  C   UNL d   1      19.221 -19.014   1.560  0.00  0.00     0.037 C 
ENDBRANCH  22  24
ENDBRANCH   5  20
TORSDOF 7
ENDMDL
MODEL 4
REMARK VINA RESULT:    -8.044      1.568      1.685
REMARK INTER + INTRA:         -12.256
REMARK INTER:                 -10.132
REMARK INTRA:                  -2.124
REMARK CONF_INDEPENDENT:        2.088
REMARK UNBOUND:                -2.124
REMARK  7 active torsions:
REMARK  status: ('A' for Active; 'I' for Inactive)
REMARK    1  A    between atoms: C_2  and  O_3 
REMARK    2  A    between atoms: C_2  and  C_4 
REMARK    3  A    between atoms: C_4  and  N_5 
REMARK       I    between atoms: N_5  and  C_6 
REMARK    4  A    between atoms: C_6  and  C_8 
REMARK       I    between atoms: C_8  and  N_10 
REMARK    5  A    between atoms: N_10  and  C_11 
REMARK    6  A    between atoms: C_15  and  C_16 
REMARK       I    between atoms: C_16  and  N_18 
REMARK    7  A    between atoms: N_18  and  C_19 
ROOT
ATOM      1  C   UNL d   1      24.728 -16.669  -1.445  0.00  0.00     0.036 A 
ATOM      2  C   UNL d   1      25.636 -16.718  -0.383  0.00  0.00     0.029 A 
ATOM      3  C   UNL d   1      26.962 -16.305  -0.569  0.00  0.00     0.003 A 
ATOM      4  C   UNL d   1      27.386 -15.854  -1.820  0.00  0.00     0.017 A 
ATOM      5  C   UNL d   1      26.476 -15.776  -2.884  0.00  0.00     0.034 A 
ATOM      6  C   UNL d   1      25.160 -16.195  -2.685  0.00  0.00     0.046 A 
ENDROOT
BRANCH   1   7
ATOM      7  N   UNL d   1      23.372 -17.031  -1.274  0.00  0.00    -0.319 N 
ATOM      8  C   UNL d   1      22.970 -18.277  -0.791  0.00  0.00     0.313 C 
ATOM      9  O   UNL d   1      23.702 -19.167  -0.369  0.00  0.00    -0.262 OA
ATOM     10  H   UNL d   1      22.651 -16.337  -1.451  0.00  0.00     0.169 HD
BRANCH   8  11
ATOM     11  C   UNL d   1      21.442 -18.518  -0.749  0.00  0.00     0.309 C 
ATOM     12  N   UNL d   1      21.054 -19.680  -0.104  0.00  0.00    -0.350 N 
ATOM     13  H   UNL d   1      21.786 -20.295   0.254  0.00  0.00     0.162 HD
ATOM     14  O   UNL d   1      20.679 -17.707  -1.268  0.00  0.00    -0.262 OA
BRANCH  12  15
ATOM     15  C   UNL d   1      19.660 -20.077   0.016  0.00  0.00     0.154 C 
BRANCH  15  16
ATOM     16  C   UNL d   1      19.125 -20.037   1.460  0.00  0.00     0.132 C 
ATOM     17  C   UNL d   1      18.182 -21.206   1.730  0.00  0.00     0.041 C 
BRANCH  16  18
ATOM     18  O   UNL d   1      20.207 -20.093   2.393  0.00  0.00    -0.394 OA
ATOM     19  H   UNL d   1      21.030 -20.232   1.891  0.00  0.00     0.210 HD
ENDBRANCH  16  18
ENDBRANCH  15  16
ENDBRANCH  12  15
ENDBRANCH   8  11
ENDBRANCH   1   7
BRANCH   5  20
ATOM     20  C   UNL d   1      26.937 -15.191  -4.171  0.00  0.00     0.252 C 
ATOM     21  O   UNL d   1      26.398 -15.575  -5.207  0.00  0.00    -0.268 OA
ATOM     22  N   UNL d   1      27.965 -14.262  -4.144  0.00  0.00    -0.349 N 
ATOM     23  H   UNL d   1      28.371 -13.968  -3.269  0.00  0.00     0.163 HD
BRANCH  22  24
ATOM     24  C   UNL d   1      28.501 -13.630  -5.355  0.00  0.00     0.022 C 
ATOM     25  C   UNL d   1      27.410 -12.794  -6.040  0.00  0.00     0.037 C 
ATOM     26  C   UNL d   1      29.715 -12.762  -4.998  0.00  0.00     0.037 C 
ATOM     27  C   UNL d   1      28.965 -14.714  -6.350  0.00  0.00     0.037 C 
ENDBRANCH  22  24
ENDBRANCH   5  20
TORSDOF 7
ENDMDL
MODEL 5
REMARK VINA RESULT:    -7.555      3.554      4.795
REMARK INTER + INTRA:         -12.035
REMARK INTER:                  -9.643
REMARK INTRA:                  -2.392
REMARK CONF_INDEPENDENT:        2.088
REMARK UNBOUND:                -2.392
REMARK  7 active torsions:
REMARK  status: ('A' for Active; 'I' for Inactive)
REMARK    1  A    between atoms: C_2  and  O_3 
REMARK    2  A    between atoms: C_2  and  C_4 
REMARK    3  A    between atoms: C_4  and  N_5 
REMARK       I    between atoms: N_5  and  C_6 
REMARK    4  A    between atoms: C_6  and  C_8 
REMARK       I    between atoms: C_8  and  N_10 
REMARK    5  A    between atoms: N_10  and  C_11 
REMARK    6  A    between atoms: C_15  and  C_16 
REMARK       I    between atoms: C_16  and  N_18 
REMARK    7  A    between atoms: N_18  and  C_19 
ROOT
ATOM      1  C   UNL d   1      26.064 -16.720  -0.858  0.00  0.00     0.036 A 
ATOM      2  C   UNL d   1      27.234 -16.998  -1.571  0.00  0.00     0.029 A 
ATOM      3  C   UNL d   1      28.445 -16.398  -1.200  0.00  0.00     0.003 A 
ATOM      4  C   UNL d   1      28.486 -15.510  -0.124  0.00  0.00     0.017 A 
ATOM      5  C   UNL d   1      27.323 -15.247   0.613  0.00  0.00     0.034 A 
ATOM      6  C   UNL d   1      26.123 -15.847   0.229  0.00  0.00     0.046 A 
ENDROOT
BRANCH   1   7
ATOM      7  N   UNL d   1      24.838 -17.349  -1.178  0.00  0.00    -0.319 N 
ATOM      8  C   UNL d   1      24.094 -18.083  -0.254  0.00  0.00     0.313 C 
ATOM      9  O   UNL d   1      24.331 -18.203   0.944  0.00  0.00    -0.262 OA
ATOM     10  H   UNL d   1      24.444 -17.215  -2.105  0.00  0.00     0.169 HD
BRANCH   8  11
ATOM     11  C   UNL d   1      22.820 -18.764  -0.811  0.00  0.00     0.309 C 
ATOM     12  N   UNL d   1      21.888 -19.125   0.147  0.00  0.00    -0.350 N 
ATOM     13  H   UNL d   1      22.119 -18.955   1.127  0.00  0.00     0.162 HD
ATOM     14  O   UNL d   1      22.702 -18.948  -2.019  0.00  0.00    -0.262 OA
BRANCH  12  15
ATOM     15  C   UNL d   1      20.641 -19.793  -0.190  0.00  0.00     0.154 C 
BRANCH  15  16
ATOM     16  C   UNL d   1      19.612 -19.801   0.956  0.00  0.00     0.132 C 
ATOM     17  C   UNL d   1      18.783 -21.082   0.942  0.00  0.00     0.041 C 
BRANCH  16  18
ATOM     18  O   UNL d   1      20.273 -19.694   2.218  0.00  0.00    -0.394 OA
ATOM     19  H   UNL d   1      21.198 -19.970   2.098  0.00  0.00     0.210 HD
ENDBRANCH  16  18
ENDBRANCH  15  16
ENDBRANCH  12  15
ENDBRANCH   8  11
ENDBRANCH   1   7
BRANCH   5  20
ATOM     20  C   UNL d   1      27.427 -14.379   1.816  0.00  0.00     0.252 C 
ATOM     21  O   UNL d   1      26.717 -13.377   1.871  0.00  0.00    -0.268 OA
ATOM     22  N   UNL d   1      28.335 -14.727   2.806  0.00  0.00    -0.349 N 
ATOM     23  H   UNL d   1      28.890 -15.565   2.724  0.00  0.00     0.163 HD
BRANCH  22  24
ATOM     24  C   UNL d   1      28.522 -13.937   4.028  0.00  0.00     0.022 C 
ATOM     25  C   UNL d   1      28.828 -12.476   3.670  0.00  0.00     0.037 C 
ATOM     26  C   UNL d   1      27.270 -14.036   4.910  0.00  0.00     0.037 C 
ATOM     27  C   UNL d   1      29.717 -14.491   4.832  0.00  0.00     0.037 C 
ENDBRANCH  22  24
ENDBRANCH   5  20
TORSDOF 7
ENDMDL
MODEL 6
REMARK VINA RESULT:    -6.838      1.773      2.210
REMARK INTER + INTRA:         -11.309
REMARK INTER:                  -8.926
REMARK INTRA:                  -2.383
REMARK CONF_INDEPENDENT:        2.088
REMARK UNBOUND:                -2.383
REMARK  7 active torsions:
REMARK  status: ('A' for Active; 'I' for Inactive)
REMARK    1  A    between atoms: C_2  and  O_3 
REMARK    2  A    between atoms: C_2  and  C_4 
REMARK    3  A    between atoms: C_4  and  N_5 
REMARK       I    between atoms: N_5  and  C_6 
REMARK    4  A    between atoms: C_6  and  C_8 
REMARK       I    between atoms: C_8  and  N_10 
REMARK    5  A    between atoms: N_10  and  C_11 
REMARK    6  A    between atoms: C_15  and  C_16 
REMARK       I    between atoms: C_16  and  N_18 
REMARK    7  A    between atoms: N_18  and  C_19 
ROOT
ATOM      1  C   UNL d   1      24.841 -15.988  -1.952  0.00  0.00     0.036 A 
ATOM      2  C   UNL d   1      26.021 -16.665  -1.634  0.00  0.00     0.029 A 
ATOM      3  C   UNL d   1      27.258 -16.168  -2.067  0.00  0.00     0.003 A 
ATOM      4  C   UNL d   1      27.315 -15.000  -2.829  0.00  0.00     0.017 A 
ATOM      5  C   UNL d   1      26.139 -14.299  -3.129  0.00  0.00     0.034 A 
ATOM      6  C   UNL d   1      24.914 -14.809  -2.696  0.00  0.00     0.046 A 
ENDROOT
BRANCH   1   7
ATOM      7  N   UNL d   1      23.584 -16.438  -1.487  0.00  0.00    -0.319 N 
ATOM      8  C   UNL d   1      23.412 -17.632  -0.785  0.00  0.00     0.313 C 
ATOM      9  O   UNL d   1      24.302 -18.385  -0.398  0.00  0.00    -0.262 OA
ATOM     10  H   UNL d   1      22.770 -15.842  -1.612  0.00  0.00     0.169 HD
BRANCH   8  11
ATOM     11  C   UNL d   1      21.951 -17.996  -0.428  0.00  0.00     0.309 C 
ATOM     12  N   UNL d   1      21.815 -19.043   0.467  0.00  0.00    -0.350 N 
ATOM     13  H   UNL d   1      22.664 -19.511   0.788  0.00  0.00     0.162 HD
ATOM     14  O   UNL d   1      21.023 -17.371  -0.934  0.00  0.00    -0.262 OA
BRANCH  12  15
ATOM     15  C   UNL d   1      20.517 -19.534   0.901  0.00  0.00     0.154 C 
BRANCH  15  16
ATOM     16  C   UNL d   1      19.802 -20.408  -0.146  0.00  0.00     0.132 C 
ATOM     17  C   UNL d   1      18.410 -20.813   0.332  0.00  0.00     0.041 C 
BRANCH  16  18
ATOM     18  O   UNL d   1      19.676 -19.700  -1.382  0.00  0.00    -0.394 OA
ATOM     19  H   UNL d   1      20.548 -19.332  -1.608  0.00  0.00     0.210 HD
ENDBRANCH  16  18
ENDBRANCH  15  16
ENDBRANCH  12  15
ENDBRANCH   8  11
ENDBRANCH   1   7
BRANCH   5  20
ATOM     20  C   UNL d   1      26.249 -13.004  -3.851  0.00  0.00     0.252 C 
ATOM     21  O   UNL d   1      25.678 -12.024  -3.374  0.00  0.00    -0.268 OA
ATOM     22  N   UNL d   1      26.968 -12.967  -5.036  0.00  0.00    -0.349 N 
ATOM     23  H   UNL d   1      27.430 -13.793  -5.384  0.00  0.00     0.163 HD
BRANCH  22  24
ATOM     24  C   UNL d   1      27.133 -11.744  -5.830  0.00  0.00     0.022 C 
ATOM     25  C   UNL d   1      25.765 -11.104  -6.101  0.00  0.00     0.037 C 
ATOM     26  C   UNL d   1      28.061 -10.767  -5.097  0.00  0.00     0.037 C 
ATOM     27  C   UNL d   1      27.777 -12.086  -7.190  0.00  0.00     0.037 C 
ENDBRANCH  22  24
ENDBRANCH   5  20
TORSDOF 7
ENDMDL
MODEL 7
REMARK VINA RESULT:    -6.465      2.615      4.012
REMARK INTER + INTRA:         -10.944
REMARK INTER:                  -8.553
REMARK INTRA:                  -2.391
REMARK CONF_INDEPENDENT:        2.088
REMARK UNBOUND:                -2.391
REMARK  7 active torsions:
REMARK  status: ('A' for Active; 'I' for Inactive)
REMARK    1  A    between atoms: C_2  and  O_3 
REMARK    2  A    between atoms: C_2  and  C_4 
REMARK    3  A    between atoms: C_4  and  N_5 
REMARK       I    between atoms: N_5  and  C_6 
REMARK    4  A    between atoms: C_6  and  C_8 
REMARK       I    between atoms: C_8  and  N_10 
REMARK    5  A    between atoms: N_10  and  C_11 
REMARK    6  A    between atoms: C_15  and  C_16 
REMARK       I    between atoms: C_16  and  N_18 
REMARK    7  A    between atoms: N_18  and  C_19 
ROOT
ATOM      1  C   UNL d   1      25.527 -14.729  -3.082  0.00  0.00     0.036 A 
ATOM      2  C   UNL d   1      26.557 -15.563  -3.530  0.00  0.00     0.029 A 
ATOM      3  C   UNL d   1      27.628 -15.031  -4.260  0.00  0.00     0.003 A 
ATOM      4  C   UNL d   1      27.666 -13.668  -4.555  0.00  0.00     0.017 A 
ATOM      5  C   UNL d   1      26.653 -12.820  -4.086  0.00  0.00     0.034 A 
ATOM      6  C   UNL d   1      25.589 -13.364  -3.365  0.00  0.00     0.046 A 
ENDROOT
BRANCH   1   7
ATOM      7  N   UNL d   1      24.460 -15.229  -2.300  0.00  0.00    -0.319 N 
ATOM      8  C   UNL d   1      24.503 -16.463  -1.650  0.00  0.00     0.313 C 
ATOM      9  O   UNL d   1      25.469 -17.218  -1.581  0.00  0.00    -0.262 OA
ATOM     10  H   UNL d   1      23.643 -14.644  -2.151  0.00  0.00     0.169 HD
BRANCH   8  11
ATOM     11  C   UNL d   1      23.209 -16.875  -0.908  0.00  0.00     0.309 C 
ATOM     12  N   UNL d   1      23.159 -18.203  -0.521  0.00  0.00    -0.350 N 
ATOM     13  H   UNL d   1      23.940 -18.806  -0.779  0.00  0.00     0.162 HD
ATOM     14  O   UNL d   1      22.326 -16.044  -0.710  0.00  0.00    -0.262 OA
BRANCH  12  15
ATOM     15  C   UNL d   1      22.012 -18.770   0.170  0.00  0.00     0.154 C 
BRANCH  15  16
ATOM     16  C   UNL d   1      20.807 -19.045  -0.749  0.00  0.00     0.132 C 
ATOM     17  C   UNL d   1      19.821 -20.007  -0.092  0.00  0.00     0.041 C 
BRANCH  16  18
ATOM     18  O   UNL d   1      20.127 -17.825  -1.055  0.00  0.00    -0.394 OA
ATOM     19  H   UNL d   1      20.781 -17.195  -1.404  0.00  0.00     0.210 HD
ENDBRANCH  16  18
ENDBRANCH  15  16
ENDBRANCH  12  15
ENDBRANCH   8  11
ENDBRANCH   1   7
BRANCH   5  20
ATOM     20  C   UNL d   1      26.781 -11.358  -4.329  0.00  0.00     0.252 C 
ATOM     21  O   UNL d   1      27.878 -10.835  -4.143  0.00  0.00    -0.268 OA
ATOM     22  N   UNL d   1      25.657 -10.654  -4.732  0.00  0.00    -0.349 N 
ATOM     23  H   UNL d   1      24.779 -11.127  -4.883  0.00  0.00     0.163 HD
BRANCH  22  24
ATOM     24  C   UNL d   1      25.672  -9.210  -4.991  0.00  0.00     0.022 C 
ATOM     25  C   UNL d   1      24.413  -8.801  -5.769  0.00  0.00     0.037 C 
ATOM     26  C   UNL d   1      25.772  -8.443  -3.666  0.00  0.00     0.037 C 
ATOM     27  C   UNL d   1      26.901  -8.844  -5.848  0.00  0.00     0.037 C 
ENDBRANCH  22  24
ENDBRANCH   5  20
TORSDOF 7
ENDMDL
MODEL 8
REMARK VINA RESULT:    -6.340      2.572      4.467
REMARK INTER + INTRA:         -10.860
REMARK INTER:                  -8.428
REMARK INTRA:                  -2.432
REMARK CONF_INDEPENDENT:        2.088
REMARK UNBOUND:                -2.432
REMARK  7 active torsions:
REMARK  status: ('A' for Active; 'I' for Inactive)
REMARK    1  A    between atoms: C_2  and  O_3 
REMARK    2  A    between atoms: C_2  and  C_4 
REMARK    3  A    between atoms: C_4  and  N_5 
REMARK       I    between atoms: N_5  and  C_6 
REMARK    4  A    between atoms: C_6  and  C_8 
REMARK       I    between atoms: C_8  and  N_10 
REMARK    5  A    between atoms: N_10  and  C_11 
REMARK    6  A    between atoms: C_15  and  C_16 
REMARK       I    between atoms: C_16  and  N_18 
REMARK    7  A    between atoms: N_18  and  C_19 
ROOT
ATOM      1  C   UNL d   1      25.296 -14.418  -3.409  0.00  0.00     0.036 A 
ATOM      2  C   UNL d   1      25.139 -13.131  -3.933  0.00  0.00     0.029 A 
ATOM      3  C   UNL d   1      26.099 -12.604  -4.807  0.00  0.00     0.003 A 
ATOM      4  C   UNL d   1      27.224 -13.357  -5.149  0.00  0.00     0.017 A 
ATOM      5  C   UNL d   1      27.375 -14.658  -4.650  0.00  0.00     0.034 A 
ATOM      6  C   UNL d   1      26.414 -15.169  -3.777  0.00  0.00     0.046 A 
ENDROOT
BRANCH   1   7
ATOM      7  N   UNL d   1      24.319 -14.995  -2.566  0.00  0.00    -0.319 N 
ATOM      8  C   UNL d   1      24.486 -16.229  -1.936  0.00  0.00     0.313 C 
ATOM      9  O   UNL d   1      25.502 -16.919  -1.941  0.00  0.00    -0.262 OA
ATOM     10  H   UNL d   1      23.476 -14.467  -2.355  0.00  0.00     0.169 HD
BRANCH   8  11
ATOM     11  C   UNL d   1      23.274 -16.733  -1.117  0.00  0.00     0.309 C 
ATOM     12  N   UNL d   1      23.343 -18.062  -0.734  0.00  0.00    -0.350 N 
ATOM     13  H   UNL d   1      24.148 -18.607  -1.044  0.00  0.00     0.162 HD
ATOM     14  O   UNL d   1      22.348 -15.968  -0.858  0.00  0.00    -0.262 OA
BRANCH  12  15
ATOM     15  C   UNL d   1      22.285 -18.711   0.025  0.00  0.00     0.154 C 
BRANCH  15  16
ATOM     16  C   UNL d   1      21.026 -19.021  -0.807  0.00  0.00     0.132 C 
ATOM     17  C   UNL d   1      20.137 -20.041  -0.100  0.00  0.00     0.041 C 
BRANCH  16  18
ATOM     18  O   UNL d   1      20.271 -17.828  -1.029  0.00  0.00    -0.394 OA
ATOM     19  H   UNL d   1      20.881 -17.141  -1.351  0.00  0.00     0.210 HD
ENDBRANCH  16  18
ENDBRANCH  15  16
ENDBRANCH  12  15
ENDBRANCH   8  11
ENDBRANCH   1   7
BRANCH   5  20
ATOM     20  C   UNL d   1      28.530 -15.468  -5.120  0.00  0.00     0.252 C 
ATOM     21  O   UNL d   1      28.709 -15.574  -6.332  0.00  0.00    -0.268 OA
ATOM     22  N   UNL d   1      29.336 -16.081  -4.172  0.00  0.00    -0.349 N 
ATOM     23  H   UNL d   1      29.158 -15.958  -3.188  0.00  0.00     0.163 HD
BRANCH  22  24
ATOM     24  C   UNL d   1      30.496 -16.908  -4.527  0.00  0.00     0.022 C 
ATOM     25  C   UNL d   1      31.099 -17.539  -3.265  0.00  0.00     0.037 C 
ATOM     26  C   UNL d   1      30.078 -17.987  -5.535  0.00  0.00     0.037 C 
ATOM     27  C   UNL d   1      31.580 -16.032  -5.187  0.00  0.00     0.037 C 
ENDBRANCH  22  24
ENDBRANCH   5  20
TORSDOF 7
ENDMDL
MODEL 9
REMARK VINA RESULT:    -6.252      3.226      4.402
REMARK INTER + INTRA:         -10.858
REMARK INTER:                  -8.340
REMARK INTRA:                  -2.518
REMARK CONF_INDEPENDENT:        2.088
REMARK UNBOUND:                -2.518
REMARK  7 active torsions:
REMARK  status: ('A' for Active; 'I' for Inactive)
REMARK    1  A    between atoms: C_2  and  O_3 
REMARK    2  A    between atoms: C_2  and  C_4 
REMARK    3  A    between atoms: C_4  and  N_5 
REMARK       I    between atoms: N_5  and  C_6 
REMARK    4  A    between atoms: C_6  and  C_8 
REMARK       I    between atoms: C_8  and  N_10 
REMARK    5  A    between atoms: N_10  and  C_11 
REMARK    6  A    between atoms: C_15  and  C_16 
REMARK       I    between atoms: C_16  and  N_18 
REMARK    7  A    between atoms: N_18  and  C_19 
ROOT
ATOM      1  C   UNL d   1      25.750 -16.957  -0.323  0.00  0.00     0.036 A 
ATOM      2  C   UNL d   1      25.549 -15.585  -0.147  0.00  0.00     0.029 A 
ATOM      3  C   UNL d   1      26.639 -14.704  -0.167  0.00  0.00     0.003 A 
ATOM      4  C   UNL d   1      27.933 -15.195  -0.351  0.00  0.00     0.017 A 
ATOM      5  C   UNL d   1      28.140 -16.567  -0.557  0.00  0.00     0.034 A 
ATOM      6  C   UNL d   1      27.046 -17.432  -0.529  0.00  0.00     0.046 A 
ENDROOT
BRANCH   1   7
ATOM      7  N   UNL d   1      24.664 -17.863  -0.358  0.00  0.00    -0.319 N 
ATOM      8  C   UNL d   1      23.359 -17.479  -0.668  0.00  0.00     0.313 C 
ATOM      9  O   UNL d   1      22.994 -16.366  -1.039  0.00  0.00    -0.262 OA
ATOM     10  H   UNL d   1      24.843 -18.852  -0.210  0.00  0.00     0.169 HD
BRANCH   8  11
ATOM     11  C   UNL d   1      22.292 -18.596  -0.577  0.00  0.00     0.309 C 
ATOM     12  N   UNL d   1      21.007 -18.200  -0.905  0.00  0.00    -0.350 N 
ATOM     13  H   UNL d   1      20.854 -17.219  -1.140  0.00  0.00     0.162 HD
ATOM     14  O   UNL d   1      22.618 -19.728  -0.230  0.00  0.00    -0.262 OA
BRANCH  12  15
ATOM     15  C   UNL d   1      19.874 -19.111  -0.858  0.00  0.00     0.154 C 
BRANCH  15  16
ATOM     16  C   UNL d   1      19.487 -19.546   0.569  0.00  0.00     0.132 C 
ATOM     17  C   UNL d   1      19.105 -21.023   0.609  0.00  0.00     0.041 C 
BRANCH  16  18
ATOM     18  O   UNL d   1      20.577 -19.328   1.468  0.00  0.00    -0.394 OA
ATOM     19  H   UNL d   1      21.200 -20.069   1.371  0.00  0.00     0.210 HD
ENDBRANCH  16  18
ENDBRANCH  15  16
ENDBRANCH  12  15
ENDBRANCH   8  11
ENDBRANCH   1   7
BRANCH   5  20
ATOM     20  C   UNL d   1      29.518 -17.039  -0.855  0.00  0.00     0.252 C 
ATOM     21  O   UNL d   1      29.771 -17.400  -2.003  0.00  0.00    -0.268 OA
ATOM     22  N   UNL d   1      30.443 -17.071   0.178  0.00  0.00    -0.349 N 
ATOM     23  H   UNL d   1      30.194 -16.755   1.102  0.00  0.00     0.163 HD
BRANCH  22  24
ATOM     24  C   UNL d   1      31.826 -17.526  -0.005  0.00  0.00     0.022 C 
ATOM     25  C   UNL d   1      31.842 -18.977  -0.505  0.00  0.00     0.037 C 
ATOM     26  C   UNL d   1      32.554 -16.599  -0.988  0.00  0.00     0.037 C 
ATOM     27  C   UNL d   1      32.576 -17.477   1.342  0.00  0.00     0.037 C 
ENDBRANCH  22  24
ENDBRANCH   5  20
TORSDOF 7
ENDMDL
