MODEL 1
REMARK VINA RESULT:    -9.607      0.000      0.000
REMARK INTER + INTRA:         -17.507
REMARK INTER:                 -13.187
REMARK INTRA:                  -4.321
REMARK CONF_INDEPENDENT:        3.580
REMARK UNBOUND:                -4.321
REMARK  12 active torsions:
REMARK  status: ('A' for Active; 'I' for Inactive)
REMARK    1  A    between atoms: C_2  and  C_3 
REMARK    2  A    between atoms: C_3  and  C_4 
REMARK    3  A    between atoms: C_6  and  C_5 
REMARK    4  A    between atoms: C_6  and  N_21 
REMARK    5  A    between atoms: C_6  and  C_7 
REMARK       I    between atoms: C_7  and  N_9 
REMARK    6  A    between atoms: N_9  and  C_10 
REMARK    7  A    between atoms: C_10  and  S_11 
REMARK    8  A    between atoms: S_11  and  C_14 
REMARK       I    between atoms: N_21  and  C_22 
REMARK    9  A    between atoms: N_21  and  C_32 
REMARK   10  A    between atoms: C_22  and  C_24 
REMARK   11  A    between atoms: C_28  and  O_29 
REMARK   12  A    between atoms: C_30  and  O_31 
ROOT
ATOM      1  C   UNL d   1      27.651 -16.482   0.488  0.00  0.00     0.208 C 
ENDROOT
BRANCH   1   2
ATOM      2  N   UNL d   1      26.952 -15.169   0.142  0.00  0.00    -0.296 N 
ATOM      3  C   UNL d   1      26.903 -14.062   1.012  0.00  0.00     0.262 C 
ATOM      4  O   UNL d   1      25.890 -13.365   1.125  0.00  0.00    -0.267 OA
BRANCH   3   5
ATOM      5  C   UNL d   1      28.097 -13.622   1.781  0.00  0.00     0.068 C 
ATOM      6  C   UNL d   1      28.930 -12.597   1.285  0.00  0.00     0.020 C 
ATOM      7  C   UNL d   1      30.022 -12.121   2.033  0.00  0.00     0.004 C 
ATOM      8  C   UNL d   1      30.321 -12.696   3.264  0.00  0.00     0.039 C 
ATOM      9  C   UNL d   1      29.607 -13.825   3.634  0.00  0.00     0.099 C 
ATOM     10  C   UNL d   1      28.495 -14.268   2.937  0.00  0.00     0.114 C 
BRANCH   9  11
ATOM     11  O   UNL d   1      29.925 -14.609   4.703  0.00  0.00    -0.358 OA
ATOM     12  H   UNL d   1      29.911 -15.546   4.398  0.00  0.00     0.217 HD
ENDBRANCH   9  11
BRANCH  10  13
ATOM     13  O   UNL d   1      27.797 -15.299   3.513  0.00  0.00    -0.357 OA
ATOM     14  H   UNL d   1      28.467 -15.949   3.807  0.00  0.00     0.217 HD
ENDBRANCH  10  13
ENDBRANCH   3   5
BRANCH   2  15
ATOM     15  C   UNL d   1      26.438 -14.922  -1.199  0.00  0.00     0.038 A 
ATOM     16  C   UNL d   1      25.853 -15.929  -1.983  0.00  0.00     0.030 A 
ATOM     17  C   UNL d   1      25.512 -15.692  -3.332  0.00  0.00     0.002 A 
ATOM     18  C   UNL d   1      25.630 -14.418  -3.886  0.00  0.00     0.000 A 
ATOM     19  C   UNL d   1      26.176 -13.408  -3.122  0.00  0.00     0.002 A 
ATOM     20  C   UNL d   1      26.634 -13.700  -1.838  0.00  0.00     0.030 A 
ENDBRANCH   2  15
ENDBRANCH   1   2
BRANCH   1  21
ATOM     21  C   UNL d   1      26.677 -17.758   0.578  0.00  0.00     0.245 C 
ATOM     22  O   UNL d   1      27.102 -18.915   0.554  0.00  0.00    -0.271 OA
ATOM     23  N   UNL d   1      25.302 -17.519   0.598  0.00  0.00    -0.345 N 
ATOM     24  H   UNL d   1      25.001 -16.569   0.437  0.00  0.00     0.163 HD
BRANCH  23  25
ATOM     25  C   UNL d   1      24.301 -18.584   0.300  0.00  0.00     0.268 C 
BRANCH  25  26
ATOM     26  S   UNL d   1      22.917 -18.122  -0.865  0.00  0.00     0.192 S 
ATOM     27  O   UNL d   1      22.753 -16.694  -0.847  0.00  0.00    -0.221 OA
ATOM     28  O   UNL d   1      23.037 -18.780  -2.164  0.00  0.00    -0.221 OA
BRANCH  26  29
ATOM     29  C   UNL d   1      21.435 -18.870  -0.276  0.00  0.00     0.060 A 
ATOM     30  C   UNL d   1      21.239 -18.949   1.119  0.00  0.00     0.024 A 
ATOM     31  C   UNL d   1      20.126 -19.591   1.629  0.00  0.00     0.008 A 
ATOM     32  C   UNL d   1      19.200 -20.141   0.745  0.00  0.00    -0.062 A 
ATOM     33  C   UNL d   1      18.041 -20.918   1.279  0.00  0.00     0.048 C 
ATOM     34  C   UNL d   1      19.374 -19.992  -0.643  0.00  0.00     0.008 A 
ATOM     35  C   UNL d   1      20.489 -19.345  -1.163  0.00  0.00     0.024 A 
ENDBRANCH  26  29
ENDBRANCH  25  26
ENDBRANCH  23  25
ENDBRANCH   1  21
BRANCH   1  36
ATOM     36  C   UNL d   1      28.677 -16.859  -0.568  0.00  0.00     0.004 C 
ATOM     37  C   UNL d   1      29.643 -16.041  -1.035  0.00  0.00    -0.028 C 
BRANCH  37  38
ATOM     38  C   UNL d   1      30.439 -16.376  -2.265  0.00  0.00     0.026 C 
BRANCH  38  39
ATOM     39  C   UNL d   1      31.122 -17.741  -2.156  0.00  0.00    -0.001 C 
ATOM     40  C   UNL d   1      31.680 -17.938  -0.757  0.00  0.00     0.005 C 
ENDBRANCH  38  39
ENDBRANCH  37  38
ENDBRANCH   1  36
TORSDOF 12
ENDMDL
MODEL 2
REMARK VINA RESULT:    -8.347      3.021      7.648
REMARK INTER + INTRA:         -17.992
REMARK INTER:                 -11.926
REMARK INTRA:                  -6.066
REMARK CONF_INDEPENDENT:        3.580
REMARK UNBOUND:                -6.066
REMARK  12 active torsions:
REMARK  status: ('A' for Active; 'I' for Inactive)
REMARK    1  A    between atoms: C_2  and  C_3 
REMARK    2  A    between atoms: C_3  and  C_4 
REMARK    3  A    between atoms: C_6  and  C_5 
REMARK    4  A    between atoms: C_6  and  N_21 
REMARK    5  A    between atoms: C_6  and  C_7 
REMARK       I    between atoms: C_7  and  N_9 
REMARK    6  A    between atoms: N_9  and  C_10 
REMARK    7  A    between atoms: C_10  and  S_11 
REMARK    8  A    between atoms: S_11  and  C_14 
REMARK       I    between atoms: N_21  and  C_22 
REMARK    9  A    between atoms: N_21  and  C_32 
REMARK   10  A    between atoms: C_22  and  C_24 
REMARK   11  A    between atoms: C_28  and  O_29 
REMARK   12  A    between atoms: C_30  and  O_31 
ROOT
ATOM      1  C   UNL d   1      27.270 -15.703   0.051  0.00  0.00     0.208 C 
ENDROOT
BRANCH   1   2
ATOM      2  N   UNL d   1      27.957 -15.111  -1.178  0.00  0.00    -0.296 N 
ATOM      3  C   UNL d   1      29.341 -14.853  -1.246  0.00  0.00     0.262 C 
ATOM      4  O   UNL d   1      29.790 -13.843  -1.798  0.00  0.00    -0.267 OA
BRANCH   3   5
ATOM      5  C   UNL d   1      30.341 -15.824  -0.728  0.00  0.00     0.068 C 
ATOM      6  C   UNL d   1      30.786 -16.892  -1.536  0.00  0.00     0.020 C 
ATOM      7  C   UNL d   1      31.783 -17.777  -1.087  0.00  0.00     0.004 C 
ATOM      8  C   UNL d   1      32.313 -17.632   0.190  0.00  0.00     0.039 C 
ATOM      9  C   UNL d   1      31.720 -16.699   1.028  0.00  0.00     0.099 C 
ATOM     10  C   UNL d   1      30.780 -15.785   0.581  0.00  0.00     0.114 C 
BRANCH   9  11
ATOM     11  O   UNL d   1      31.994 -16.592   2.359  0.00  0.00    -0.358 OA
ATOM     12  H   UNL d   1      31.155 -16.348   2.815  0.00  0.00     0.217 HD
ENDBRANCH   9  11
BRANCH  10  13
ATOM     13  O   UNL d   1      30.406 -14.821   1.483  0.00  0.00    -0.357 OA
ATOM     14  H   UNL d   1      30.274 -15.285   2.336  0.00  0.00     0.217 HD
ENDBRANCH  10  13
ENDBRANCH   3   5
BRANCH   2  15
ATOM     15  C   UNL d   1      27.237 -14.940  -2.433  0.00  0.00     0.038 A 
ATOM     16  C   UNL d   1      27.670 -15.516  -3.638  0.00  0.00     0.030 A 
ATOM     17  C   UNL d   1      27.039 -15.200  -4.860  0.00  0.00     0.002 A 
ATOM     18  C   UNL d   1      25.892 -14.407  -4.889  0.00  0.00     0.000 A 
ATOM     19  C   UNL d   1      25.434 -13.856  -3.711  0.00  0.00     0.002 A 
ATOM     20  C   UNL d   1      26.155 -14.069  -2.537  0.00  0.00     0.030 A 
ENDBRANCH   2  15
ENDBRANCH   1   2
BRANCH   1  21
ATOM     21  C   UNL d   1      27.075 -14.674   1.271  0.00  0.00     0.245 C 
ATOM     22  O   UNL d   1      26.327 -13.697   1.196  0.00  0.00    -0.271 OA
ATOM     23  N   UNL d   1      27.854 -14.872   2.411  0.00  0.00    -0.345 N 
ATOM     24  H   UNL d   1      28.576 -15.575   2.355  0.00  0.00     0.163 HD
BRANCH  23  25
ATOM     25  C   UNL d   1      28.055 -13.807   3.437  0.00  0.00     0.268 C 
BRANCH  25  26
ATOM     26  S   UNL d   1      29.668 -13.850   4.376  0.00  0.00     0.192 S 
ATOM     27  O   UNL d   1      30.184 -15.191   4.350  0.00  0.00    -0.221 OA
ATOM     28  O   UNL d   1      30.566 -12.764   3.993  0.00  0.00    -0.221 OA
BRANCH  26  29
ATOM     29  C   UNL d   1      29.338 -13.402   6.048  0.00  0.00     0.060 A 
ATOM     30  C   UNL d   1      30.028 -14.088   7.068  0.00  0.00     0.024 A 
ATOM     31  C   UNL d   1      29.751 -13.822   8.396  0.00  0.00     0.008 A 
ATOM     32  C   UNL d   1      28.792 -12.859   8.704  0.00  0.00    -0.062 A 
ATOM     33  C   UNL d   1      28.412 -12.625  10.131  0.00  0.00     0.048 C 
ATOM     34  C   UNL d   1      28.162 -12.134   7.676  0.00  0.00     0.008 A 
ATOM     35  C   UNL d   1      28.440 -12.394   6.339  0.00  0.00     0.024 A 
ENDBRANCH  26  29
ENDBRANCH  25  26
ENDBRANCH  23  25
ENDBRANCH   1  21
BRANCH   1  36
ATOM     36  C   UNL d   1      25.865 -16.180  -0.276  0.00  0.00     0.004 C 
ATOM     37  C   UNL d   1      25.525 -17.455  -0.555  0.00  0.00    -0.028 C 
BRANCH  37  38
ATOM     38  C   UNL d   1      24.187 -17.811  -1.138  0.00  0.00     0.026 C 
BRANCH  38  39
ATOM     39  C   UNL d   1      23.082 -17.823  -0.079  0.00  0.00    -0.001 C 
ATOM     40  C   UNL d   1      21.932 -18.708  -0.530  0.00  0.00     0.005 C 
ENDBRANCH  38  39
ENDBRANCH  37  38
ENDBRANCH   1  36
TORSDOF 12
ENDMDL
MODEL 3
REMARK VINA RESULT:    -8.190      3.048      7.750
REMARK INTER + INTRA:         -17.907
REMARK INTER:                 -11.770
REMARK INTRA:                  -6.137
REMARK CONF_INDEPENDENT:        3.580
REMARK UNBOUND:                -6.137
REMARK  12 active torsions:
REMARK  status: ('A' for Active; 'I' for Inactive)
REMARK    1  A    between atoms: C_2  and  C_3 
REMARK    2  A    between atoms: C_3  and  C_4 
REMARK    3  A    between atoms: C_6  and  C_5 
REMARK    4  A    between atoms: C_6  and  N_21 
REMARK    5  A    between atoms: C_6  and  C_7 
REMARK       I    between atoms: C_7  and  N_9 
REMARK    6  A    between atoms: N_9  and  C_10 
REMARK    7  A    between atoms: C_10  and  S_11 
REMARK    8  A    between atoms: S_11  and  C_14 
REMARK       I    between atoms: N_21  and  C_22 
REMARK    9  A    between atoms: N_21  and  C_32 
REMARK   10  A    between atoms: C_22  and  C_24 
REMARK   11  A    between atoms: C_28  and  O_29 
REMARK   12  A    between atoms: C_30  and  O_31 
ROOT
ATOM      1  C   UNL d   1      27.269 -15.485   0.149  0.00  0.00     0.208 C 
ENDROOT
BRANCH   1   2
ATOM      2  N   UNL d   1      27.923 -14.861  -1.082  0.00  0.00    -0.296 N 
ATOM      3  C   UNL d   1      29.308 -14.627  -1.191  0.00  0.00     0.262 C 
ATOM      4  O   UNL d   1      29.758 -13.607  -1.722  0.00  0.00    -0.267 OA
BRANCH   3   5
ATOM      5  C   UNL d   1      30.306 -15.636  -0.747  0.00  0.00     0.068 C 
ATOM      6  C   UNL d   1      30.735 -16.654  -1.625  0.00  0.00     0.020 C 
ATOM      7  C   UNL d   1      31.730 -17.572  -1.244  0.00  0.00     0.004 C 
ATOM      8  C   UNL d   1      32.274 -17.512   0.034  0.00  0.00     0.039 C 
ATOM      9  C   UNL d   1      31.697 -16.630   0.935  0.00  0.00     0.099 C 
ATOM     10  C   UNL d   1      30.760 -15.683   0.558  0.00  0.00     0.114 C 
BRANCH   9  11
ATOM     11  O   UNL d   1      31.986 -16.609   2.268  0.00  0.00    -0.358 OA
ATOM     12  H   UNL d   1      31.154 -16.383   2.747  0.00  0.00     0.217 HD
ENDBRANCH   9  11
BRANCH  10  13
ATOM     13  O   UNL d   1      30.402 -14.776   1.523  0.00  0.00    -0.357 OA
ATOM     14  H   UNL d   1      30.277 -15.291   2.346  0.00  0.00     0.217 HD
ENDBRANCH  10  13
ENDBRANCH   3   5
BRANCH   2  15
ATOM     15  C   UNL d   1      27.161 -14.629  -2.302  0.00  0.00     0.038 A 
ATOM     16  C   UNL d   1      26.318 -13.519  -2.468  0.00  0.00     0.030 A 
ATOM     17  C   UNL d   1      25.476 -13.411  -3.596  0.00  0.00     0.002 A 
ATOM     18  C   UNL d   1      25.550 -14.337  -4.636  0.00  0.00     0.000 A 
ATOM     19  C   UNL d   1      26.395 -15.419  -4.504  0.00  0.00     0.002 A 
ATOM     20  C   UNL d   1      27.113 -15.579  -3.320  0.00  0.00     0.030 A 
ENDBRANCH   2  15
ENDBRANCH   1   2
BRANCH   1  21
ATOM     21  C   UNL d   1      27.121 -14.494   1.406  0.00  0.00     0.245 C 
ATOM     22  O   UNL d   1      26.420 -13.480   1.367  0.00  0.00    -0.271 OA
ATOM     23  N   UNL d   1      27.889 -14.769   2.538  0.00  0.00    -0.345 N 
ATOM     24  H   UNL d   1      28.577 -15.503   2.456  0.00  0.00     0.163 HD
BRANCH  23  25
ATOM     25  C   UNL d   1      28.139 -13.753   3.601  0.00  0.00     0.268 C 
BRANCH  25  26
ATOM     26  S   UNL d   1      29.775 -13.866   4.493  0.00  0.00     0.192 S 
ATOM     27  O   UNL d   1      30.292 -15.200   4.346  0.00  0.00    -0.221 OA
ATOM     28  O   UNL d   1      30.663 -12.751   4.176  0.00  0.00    -0.221 OA
BRANCH  26  29
ATOM     29  C   UNL d   1      29.488 -13.556   6.203  0.00  0.00     0.060 A 
ATOM     30  C   UNL d   1      28.380 -12.758   6.557  0.00  0.00     0.024 A 
ATOM     31  C   UNL d   1      28.156 -12.428   7.880  0.00  0.00     0.008 A 
ATOM     32  C   UNL d   1      29.031 -12.907   8.852  0.00  0.00    -0.062 A 
ATOM     33  C   UNL d   1      28.858 -12.484  10.275  0.00  0.00     0.048 C 
ATOM     34  C   UNL d   1      30.091 -13.759   8.491  0.00  0.00     0.008 A 
ATOM     35  C   UNL d   1      30.320 -14.098   7.163  0.00  0.00     0.024 A 
ENDBRANCH  26  29
ENDBRANCH  25  26
ENDBRANCH  23  25
ENDBRANCH   1  21
BRANCH   1  36
ATOM     36  C   UNL d   1      25.850 -15.940  -0.148  0.00  0.00     0.004 C 
ATOM     37  C   UNL d   1      25.512 -17.144  -0.654  0.00  0.00    -0.028 C 
BRANCH  37  38
ATOM     38  C   UNL d   1      24.134 -17.425  -1.182  0.00  0.00     0.026 C 
BRANCH  38  39
ATOM     39  C   UNL d   1      23.297 -18.246  -0.198  0.00  0.00    -0.001 C 
ATOM     40  C   UNL d   1      21.962 -18.613  -0.823  0.00  0.00     0.005 C 
ENDBRANCH  38  39
ENDBRANCH  37  38
ENDBRANCH   1  36
TORSDOF 12
ENDMDL
MODEL 4
REMARK VINA RESULT:    -7.683      2.626      7.293
REMARK INTER + INTRA:         -17.108
REMARK INTER:                 -11.263
REMARK INTRA:                  -5.845
REMARK CONF_INDEPENDENT:        3.580
REMARK UNBOUND:                -5.845
REMARK  12 active torsions:
REMARK  status: ('A' for Active; 'I' for Inactive)
REMARK    1  A    between atoms: C_2  and  C_3 
REMARK    2  A    between atoms: C_3  and  C_4 
REMARK    3  A    between atoms: C_6  and  C_5 
REMARK    4  A    between atoms: C_6  and  N_21 
REMARK    5  A    between atoms: C_6  and  C_7 
REMARK       I    between atoms: C_7  and  N_9 
REMARK    6  A    between atoms: N_9  and  C_10 
REMARK    7  A    between atoms: C_10  and  S_11 
REMARK    8  A    between atoms: S_11  and  C_14 
REMARK       I    between atoms: N_21  and  C_22 
REMARK    9  A    between atoms: N_21  and  C_32 
REMARK   10  A    between atoms: C_22  and  C_24 
REMARK   11  A    between atoms: C_28  and  O_29 
REMARK   12  A    between atoms: C_30  and  O_31 
ROOT
ATOM      1  C   UNL d   1      27.427 -16.608  -0.705  0.00  0.00     0.208 C 
ENDROOT
BRANCH   1   2
ATOM      2  N   UNL d   1      27.900 -15.877  -1.960  0.00  0.00    -0.296 N 
ATOM      3  C   UNL d   1      29.243 -15.858  -2.387  0.00  0.00     0.262 C 
ATOM      4  O   UNL d   1      29.762 -14.844  -2.863  0.00  0.00    -0.267 OA
BRANCH   3   5
ATOM      5  C   UNL d   1      30.085 -17.083  -2.365  0.00  0.00     0.068 C 
ATOM      6  C   UNL d   1      30.368 -17.779  -3.560  0.00  0.00     0.020 C 
ATOM      7  C   UNL d   1      31.221 -18.897  -3.566  0.00  0.00     0.004 C 
ATOM      8  C   UNL d   1      31.763 -19.361  -2.372  0.00  0.00     0.039 C 
ATOM      9  C   UNL d   1      31.314 -18.779  -1.196  0.00  0.00     0.099 C 
ATOM     10  C   UNL d   1      30.522 -17.643  -1.180  0.00  0.00     0.114 C 
BRANCH   9  11
ATOM     11  O   UNL d   1      31.597 -19.262   0.047  0.00  0.00    -0.358 OA
ATOM     12  H   UNL d   1      30.794 -19.133   0.605  0.00  0.00     0.217 HD
ENDBRANCH   9  11
BRANCH  10  13
ATOM     13  O   UNL d   1      30.293 -17.089   0.055  0.00  0.00    -0.357 OA
ATOM     14  H   UNL d   1      30.364 -17.824   0.699  0.00  0.00     0.217 HD
ENDBRANCH  10  13
ENDBRANCH   3   5
BRANCH   2  15
ATOM     15  C   UNL d   1      26.947 -15.296  -2.896  0.00  0.00     0.038 A 
ATOM     16  C   UNL d   1      27.204 -15.198  -4.273  0.00  0.00     0.030 A 
ATOM     17  C   UNL d   1      26.330 -14.488  -5.124  0.00  0.00     0.002 A 
ATOM     18  C   UNL d   1      25.126 -13.973  -4.645  0.00  0.00     0.000 A 
ATOM     19  C   UNL d   1      24.843 -14.085  -3.300  0.00  0.00     0.002 A 
ATOM     20  C   UNL d   1      25.786 -14.668  -2.454  0.00  0.00     0.030 A 
ENDBRANCH   2  15
ENDBRANCH   1   2
BRANCH   1  21
ATOM     21  C   UNL d   1      27.092 -15.651   0.543  0.00  0.00     0.245 C 
ATOM     22  O   UNL d   1      26.058 -14.983   0.603  0.00  0.00    -0.271 OA
ATOM     23  N   UNL d   1      28.062 -15.528   1.538  0.00  0.00    -0.345 N 
ATOM     24  H   UNL d   1      28.959 -15.953   1.357  0.00  0.00     0.163 HD
BRANCH  23  25
ATOM     25  C   UNL d   1      28.053 -14.414   2.530  0.00  0.00     0.268 C 
BRANCH  25  26
ATOM     26  S   UNL d   1      27.377 -12.778   1.938  0.00  0.00     0.192 S 
ATOM     27  O   UNL d   1      25.941 -12.842   1.940  0.00  0.00    -0.221 OA
ATOM     28  O   UNL d   1      28.011 -11.640   2.598  0.00  0.00    -0.221 OA
BRANCH  26  29
ATOM     29  C   UNL d   1      27.931 -12.524   0.285  0.00  0.00     0.060 A 
ATOM     30  C   UNL d   1      29.304 -12.693   0.011  0.00  0.00     0.024 A 
ATOM     31  C   UNL d   1      29.796 -12.436  -1.256  0.00  0.00     0.008 A 
ATOM     32  C   UNL d   1      28.914 -12.023  -2.251  0.00  0.00    -0.062 A 
ATOM     33  C   UNL d   1      29.442 -11.650  -3.599  0.00  0.00     0.048 C 
ATOM     34  C   UNL d   1      27.537 -11.926  -1.979  0.00  0.00     0.008 A 
ATOM     35  C   UNL d   1      27.034 -12.187  -0.710  0.00  0.00     0.024 A 
ENDBRANCH  26  29
ENDBRANCH  25  26
ENDBRANCH  23  25
ENDBRANCH   1  21
BRANCH   1  36
ATOM     36  C   UNL d   1      26.135 -17.368  -0.960  0.00  0.00     0.004 C 
ATOM     37  C   UNL d   1      25.170 -17.583  -0.043  0.00  0.00    -0.028 C 
BRANCH  37  38
ATOM     38  C   UNL d   1      24.060 -18.570  -0.275  0.00  0.00     0.026 C 
BRANCH  38  39
ATOM     39  C   UNL d   1      22.685 -17.900  -0.281  0.00  0.00    -0.001 C 
ATOM     40  C   UNL d   1      21.601 -18.928  -0.556  0.00  0.00     0.005 C 
ENDBRANCH  38  39
ENDBRANCH  37  38
ENDBRANCH   1  36
TORSDOF 12
ENDMDL
MODEL 5
REMARK VINA RESULT:    -7.605      4.142      8.456
REMARK INTER + INTRA:         -17.312
REMARK INTER:                 -11.185
REMARK INTRA:                  -6.127
REMARK CONF_INDEPENDENT:        3.580
REMARK UNBOUND:                -6.127
REMARK  12 active torsions:
REMARK  status: ('A' for Active; 'I' for Inactive)
REMARK    1  A    between atoms: C_2  and  C_3 
REMARK    2  A    between atoms: C_3  and  C_4 
REMARK    3  A    between atoms: C_6  and  C_5 
REMARK    4  A    between atoms: C_6  and  N_21 
REMARK    5  A    between atoms: C_6  and  C_7 
REMARK       I    between atoms: C_7  and  N_9 
REMARK    6  A    between atoms: N_9  and  C_10 
REMARK    7  A    between atoms: C_10  and  S_11 
REMARK    8  A    between atoms: S_11  and  C_14 
REMARK       I    between atoms: N_21  and  C_22 
REMARK    9  A    between atoms: N_21  and  C_32 
REMARK   10  A    between atoms: C_22  and  C_24 
REMARK   11  A    between atoms: C_28  and  O_29 
REMARK   12  A    between atoms: C_30  and  O_31 
ROOT
ATOM      1  C   UNL d   1      27.384 -14.373  -1.149  0.00  0.00     0.208 C 
ENDROOT
BRANCH   1   2
ATOM      2  N   UNL d   1      26.531 -15.395  -1.897  0.00  0.00    -0.296 N 
ATOM      3  C   UNL d   1      26.580 -15.574  -3.294  0.00  0.00     0.262 C 
ATOM      4  O   UNL d   1      25.563 -15.787  -3.961  0.00  0.00    -0.267 OA
BRANCH   3   5
ATOM      5  C   UNL d   1      27.871 -15.599  -4.031  0.00  0.00     0.068 C 
ATOM      6  C   UNL d   1      29.070 -15.935  -3.366  0.00  0.00     0.020 C 
ATOM      7  C   UNL d   1      30.287 -16.033  -4.063  0.00  0.00     0.004 C 
ATOM      8  C   UNL d   1      30.329 -15.750  -5.424  0.00  0.00     0.039 C 
ATOM      9  C   UNL d   1      29.181 -15.235  -6.008  0.00  0.00     0.099 C 
ATOM     10  C   UNL d   1      27.964 -15.190  -5.348  0.00  0.00     0.114 C 
BRANCH   9  11
ATOM     11  O   UNL d   1      29.135 -14.723  -7.270  0.00  0.00    -0.358 OA
ATOM     12  H   UNL d   1      28.590 -13.902  -7.237  0.00  0.00     0.217 HD
ENDBRANCH   9  11
BRANCH  10  13
ATOM     13  O   UNL d   1      26.885 -14.808  -6.105  0.00  0.00    -0.357 OA
ATOM     14  H   UNL d   1      27.137 -13.960  -6.526  0.00  0.00     0.217 HD
ENDBRANCH  10  13
ENDBRANCH   3   5
BRANCH   2  15
ATOM     15  C   UNL d   1      25.733 -16.380  -1.178  0.00  0.00     0.038 A 
ATOM     16  C   UNL d   1      24.332 -16.423  -1.260  0.00  0.00     0.030 A 
ATOM     17  C   UNL d   1      23.584 -17.284  -0.428  0.00  0.00     0.002 A 
ATOM     18  C   UNL d   1      24.220 -18.204   0.405  0.00  0.00     0.000 A 
ATOM     19  C   UNL d   1      25.597 -18.196   0.477  0.00  0.00     0.002 A 
ATOM     20  C   UNL d   1      26.309 -17.242  -0.249  0.00  0.00     0.030 A 
ENDBRANCH   2  15
ENDBRANCH   1   2
BRANCH   1  21
ATOM     21  C   UNL d   1      27.478 -12.932  -1.856  0.00  0.00     0.245 C 
ATOM     22  O   UNL d   1      26.697 -12.015  -1.592  0.00  0.00    -0.271 OA
ATOM     23  N   UNL d   1      28.433 -12.768  -2.860  0.00  0.00    -0.345 N 
ATOM     24  H   UNL d   1      28.926 -13.596  -3.162  0.00  0.00     0.163 HD
BRANCH  23  25
ATOM     25  C   UNL d   1      28.380 -11.644  -3.839  0.00  0.00     0.268 C 
BRANCH  25  26
ATOM     26  S   UNL d   1      27.166 -11.822  -5.246  0.00  0.00     0.192 S 
ATOM     27  O   UNL d   1      27.899 -11.947  -6.477  0.00  0.00    -0.221 OA
ATOM     28  O   UNL d   1      26.127 -12.809  -4.966  0.00  0.00    -0.221 OA
BRANCH  26  29
ATOM     29  C   UNL d   1      26.190 -10.357  -5.314  0.00  0.00     0.060 A 
ATOM     30  C   UNL d   1      25.633  -9.873  -4.112  0.00  0.00     0.024 A 
ATOM     31  C   UNL d   1      24.802  -8.769  -4.127  0.00  0.00     0.008 A 
ATOM     32  C   UNL d   1      24.538  -8.139  -5.341  0.00  0.00    -0.062 A 
ATOM     33  C   UNL d   1      23.568  -7.003  -5.389  0.00  0.00     0.048 C 
ATOM     34  C   UNL d   1      25.156  -8.592  -6.521  0.00  0.00     0.008 A 
ATOM     35  C   UNL d   1      25.996  -9.699  -6.513  0.00  0.00     0.024 A 
ENDBRANCH  26  29
ENDBRANCH  25  26
ENDBRANCH  23  25
ENDBRANCH   1  21
BRANCH   1  36
ATOM     36  C   UNL d   1      26.819 -14.084   0.232  0.00  0.00     0.004 C 
ATOM     37  C   UNL d   1      27.426 -13.334   1.175  0.00  0.00    -0.028 C 
BRANCH  37  38
ATOM     38  C   UNL d   1      26.953 -13.318   2.602  0.00  0.00     0.026 C 
BRANCH  38  39
ATOM     39  C   UNL d   1      27.801 -14.223   3.499  0.00  0.00    -0.001 C 
ATOM     40  C   UNL d   1      27.375 -14.071   4.949  0.00  0.00     0.005 C 
ENDBRANCH  38  39
ENDBRANCH  37  38
ENDBRANCH   1  36
TORSDOF 12
ENDMDL
MODEL 6
REMARK VINA RESULT:    -7.559      3.734      7.836
REMARK INTER + INTRA:         -18.554
REMARK INTER:                 -11.139
REMARK INTRA:                  -7.415
REMARK CONF_INDEPENDENT:        3.580
REMARK UNBOUND:                -7.415
REMARK  12 active torsions:
REMARK  status: ('A' for Active; 'I' for Inactive)
REMARK    1  A    between atoms: C_2  and  C_3 
REMARK    2  A    between atoms: C_3  and  C_4 
REMARK    3  A    between atoms: C_6  and  C_5 
REMARK    4  A    between atoms: C_6  and  N_21 
REMARK    5  A    between atoms: C_6  and  C_7 
REMARK       I    between atoms: C_7  and  N_9 
REMARK    6  A    between atoms: N_9  and  C_10 
REMARK    7  A    between atoms: C_10  and  S_11 
REMARK    8  A    between atoms: S_11  and  C_14 
REMARK       I    between atoms: N_21  and  C_22 
REMARK    9  A    between atoms: N_21  and  C_32 
REMARK   10  A    between atoms: C_22  and  C_24 
REMARK   11  A    between atoms: C_28  and  O_29 
REMARK   12  A    between atoms: C_30  and  O_31 
ROOT
ATOM      1  C   UNL d   1      25.368 -14.739  -3.233  0.00  0.00     0.208 C 
ENDROOT
BRANCH   1   2
ATOM      2  N   UNL d   1      25.986 -13.673  -2.332  0.00  0.00    -0.296 N 
ATOM      3  C   UNL d   1      26.449 -13.932  -1.027  0.00  0.00     0.262 C 
ATOM      4  O   UNL d   1      26.281 -13.129  -0.103  0.00  0.00    -0.267 OA
BRANCH   3   5
ATOM      5  C   UNL d   1      27.239 -15.150  -0.708  0.00  0.00     0.068 C 
ATOM      6  C   UNL d   1      26.764 -16.084   0.238  0.00  0.00     0.020 C 
ATOM      7  C   UNL d   1      27.464 -17.276   0.498  0.00  0.00     0.004 C 
ATOM      8  C   UNL d   1      28.670 -17.525  -0.148  0.00  0.00     0.039 C 
ATOM      9  C   UNL d   1      29.206 -16.506  -0.920  0.00  0.00     0.099 C 
ATOM     10  C   UNL d   1      28.502 -15.354  -1.230  0.00  0.00     0.114 C 
BRANCH   9  11
ATOM     11  O   UNL d   1      30.467 -16.529  -1.440  0.00  0.00    -0.358 OA
ATOM     12  H   UNL d   1      30.409 -16.205  -2.368  0.00  0.00     0.217 HD
ENDBRANCH   9  11
BRANCH  10  13
ATOM     13  O   UNL d   1      29.098 -14.512  -2.135  0.00  0.00    -0.357 OA
ATOM     14  H   UNL d   1      29.563 -15.088  -2.776  0.00  0.00     0.217 HD
ENDBRANCH  10  13
ENDBRANCH   3   5
BRANCH   2  15
ATOM     15  C   UNL d   1      26.297 -12.344  -2.843  0.00  0.00     0.038 A 
ATOM     16  C   UNL d   1      25.721 -11.831  -4.016  0.00  0.00     0.030 A 
ATOM     17  C   UNL d   1      26.164 -10.609  -4.567  0.00  0.00     0.002 A 
ATOM     18  C   UNL d   1      27.094  -9.817  -3.895  0.00  0.00     0.000 A 
ATOM     19  C   UNL d   1      27.650 -10.291  -2.725  0.00  0.00     0.002 A 
ATOM     20  C   UNL d   1      27.300 -11.563  -2.274  0.00  0.00     0.030 A 
ENDBRANCH   2  15
ENDBRANCH   1   2
BRANCH   1  21
ATOM     21  C   UNL d   1      26.265 -15.145  -4.504  0.00  0.00     0.245 C 
ATOM     22  O   UNL d   1      25.878 -15.951  -5.354  0.00  0.00    -0.271 OA
ATOM     23  N   UNL d   1      27.554 -14.617  -4.579  0.00  0.00    -0.345 N 
ATOM     24  H   UNL d   1      27.887 -14.108  -3.773  0.00  0.00     0.163 HD
BRANCH  23  25
ATOM     25  C   UNL d   1      28.604 -15.192  -5.469  0.00  0.00     0.268 C 
BRANCH  25  26
ATOM     26  S   UNL d   1      29.909 -16.244  -4.647  0.00  0.00     0.192 S 
ATOM     27  O   UNL d   1      31.021 -15.405  -4.287  0.00  0.00    -0.221 OA
ATOM     28  O   UNL d   1      29.355 -17.121  -3.620  0.00  0.00    -0.221 OA
BRANCH  26  29
ATOM     29  C   UNL d   1      30.459 -17.443  -5.814  0.00  0.00     0.060 A 
ATOM     30  C   UNL d   1      30.974 -16.986  -7.045  0.00  0.00     0.024 A 
ATOM     31  C   UNL d   1      31.351 -17.891  -8.020  0.00  0.00     0.008 A 
ATOM     32  C   UNL d   1      31.226 -19.254  -7.759  0.00  0.00    -0.062 A 
ATOM     33  C   UNL d   1      31.540 -20.244  -8.834  0.00  0.00     0.048 C 
ATOM     34  C   UNL d   1      30.776 -19.695  -6.501  0.00  0.00     0.008 A 
ATOM     35  C   UNL d   1      30.400 -18.791  -5.514  0.00  0.00     0.024 A 
ENDBRANCH  26  29
ENDBRANCH  25  26
ENDBRANCH  23  25
ENDBRANCH   1  21
BRANCH   1  36
ATOM     36  C   UNL d   1      25.155 -16.043  -2.483  0.00  0.00     0.004 C 
ATOM     37  C   UNL d   1      24.129 -16.296  -1.644  0.00  0.00    -0.028 C 
BRANCH  37  38
ATOM     38  C   UNL d   1      24.128 -17.487  -0.728  0.00  0.00     0.026 C 
BRANCH  38  39
ATOM     39  C   UNL d   1      23.267 -18.630  -1.270  0.00  0.00    -0.001 C 
ATOM     40  C   UNL d   1      21.815 -18.429  -0.870  0.00  0.00     0.005 C 
ENDBRANCH  38  39
ENDBRANCH  37  38
ENDBRANCH   1  36
TORSDOF 12
ENDMDL
MODEL 7
REMARK VINA RESULT:    -6.659      3.312      5.771
REMARK INTER + INTRA:         -17.467
REMARK INTER:                 -10.238
REMARK INTRA:                  -7.228
REMARK CONF_INDEPENDENT:        3.580
REMARK UNBOUND:                -7.228
REMARK  12 active torsions:
REMARK  status: ('A' for Active; 'I' for Inactive)
REMARK    1  A    between atoms: C_2  and  C_3 
REMARK    2  A    between atoms: C_3  and  C_4 
REMARK    3  A    between atoms: C_6  and  C_5 
REMARK    4  A    between atoms: C_6  and  N_21 
REMARK    5  A    between atoms: C_6  and  C_7 
REMARK       I    between atoms: C_7  and  N_9 
REMARK    6  A    between atoms: N_9  and  C_10 
REMARK    7  A    between atoms: C_10  and  S_11 
REMARK    8  A    between atoms: S_11  and  C_14 
REMARK       I    between atoms: N_21  and  C_22 
REMARK    9  A    between atoms: N_21  and  C_32 
REMARK   10  A    between atoms: C_22  and  C_24 
REMARK   11  A    between atoms: C_28  and  O_29 
REMARK   12  A    between atoms: C_30  and  O_31 
ROOT
ATOM      1  C   UNL d   1      28.367 -14.924  -5.829  0.00  0.00     0.208 C 
ENDROOT
BRANCH   1   2
ATOM      2  N   UNL d   1      29.640 -15.479  -5.194  0.00  0.00    -0.296 N 
ATOM      3  C   UNL d   1      30.415 -14.767  -4.258  0.00  0.00     0.262 C 
ATOM      4  O   UNL d   1      31.650 -14.804  -4.269  0.00  0.00    -0.267 OA
BRANCH   3   5
ATOM      5  C   UNL d   1      29.788 -13.997  -3.151  0.00  0.00     0.068 C 
ATOM      6  C   UNL d   1      29.794 -12.586  -3.168  0.00  0.00     0.020 C 
ATOM      7  C   UNL d   1      29.143 -11.843  -2.166  0.00  0.00     0.004 C 
ATOM      8  C   UNL d   1      28.520 -12.502  -1.112  0.00  0.00     0.039 C 
ATOM      9  C   UNL d   1      28.697 -13.874  -1.019  0.00  0.00     0.099 C 
ATOM     10  C   UNL d   1      29.284 -14.621  -2.026  0.00  0.00     0.114 C 
BRANCH   9  11
ATOM     11  O   UNL d   1      28.323 -14.617   0.062  0.00  0.00    -0.358 OA
ATOM     12  H   UNL d   1      27.890 -15.435  -0.277  0.00  0.00     0.217 HD
ENDBRANCH   9  11
BRANCH  10  13
ATOM     13  O   UNL d   1      29.242 -15.983  -1.864  0.00  0.00    -0.357 OA
ATOM     14  H   UNL d   1      29.060 -16.138  -0.914  0.00  0.00     0.217 HD
ENDBRANCH  10  13
ENDBRANCH   3   5
BRANCH   2  15
ATOM     15  C   UNL d   1      30.035 -16.868  -5.392  0.00  0.00     0.038 A 
ATOM     16  C   UNL d   1      30.199 -17.766  -4.326  0.00  0.00     0.030 A 
ATOM     17  C   UNL d   1      30.734 -19.055  -4.540  0.00  0.00     0.002 A 
ATOM     18  C   UNL d   1      30.997 -19.515  -5.829  0.00  0.00     0.000 A 
ATOM     19  C   UNL d   1      30.814 -18.656  -6.893  0.00  0.00     0.002 A 
ATOM     20  C   UNL d   1      30.417 -17.343  -6.644  0.00  0.00     0.030 A 
ENDBRANCH   2  15
ENDBRANCH   1   2
BRANCH   1  21
ATOM     21  C   UNL d   1      27.003 -15.401  -5.126  0.00  0.00     0.245 C 
ATOM     22  O   UNL d   1      25.961 -15.580  -5.761  0.00  0.00    -0.271 OA
ATOM     23  N   UNL d   1      27.004 -15.530  -3.737  0.00  0.00    -0.345 N 
ATOM     24  H   UNL d   1      27.825 -15.203  -3.249  0.00  0.00     0.163 HD
BRANCH  23  25
ATOM     25  C   UNL d   1      25.746 -15.589  -2.938  0.00  0.00     0.268 C 
BRANCH  25  26
ATOM     26  S   UNL d   1      25.900 -16.223  -1.189  0.00  0.00     0.192 S 
ATOM     27  O   UNL d   1      27.065 -17.060  -1.100  0.00  0.00    -0.221 OA
ATOM     28  O   UNL d   1      25.741 -15.165  -0.195  0.00  0.00    -0.221 OA
BRANCH  26  29
ATOM     29  C   UNL d   1      24.475 -17.197  -0.834  0.00  0.00     0.060 A 
ATOM     30  C   UNL d   1      23.211 -16.574  -0.899  0.00  0.00     0.024 A 
ATOM     31  C   UNL d   1      22.071 -17.278  -0.560  0.00  0.00     0.008 A 
ATOM     32  C   UNL d   1      22.192 -18.609  -0.168  0.00  0.00    -0.062 A 
ATOM     33  C   UNL d   1      20.983 -19.357   0.292  0.00  0.00     0.048 C 
ATOM     34  C   UNL d   1      23.452 -19.236  -0.174  0.00  0.00     0.008 A 
ATOM     35  C   UNL d   1      24.602 -18.536  -0.519  0.00  0.00     0.024 A 
ENDBRANCH  26  29
ENDBRANCH  25  26
ENDBRANCH  23  25
ENDBRANCH   1  21
BRANCH   1  36
ATOM     36  C   UNL d   1      28.326 -13.406  -5.752  0.00  0.00     0.004 C 
ATOM     37  C   UNL d   1      27.251 -12.679  -5.384  0.00  0.00    -0.028 C 
BRANCH  37  38
ATOM     38  C   UNL d   1      27.187 -11.193  -5.596  0.00  0.00     0.026 C 
BRANCH  38  39
ATOM     39  C   UNL d   1      26.245 -10.509  -4.604  0.00  0.00    -0.001 C 
ATOM     40  C   UNL d   1      25.824 -11.486  -3.520  0.00  0.00     0.005 C 
ENDBRANCH  38  39
ENDBRANCH  37  38
ENDBRANCH   1  36
TORSDOF 12
ENDMDL
