MODEL 1
REMARK VINA RESULT:    -7.912      0.000      0.000
REMARK INTER + INTRA:         -10.191
REMARK INTER:                  -9.404
REMARK INTRA:                  -0.787
REMARK CONF_INDEPENDENT:        1.492
REMARK UNBOUND:                -0.787
REMARK  5 active torsions:
REMARK  status: ('A' for Active; 'I' for Inactive)
REMARK       I    between atoms: C_2  and  N_3 
REMARK    1  A    between atoms: C_2  and  C_16 
REMARK    2  A    between atoms: N_3  and  C_4 
REMARK    3  A    between atoms: C_4  and  C_5 
REMARK    4  A    between atoms: C_5  and  O_6 
REMARK    5  A    between atoms: C_22  and  N_23 
ROOT
ATOM      1  O   UNL d   1      28.276 -12.694   2.212  0.00  0.00    -0.266 OA
ATOM      2  C   UNL d   1      28.144 -13.899   2.153  0.00  0.00     0.268 C 
ATOM      3  N   UNL d   1      28.600 -14.744   3.193  0.00  0.00    -0.352 N 
ATOM      4  H   UNL d   1      28.439 -15.723   3.099  0.00  0.00     0.162 HD
ENDROOT
BRANCH   2   5
ATOM      5  C   UNL d   1      27.469 -14.642   1.031  0.00  0.00     0.102 C 
ATOM      6  C   UNL d   1      27.526 -16.008   0.884  0.00  0.00     0.049 C 
ATOM      7  C   UNL d   1      26.484 -16.414   0.051  0.00  0.00    -0.005 C 
ATOM      8  C   UNL d   1      25.827 -17.642  -0.018  0.00  0.00     0.014 C 
ATOM      9  C   UNL d   1      26.171 -15.364  -0.814  0.00  0.00     0.076 C 
ATOM     10  C   UNL d   1      24.800 -17.825  -0.913  0.00  0.00     0.003 C 
ATOM     11  C   UNL d   1      24.737 -16.973  -1.995  0.00  0.00     0.038 C 
ATOM     12  C   UNL d   1      25.458 -15.736  -2.037  0.00  0.00     0.130 C 
ATOM     13  N   UNL d   1      26.595 -14.231  -0.038  0.00  0.00    -0.349 N 
ATOM     14  H   UNL d   1      26.145 -13.319  -0.044  0.00  0.00     0.166 HD
BRANCH  12  15
ATOM     15  N   UNL d   1      25.621 -15.241  -3.443  0.00  0.00    -0.113 N 
ATOM     16  O   UNL d   1      26.654 -15.575  -4.060  0.00  0.00    -0.532 OA
ATOM     17  O   UNL d   1      24.779 -14.460  -3.895  0.00  0.00    -0.532 OA
ENDBRANCH  12  15
ENDBRANCH   2   5
BRANCH   3  18
ATOM     18  C   UNL d   1      29.439 -14.367   4.356  0.00  0.00     0.165 C 
BRANCH  18  19
ATOM     19  C   UNL d   1      28.629 -14.136   5.702  0.00  0.00     0.101 C 
ATOM     20  C   UNL d   1      27.405 -13.221   5.476  0.00  0.00     0.045 C 
ATOM     21  C   UNL d   1      27.850 -11.772   5.287  0.00  0.00     0.008 C 
ATOM     22  C   UNL d   1      28.432 -11.244   6.593  0.00  0.00     0.039 C 
ATOM     23  C   UNL d   1      29.437 -12.195   7.197  0.00  0.00    -0.049 A 
ATOM     24  C   UNL d   1      30.276 -11.713   8.216  0.00  0.00     0.007 A 
ATOM     25  C   UNL d   1      29.520 -13.549   6.803  0.00  0.00    -0.016 A 
ATOM     26  C   UNL d   1      31.201 -12.552   8.834  0.00  0.00     0.001 A 
ATOM     27  C   UNL d   1      31.289 -13.886   8.453  0.00  0.00     0.001 A 
ATOM     28  C   UNL d   1      30.454 -14.380   7.451  0.00  0.00     0.011 A 
BRANCH  19  29
ATOM     29  O   UNL d   1      28.155 -15.396   6.212  0.00  0.00    -0.383 OA
ATOM     30  H   UNL d   1      28.565 -15.575   7.068  0.00  0.00     0.211 HD
ENDBRANCH  19  29
ENDBRANCH  18  19
ENDBRANCH   3  18
TORSDOF 5
ENDMDL
MODEL 2
REMARK VINA RESULT:    -7.713      5.770      8.871
REMARK INTER + INTRA:         -10.488
REMARK INTER:                  -9.204
REMARK INTRA:                  -1.284
REMARK CONF_INDEPENDENT:        1.492
REMARK UNBOUND:                -1.284
REMARK  5 active torsions:
REMARK  status: ('A' for Active; 'I' for Inactive)
REMARK       I    between atoms: C_2  and  N_3 
REMARK    1  A    between atoms: C_2  and  C_16 
REMARK    2  A    between atoms: N_3  and  C_4 
REMARK    3  A    between atoms: C_4  and  C_5 
REMARK    4  A    between atoms: C_5  and  O_6 
REMARK    5  A    between atoms: C_22  and  N_23 
ROOT
ATOM      1  O   UNL d   1      27.029 -15.375  -5.436  0.00  0.00    -0.266 OA
ATOM      2  C   UNL d   1      26.810 -14.456  -4.674  0.00  0.00     0.268 C 
ATOM      3  N   UNL d   1      26.699 -14.664  -3.279  0.00  0.00    -0.352 N 
ATOM      4  H   UNL d   1      26.544 -13.866  -2.702  0.00  0.00     0.162 HD
ENDROOT
BRANCH   2   5
ATOM      5  C   UNL d   1      26.668 -13.013  -5.077  0.00  0.00     0.102 C 
ATOM      6  C   UNL d   1      27.623 -12.326  -5.790  0.00  0.00     0.049 C 
ATOM      7  C   UNL d   1      27.032 -11.202  -6.365  0.00  0.00    -0.005 C 
ATOM      8  C   UNL d   1      27.397 -10.493  -7.509  0.00  0.00     0.014 C 
ATOM      9  C   UNL d   1      25.957 -10.807  -5.568  0.00  0.00     0.076 C 
ATOM     10  C   UNL d   1      26.655  -9.409  -7.914  0.00  0.00     0.003 C 
ATOM     11  C   UNL d   1      25.860  -8.793  -6.972  0.00  0.00     0.038 C 
ATOM     12  C   UNL d   1      25.516  -9.421  -5.732  0.00  0.00     0.130 C 
ATOM     13  N   UNL d   1      25.600 -12.054  -4.948  0.00  0.00    -0.349 N 
ATOM     14  H   UNL d   1      24.653 -12.333  -4.703  0.00  0.00     0.166 HD
BRANCH  12  15
ATOM     15  N   UNL d   1      25.077  -8.416  -4.709  0.00  0.00    -0.113 N 
ATOM     16  O   UNL d   1      25.157  -8.740  -3.505  0.00  0.00    -0.532 OA
ATOM     17  O   UNL d   1      24.575  -7.358  -5.099  0.00  0.00    -0.532 OA
ENDBRANCH  12  15
ENDBRANCH   2   5
BRANCH   3  18
ATOM     18  C   UNL d   1      26.629 -15.962  -2.565  0.00  0.00     0.165 C 
BRANCH  18  19
ATOM     19  C   UNL d   1      26.222 -15.848  -1.034  0.00  0.00     0.101 C 
ATOM     20  C   UNL d   1      27.370 -16.304  -0.107  0.00  0.00     0.045 C 
ATOM     21  C   UNL d   1      27.509 -17.825  -0.140  0.00  0.00     0.008 C 
ATOM     22  C   UNL d   1      26.282 -18.463   0.501  0.00  0.00     0.039 C 
ATOM     23  C   UNL d   1      24.993 -17.882  -0.030  0.00  0.00    -0.049 A 
ATOM     24  C   UNL d   1      23.798 -18.575   0.228  0.00  0.00     0.007 A 
ATOM     25  C   UNL d   1      24.954 -16.653  -0.726  0.00  0.00    -0.016 A 
ATOM     26  C   UNL d   1      22.574 -18.072  -0.208  0.00  0.00     0.001 A 
ATOM     27  C   UNL d   1      22.527 -16.863  -0.894  0.00  0.00     0.001 A 
ATOM     28  C   UNL d   1      23.704 -16.160  -1.146  0.00  0.00     0.011 A 
BRANCH  19  29
ATOM     29  O   UNL d   1      25.905 -14.481  -0.711  0.00  0.00    -0.383 OA
ATOM     30  H   UNL d   1      26.714 -13.955  -0.701  0.00  0.00     0.211 HD
ENDBRANCH  19  29
ENDBRANCH  18  19
ENDBRANCH   3  18
TORSDOF 5
ENDMDL
MODEL 3
REMARK VINA RESULT:    -7.683      3.581      9.137
REMARK INTER + INTRA:         -10.451
REMARK INTER:                  -9.174
REMARK INTRA:                  -1.276
REMARK CONF_INDEPENDENT:        1.492
REMARK UNBOUND:                -1.276
REMARK  5 active torsions:
REMARK  status: ('A' for Active; 'I' for Inactive)
REMARK       I    between atoms: C_2  and  N_3 
REMARK    1  A    between atoms: C_2  and  C_16 
REMARK    2  A    between atoms: N_3  and  C_4 
REMARK    3  A    between atoms: C_4  and  C_5 
REMARK    4  A    between atoms: C_5  and  O_6 
REMARK    5  A    between atoms: C_22  and  N_23 
ROOT
ATOM      1  O   UNL d   1      28.256 -14.169  -1.620  0.00  0.00    -0.266 OA
ATOM      2  C   UNL d   1      27.208 -13.888  -1.077  0.00  0.00     0.268 C 
ATOM      3  N   UNL d   1      25.980 -14.439  -1.513  0.00  0.00    -0.352 N 
ATOM      4  H   UNL d   1      25.155 -14.190  -1.010  0.00  0.00     0.162 HD
ENDROOT
BRANCH   2   5
ATOM      5  C   UNL d   1      27.066 -12.977   0.114  0.00  0.00     0.102 C 
ATOM      6  C   UNL d   1      26.729 -13.420   1.371  0.00  0.00     0.049 C 
ATOM      7  C   UNL d   1      27.098 -12.451   2.303  0.00  0.00    -0.005 C 
ATOM      8  C   UNL d   1      27.421 -12.593   3.652  0.00  0.00     0.014 C 
ATOM      9  C   UNL d   1      27.068 -11.202   1.682  0.00  0.00     0.076 C 
ATOM     10  C   UNL d   1      27.780 -11.492   4.394  0.00  0.00     0.003 C 
ATOM     11  C   UNL d   1      27.396 -10.255   3.925  0.00  0.00     0.038 C 
ATOM     12  C   UNL d   1      26.964 -10.048   2.576  0.00  0.00     0.130 C 
ATOM     13  N   UNL d   1      27.299 -11.570   0.311  0.00  0.00    -0.349 N 
ATOM     14  H   UNL d   1      27.814 -11.009  -0.364  0.00  0.00     0.166 HD
BRANCH  12  15
ATOM     15  N   UNL d   1      26.165  -8.786   2.440  0.00  0.00    -0.113 N 
ATOM     16  O   UNL d   1      26.512  -7.802   3.127  0.00  0.00    -0.532 OA
ATOM     17  O   UNL d   1      25.155  -8.801   1.731  0.00  0.00    -0.532 OA
ENDBRANCH  12  15
ENDBRANCH   2   5
BRANCH   3  18
ATOM     18  C   UNL d   1      25.735 -15.237  -2.739  0.00  0.00     0.165 C 
BRANCH  18  19
ATOM     19  C   UNL d   1      25.534 -14.372  -4.055  0.00  0.00     0.101 C 
ATOM     20  C   UNL d   1      26.031 -15.126  -5.308  0.00  0.00     0.045 C 
ATOM     21  C   UNL d   1      27.558 -15.150  -5.346  0.00  0.00     0.008 C 
ATOM     22  C   UNL d   1      28.084 -13.737  -5.568  0.00  0.00     0.039 C 
ATOM     23  C   UNL d   1      27.438 -12.734  -4.643  0.00  0.00    -0.049 A 
ATOM     24  C   UNL d   1      28.037 -11.469  -4.514  0.00  0.00     0.007 A 
ATOM     25  C   UNL d   1      26.238 -13.014  -3.952  0.00  0.00    -0.016 A 
ATOM     26  C   UNL d   1      27.469 -10.491  -3.700  0.00  0.00     0.001 A 
ATOM     27  C   UNL d   1      26.287 -10.759  -3.017  0.00  0.00     0.001 A 
ATOM     28  C   UNL d   1      25.677 -12.006  -3.146  0.00  0.00     0.011 A 
BRANCH  19  29
ATOM     29  O   UNL d   1      24.137 -14.076  -4.238  0.00  0.00    -0.383 OA
ATOM     30  H   UNL d   1      24.023 -13.521  -5.020  0.00  0.00     0.211 HD
ENDBRANCH  19  29
ENDBRANCH  18  19
ENDBRANCH   3  18
TORSDOF 5
ENDMDL
MODEL 4
REMARK VINA RESULT:    -7.568      4.630      8.177
REMARK INTER + INTRA:          -9.957
REMARK INTER:                  -9.059
REMARK INTRA:                  -0.898
REMARK CONF_INDEPENDENT:        1.492
REMARK UNBOUND:                -0.898
REMARK  5 active torsions:
REMARK  status: ('A' for Active; 'I' for Inactive)
REMARK       I    between atoms: C_2  and  N_3 
REMARK    1  A    between atoms: C_2  and  C_16 
REMARK    2  A    between atoms: N_3  and  C_4 
REMARK    3  A    between atoms: C_4  and  C_5 
REMARK    4  A    between atoms: C_5  and  O_6 
REMARK    5  A    between atoms: C_22  and  N_23 
ROOT
ATOM      1  O   UNL d   1      29.759 -13.874   0.833  0.00  0.00    -0.266 OA
ATOM      2  C   UNL d   1      28.588 -13.557   0.837  0.00  0.00     0.268 C 
ATOM      3  N   UNL d   1      27.563 -14.518   1.003  0.00  0.00    -0.352 N 
ATOM      4  H   UNL d   1      26.621 -14.193   1.023  0.00  0.00     0.162 HD
ENDROOT
BRANCH   2   5
ATOM      5  C   UNL d   1      28.072 -12.148   0.708  0.00  0.00     0.102 C 
ATOM      6  C   UNL d   1      28.532 -11.255  -0.231  0.00  0.00     0.049 C 
ATOM      7  C   UNL d   1      27.593 -10.236  -0.380  0.00  0.00    -0.005 C 
ATOM      8  C   UNL d   1      27.342  -9.411  -1.477  0.00  0.00     0.014 C 
ATOM      9  C   UNL d   1      26.892 -10.097   0.819  0.00  0.00     0.076 C 
ATOM     10  C   UNL d   1      26.342  -8.470  -1.416  0.00  0.00     0.003 C 
ATOM     11  C   UNL d   1      25.919  -8.068  -0.168  0.00  0.00     0.038 C 
ATOM     12  C   UNL d   1      26.216  -8.815   1.018  0.00  0.00     0.130 C 
ATOM     13  N   UNL d   1      27.018 -11.421   1.366  0.00  0.00    -0.349 N 
ATOM     14  H   UNL d   1      26.311 -11.888   1.928  0.00  0.00     0.166 HD
BRANCH  12  15
ATOM     15  N   UNL d   1      26.087  -7.968   2.249  0.00  0.00    -0.113 N 
ATOM     16  O   UNL d   1      26.470  -8.456   3.333  0.00  0.00    -0.532 OA
ATOM     17  O   UNL d   1      25.529  -6.871   2.154  0.00  0.00    -0.532 OA
ENDBRANCH  12  15
ENDBRANCH   2   5
BRANCH   3  18
ATOM     18  C   UNL d   1      27.704 -15.994   0.999  0.00  0.00     0.165 C 
BRANCH  18  19
ATOM     19  C   UNL d   1      27.351 -16.684  -0.387  0.00  0.00     0.101 C 
ATOM     20  C   UNL d   1      27.713 -15.773  -1.580  0.00  0.00     0.045 C 
ATOM     21  C   UNL d   1      26.715 -14.623  -1.696  0.00  0.00     0.008 C 
ATOM     22  C   UNL d   1      25.349 -15.173  -2.091  0.00  0.00     0.039 C 
ATOM     23  C   UNL d   1      24.940 -16.352  -1.241  0.00  0.00    -0.049 A 
ATOM     24  C   UNL d   1      23.595 -16.759  -1.275  0.00  0.00     0.007 A 
ATOM     25  C   UNL d   1      25.871 -17.075  -0.462  0.00  0.00    -0.016 A 
ATOM     26  C   UNL d   1      23.164 -17.860  -0.537  0.00  0.00     0.001 A 
ATOM     27  C   UNL d   1      24.074 -18.577   0.232  0.00  0.00     0.001 A 
ATOM     28  C   UNL d   1      25.414 -18.190   0.265  0.00  0.00     0.011 A 
BRANCH  19  29
ATOM     29  O   UNL d   1      28.088 -17.913  -0.524  0.00  0.00    -0.383 OA
ATOM     30  H   UNL d   1      28.823 -17.923   0.102  0.00  0.00     0.211 HD
ENDBRANCH  19  29
ENDBRANCH  18  19
ENDBRANCH   3  18
TORSDOF 5
ENDMDL
MODEL 5
REMARK VINA RESULT:    -7.295      3.714      8.665
REMARK INTER + INTRA:         -10.037
REMARK INTER:                  -8.786
REMARK INTRA:                  -1.251
REMARK CONF_INDEPENDENT:        1.492
REMARK UNBOUND:                -1.251
REMARK  5 active torsions:
REMARK  status: ('A' for Active; 'I' for Inactive)
REMARK       I    between atoms: C_2  and  N_3 
REMARK    1  A    between atoms: C_2  and  C_16 
REMARK    2  A    between atoms: N_3  and  C_4 
REMARK    3  A    between atoms: C_4  and  C_5 
REMARK    4  A    between atoms: C_5  and  O_6 
REMARK    5  A    between atoms: C_22  and  N_23 
ROOT
ATOM      1  O   UNL d   1      29.131 -13.511  -1.352  0.00  0.00    -0.266 OA
ATOM      2  C   UNL d   1      28.152 -12.794  -1.341  0.00  0.00     0.268 C 
ATOM      3  N   UNL d   1      27.298 -12.692  -2.464  0.00  0.00    -0.352 N 
ATOM      4  H   UNL d   1      26.495 -12.107  -2.385  0.00  0.00     0.162 HD
ENDROOT
BRANCH   2   5
ATOM      5  C   UNL d   1      27.698 -11.969  -0.166  0.00  0.00     0.102 C 
ATOM      6  C   UNL d   1      27.220 -12.512   1.003  0.00  0.00     0.049 C 
ATOM      7  C   UNL d   1      27.300 -11.551   2.010  0.00  0.00    -0.005 C 
ATOM      8  C   UNL d   1      27.413 -11.717   3.390  0.00  0.00     0.014 C 
ATOM      9  C   UNL d   1      27.207 -10.287   1.428  0.00  0.00     0.076 C 
ATOM     10  C   UNL d   1      27.496 -10.618   4.212  0.00  0.00     0.003 C 
ATOM     11  C   UNL d   1      27.034  -9.417   3.719  0.00  0.00     0.038 C 
ATOM     12  C   UNL d   1      26.806  -9.200   2.322  0.00  0.00     0.130 C 
ATOM     13  N   UNL d   1      27.706 -10.554   0.106  0.00  0.00    -0.349 N 
ATOM     14  H   UNL d   1      28.246  -9.901  -0.456  0.00  0.00     0.166 HD
BRANCH  12  15
ATOM     15  N   UNL d   1      25.879  -8.044   2.089  0.00  0.00    -0.113 N 
ATOM     16  O   UNL d   1      25.155  -8.076   1.071  0.00  0.00    -0.532 OA
ATOM     17  O   UNL d   1      25.936  -7.078   2.855  0.00  0.00    -0.532 OA
ENDBRANCH  12  15
ENDBRANCH   2   5
BRANCH   3  18
ATOM     18  C   UNL d   1      27.530 -13.236  -3.824  0.00  0.00     0.165 C 
BRANCH  18  19
ATOM     19  C   UNL d   1      26.848 -14.645  -4.092  0.00  0.00     0.101 C 
ATOM     20  C   UNL d   1      25.385 -14.484  -4.563  0.00  0.00     0.045 C 
ATOM     21  C   UNL d   1      24.491 -14.075  -3.394  0.00  0.00     0.008 C 
ATOM     22  C   UNL d   1      24.402 -15.222  -2.395  0.00  0.00     0.039 C 
ATOM     23  C   UNL d   1      25.759 -15.788  -2.052  0.00  0.00    -0.049 A 
ATOM     24  C   UNL d   1      25.863 -16.624  -0.927  0.00  0.00     0.007 A 
ATOM     25  C   UNL d   1      26.898 -15.542  -2.850  0.00  0.00    -0.016 A 
ATOM     26  C   UNL d   1      27.083 -17.202  -0.579  0.00  0.00     0.001 A 
ATOM     27  C   UNL d   1      28.209 -16.965  -1.360  0.00  0.00     0.001 A 
ATOM     28  C   UNL d   1      28.116 -16.148  -2.485  0.00  0.00     0.011 A 
BRANCH  19  29
ATOM     29  O   UNL d   1      27.570 -15.353  -5.116  0.00  0.00    -0.383 OA
ATOM     30  H   UNL d   1      28.396 -14.891  -5.308  0.00  0.00     0.211 HD
ENDBRANCH  19  29
ENDBRANCH  18  19
ENDBRANCH   3  18
TORSDOF 5
ENDMDL
MODEL 6
REMARK VINA RESULT:    -7.279      2.173      3.273
REMARK INTER + INTRA:          -9.944
REMARK INTER:                  -8.770
REMARK INTRA:                  -1.173
REMARK CONF_INDEPENDENT:        1.492
REMARK UNBOUND:                -1.173
REMARK  5 active torsions:
REMARK  status: ('A' for Active; 'I' for Inactive)
REMARK       I    between atoms: C_2  and  N_3 
REMARK    1  A    between atoms: C_2  and  C_16 
REMARK    2  A    between atoms: N_3  and  C_4 
REMARK    3  A    between atoms: C_4  and  C_5 
REMARK    4  A    between atoms: C_5  and  O_6 
REMARK    5  A    between atoms: C_22  and  N_23 
ROOT
ATOM      1  O   UNL d   1      29.925 -12.888   0.396  0.00  0.00    -0.266 OA
ATOM      2  C   UNL d   1      29.437 -13.974   0.629  0.00  0.00     0.268 C 
ATOM      3  N   UNL d   1      29.759 -14.691   1.805  0.00  0.00    -0.352 N 
ATOM      4  H   UNL d   1      29.306 -15.567   1.953  0.00  0.00     0.162 HD
ENDROOT
BRANCH   2   5
ATOM      5  C   UNL d   1      28.429 -14.675  -0.243  0.00  0.00     0.102 C 
ATOM      6  C   UNL d   1      28.252 -16.039  -0.251  0.00  0.00     0.049 C 
ATOM      7  C   UNL d   1      27.004 -16.326  -0.802  0.00  0.00    -0.005 C 
ATOM      8  C   UNL d   1      26.176 -17.430  -0.601  0.00  0.00     0.014 C 
ATOM      9  C   UNL d   1      26.664 -15.306  -1.691  0.00  0.00     0.076 C 
ATOM     10  C   UNL d   1      24.961 -17.506  -1.239  0.00  0.00     0.003 C 
ATOM     11  C   UNL d   1      24.785 -16.737  -2.369  0.00  0.00     0.038 C 
ATOM     12  C   UNL d   1      25.650 -15.643  -2.692  0.00  0.00     0.130 C 
ATOM     13  N   UNL d   1      27.410 -14.205  -1.145  0.00  0.00    -0.349 N 
ATOM     14  H   UNL d   1      27.107 -13.234  -1.156  0.00  0.00     0.166 HD
BRANCH  12  15
ATOM     15  N   UNL d   1      25.568 -15.286  -4.146  0.00  0.00    -0.113 N 
ATOM     16  O   UNL d   1      26.297 -15.917  -4.941  0.00  0.00    -0.532 OA
ATOM     17  O   UNL d   1      24.858 -14.334  -4.481  0.00  0.00    -0.532 OA
ENDBRANCH  12  15
ENDBRANCH   2   5
BRANCH   3  18
ATOM     18  C   UNL d   1      30.820 -14.373   2.791  0.00  0.00     0.165 C 
BRANCH  18  19
ATOM     19  C   UNL d   1      30.350 -13.429   3.979  0.00  0.00     0.101 C 
ATOM     20  C   UNL d   1      29.730 -14.243   5.136  0.00  0.00     0.045 C 
ATOM     21  C   UNL d   1      28.340 -14.746   4.750  0.00  0.00     0.008 C 
ATOM     22  C   UNL d   1      27.388 -13.562   4.619  0.00  0.00     0.039 C 
ATOM     23  C   UNL d   1      27.972 -12.450   3.780  0.00  0.00    -0.049 A 
ATOM     24  C   UNL d   1      27.105 -11.445   3.316  0.00  0.00     0.007 A 
ATOM     25  C   UNL d   1      29.353 -12.369   3.497  0.00  0.00    -0.016 A 
ATOM     26  C   UNL d   1      27.590 -10.377   2.565  0.00  0.00     0.001 A 
ATOM     27  C   UNL d   1      28.948 -10.290   2.281  0.00  0.00     0.001 A 
ATOM     28  C   UNL d   1      29.820 -11.273   2.746  0.00  0.00     0.011 A 
BRANCH  19  29
ATOM     29  O   UNL d   1      31.476 -12.700   4.500  0.00  0.00    -0.383 OA
ATOM     30  H   UNL d   1      32.184 -13.316   4.728  0.00  0.00     0.211 HD
ENDBRANCH  19  29
ENDBRANCH  18  19
ENDBRANCH   3  18
TORSDOF 5
ENDMDL
MODEL 7
REMARK VINA RESULT:    -7.083      6.683      8.336
REMARK INTER + INTRA:         -10.186
REMARK INTER:                  -8.574
REMARK INTRA:                  -1.612
REMARK CONF_INDEPENDENT:        1.492
REMARK UNBOUND:                -1.612
REMARK  5 active torsions:
REMARK  status: ('A' for Active; 'I' for Inactive)
REMARK       I    between atoms: C_2  and  N_3 
REMARK    1  A    between atoms: C_2  and  C_16 
REMARK    2  A    between atoms: N_3  and  C_4 
REMARK    3  A    between atoms: C_4  and  C_5 
REMARK    4  A    between atoms: C_5  and  O_6 
REMARK    5  A    between atoms: C_22  and  N_23 
ROOT
ATOM      1  O   UNL d   1      25.040 -13.842  -4.691  0.00  0.00    -0.266 OA
ATOM      2  C   UNL d   1      25.317 -14.042  -3.526  0.00  0.00     0.268 C 
ATOM      3  N   UNL d   1      26.090 -13.119  -2.782  0.00  0.00    -0.352 N 
ATOM      4  H   UNL d   1      26.262 -13.326  -1.822  0.00  0.00     0.162 HD
ENDROOT
BRANCH   2   5
ATOM      5  C   UNL d   1      24.868 -15.232  -2.721  0.00  0.00     0.102 C 
ATOM      6  C   UNL d   1      25.680 -16.304  -2.434  0.00  0.00     0.049 C 
ATOM      7  C   UNL d   1      25.142 -16.997  -1.350  0.00  0.00    -0.005 C 
ATOM      8  C   UNL d   1      25.778 -17.802  -0.405  0.00  0.00     0.014 C 
ATOM      9  C   UNL d   1      23.760 -16.807  -1.342  0.00  0.00     0.076 C 
ATOM     10  C   UNL d   1      25.051 -18.385   0.605  0.00  0.00     0.003 C 
ATOM     11  C   UNL d   1      23.693 -18.524   0.415  0.00  0.00     0.038 C 
ATOM     12  C   UNL d   1      22.984 -17.800  -0.597  0.00  0.00     0.130 C 
ATOM     13  N   UNL d   1      23.651 -15.542  -2.014  0.00  0.00    -0.349 N 
ATOM     14  H   UNL d   1      22.951 -14.832  -1.811  0.00  0.00     0.166 HD
BRANCH  12  15
ATOM     15  N   UNL d   1      21.674 -18.452  -0.925  0.00  0.00    -0.113 N 
ATOM     16  O   UNL d   1      20.647 -17.741  -0.895  0.00  0.00    -0.532 OA
ATOM     17  O   UNL d   1      21.654 -19.670  -1.121  0.00  0.00    -0.532 OA
ENDBRANCH  12  15
ENDBRANCH   2   5
BRANCH   3  18
ATOM     18  C   UNL d   1      26.818 -11.934  -3.297  0.00  0.00     0.165 C 
BRANCH  18  19
ATOM     19  C   UNL d   1      28.279 -12.246  -3.837  0.00  0.00     0.101 C 
ATOM     20  C   UNL d   1      28.432 -11.842  -5.319  0.00  0.00     0.045 C 
ATOM     21  C   UNL d   1      27.697 -12.832  -6.221  0.00  0.00     0.008 C 
ATOM     22  C   UNL d   1      28.393 -14.186  -6.164  0.00  0.00     0.039 C 
ATOM     23  C   UNL d   1      28.672 -14.627  -4.747  0.00  0.00    -0.049 A 
ATOM     24  C   UNL d   1      29.017 -15.972  -4.527  0.00  0.00     0.007 A 
ATOM     25  C   UNL d   1      28.643 -13.724  -3.661  0.00  0.00    -0.016 A 
ATOM     26  C   UNL d   1      29.316 -16.430  -3.245  0.00  0.00     0.001 A 
ATOM     27  C   UNL d   1      29.290 -15.548  -2.171  0.00  0.00     0.001 A 
ATOM     28  C   UNL d   1      28.961 -14.209  -2.378  0.00  0.00     0.011 A 
BRANCH  19  29
ATOM     29  O   UNL d   1      29.252 -11.510  -3.071  0.00  0.00    -0.383 OA
ATOM     30  H   UNL d   1      28.821 -10.770  -2.625  0.00  0.00     0.211 HD
ENDBRANCH  19  29
ENDBRANCH  18  19
ENDBRANCH   3  18
TORSDOF 5
ENDMDL
MODEL 8
REMARK VINA RESULT:    -6.935      1.628      2.221
REMARK INTER + INTRA:          -9.924
REMARK INTER:                  -8.427
REMARK INTRA:                  -1.497
REMARK CONF_INDEPENDENT:        1.492
REMARK UNBOUND:                -1.497
REMARK  5 active torsions:
REMARK  status: ('A' for Active; 'I' for Inactive)
REMARK       I    between atoms: C_2  and  N_3 
REMARK    1  A    between atoms: C_2  and  C_16 
REMARK    2  A    between atoms: N_3  and  C_4 
REMARK    3  A    between atoms: C_4  and  C_5 
REMARK    4  A    between atoms: C_5  and  O_6 
REMARK    5  A    between atoms: C_22  and  N_23 
ROOT
ATOM      1  O   UNL d   1      28.825 -12.166   1.024  0.00  0.00    -0.266 OA
ATOM      2  C   UNL d   1      27.823 -12.826   1.205  0.00  0.00     0.268 C 
ATOM      3  N   UNL d   1      27.068 -12.710   2.396  0.00  0.00    -0.352 N 
ATOM      4  H   UNL d   1      26.240 -13.260   2.475  0.00  0.00     0.162 HD
ENDROOT
BRANCH   2   5
ATOM      5  C   UNL d   1      27.238 -13.800   0.218  0.00  0.00     0.102 C 
ATOM      6  C   UNL d   1      27.419 -15.161   0.295  0.00  0.00     0.049 C 
ATOM      7  C   UNL d   1      26.433 -15.789  -0.464  0.00  0.00    -0.005 C 
ATOM      8  C   UNL d   1      25.890 -17.068  -0.333  0.00  0.00     0.014 C 
ATOM      9  C   UNL d   1      26.043 -14.927  -1.489  0.00  0.00     0.076 C 
ATOM     10  C   UNL d   1      24.900 -17.486  -1.189  0.00  0.00     0.003 C 
ATOM     11  C   UNL d   1      24.780 -16.830  -2.395  0.00  0.00     0.038 C 
ATOM     12  C   UNL d   1      25.387 -15.556  -2.636  0.00  0.00     0.130 C 
ATOM     13  N   UNL d   1      26.350 -13.649  -0.906  0.00  0.00    -0.349 N 
ATOM     14  H   UNL d   1      25.820 -12.795  -1.063  0.00  0.00     0.166 HD
BRANCH  12  15
ATOM     15  N   UNL d   1      25.530 -15.283  -4.104  0.00  0.00    -0.113 N 
ATOM     16  O   UNL d   1      26.464 -15.848  -4.712  0.00  0.00    -0.532 OA
ATOM     17  O   UNL d   1      24.782 -14.450  -4.625  0.00  0.00    -0.532 OA
ENDBRANCH  12  15
ENDBRANCH   2   5
BRANCH   3  18
ATOM     18  C   UNL d   1      27.438 -11.973   3.628  0.00  0.00     0.165 C 
BRANCH  18  19
ATOM     19  C   UNL d   1      28.801 -12.445   4.291  0.00  0.00     0.101 C 
ATOM     20  C   UNL d   1      29.113 -13.920   3.955  0.00  0.00     0.045 C 
ATOM     21  C   UNL d   1      28.200 -14.853   4.747  0.00  0.00     0.008 C 
ATOM     22  C   UNL d   1      28.543 -14.763   6.230  0.00  0.00     0.039 C 
ATOM     23  C   UNL d   1      28.643 -13.335   6.708  0.00  0.00    -0.049 A 
ATOM     24  C   UNL d   1      28.641 -13.098   8.093  0.00  0.00     0.007 A 
ATOM     25  C   UNL d   1      28.786 -12.252   5.812  0.00  0.00    -0.016 A 
ATOM     26  C   UNL d   1      28.763 -11.803   8.595  0.00  0.00     0.001 A 
ATOM     27  C   UNL d   1      28.905 -10.732   7.720  0.00  0.00     0.001 A 
ATOM     28  C   UNL d   1      28.921 -10.955   6.344  0.00  0.00     0.011 A 
BRANCH  19  29
ATOM     29  O   UNL d   1      29.889 -11.637   3.804  0.00  0.00    -0.383 OA
ATOM     30  H   UNL d   1      29.929 -11.695   2.841  0.00  0.00     0.211 HD
ENDBRANCH  19  29
ENDBRANCH  18  19
ENDBRANCH   3  18
TORSDOF 5
ENDMDL
MODEL 9
REMARK VINA RESULT:    -6.854      6.871      9.682
REMARK INTER + INTRA:          -9.821
REMARK INTER:                  -8.345
REMARK INTRA:                  -1.476
REMARK CONF_INDEPENDENT:        1.492
REMARK UNBOUND:                -1.476
REMARK  5 active torsions:
REMARK  status: ('A' for Active; 'I' for Inactive)
REMARK       I    between atoms: C_2  and  N_3 
REMARK    1  A    between atoms: C_2  and  C_16 
REMARK    2  A    between atoms: N_3  and  C_4 
REMARK    3  A    between atoms: C_4  and  C_5 
REMARK    4  A    between atoms: C_5  and  O_6 
REMARK    5  A    between atoms: C_22  and  N_23 
ROOT
ATOM      1  O   UNL d   1      24.892 -12.995  -3.886  0.00  0.00    -0.266 OA
ATOM      2  C   UNL d   1      25.591 -13.824  -3.341  0.00  0.00     0.268 C 
ATOM      3  N   UNL d   1      26.999 -13.693  -3.305  0.00  0.00    -0.352 N 
ATOM      4  H   UNL d   1      27.518 -14.392  -2.819  0.00  0.00     0.162 HD
ENDROOT
BRANCH   2   5
ATOM      5  C   UNL d   1      25.085 -15.043  -2.618  0.00  0.00     0.102 C 
ATOM      6  C   UNL d   1      25.879 -16.120  -2.298  0.00  0.00     0.049 C 
ATOM      7  C   UNL d   1      25.255 -16.853  -1.289  0.00  0.00    -0.005 C 
ATOM      8  C   UNL d   1      25.815 -17.686  -0.320  0.00  0.00     0.014 C 
ATOM      9  C   UNL d   1      23.876 -16.672  -1.394  0.00  0.00     0.076 C 
ATOM     10  C   UNL d   1      25.008 -18.307   0.603  0.00  0.00     0.003 C 
ATOM     11  C   UNL d   1      23.673 -18.448   0.292  0.00  0.00     0.038 C 
ATOM     12  C   UNL d   1      23.048 -17.694  -0.752  0.00  0.00     0.130 C 
ATOM     13  N   UNL d   1      23.815 -15.384  -2.030  0.00  0.00    -0.349 N 
ATOM     14  H   UNL d   1      23.094 -14.686  -1.864  0.00  0.00     0.166 HD
BRANCH  12  15
ATOM     15  N   UNL d   1      21.776 -18.342  -1.214  0.00  0.00    -0.113 N 
ATOM     16  O   UNL d   1      21.870 -19.325  -1.979  0.00  0.00    -0.532 OA
ATOM     17  O   UNL d   1      20.701 -17.826  -0.895  0.00  0.00    -0.532 OA
ENDBRANCH  12  15
ENDBRANCH   2   5
BRANCH   3  18
ATOM     18  C   UNL d   1      27.832 -12.711  -4.041  0.00  0.00     0.165 C 
BRANCH  18  19
ATOM     19  C   UNL d   1      27.635 -12.735  -5.617  0.00  0.00     0.101 C 
ATOM     20  C   UNL d   1      27.455 -14.176  -6.143  0.00  0.00     0.045 C 
ATOM     21  C   UNL d   1      28.787 -14.923  -6.120  0.00  0.00     0.008 C 
ATOM     22  C   UNL d   1      29.735 -14.305  -7.141  0.00  0.00     0.039 C 
ATOM     23  C   UNL d   1      29.792 -12.800  -7.031  0.00  0.00    -0.049 A 
ATOM     24  C   UNL d   1      30.841 -12.127  -7.682  0.00  0.00     0.007 A 
ATOM     25  C   UNL d   1      28.806 -12.061  -6.342  0.00  0.00    -0.016 A 
ATOM     26  C   UNL d   1      30.928 -10.737  -7.643  0.00  0.00     0.001 A 
ATOM     27  C   UNL d   1      29.961 -10.001  -6.967  0.00  0.00     0.001 A 
ATOM     28  C   UNL d   1      28.909 -10.656  -6.328  0.00  0.00     0.011 A 
BRANCH  19  29
ATOM     29  O   UNL d   1      26.464 -11.980  -5.977  0.00  0.00    -0.383 OA
ATOM     30  H   UNL d   1      25.675 -12.430  -5.650  0.00  0.00     0.211 HD
ENDBRANCH  19  29
ENDBRANCH  18  19
ENDBRANCH   3  18
TORSDOF 5
ENDMDL
