MODEL 1
REMARK VINA RESULT:   -31.133      0.000      0.000
REMARK INTER + INTRA:         -34.178
REMARK INTER:                 -33.221
REMARK INTRA:                  -0.957
REMARK CONF_INDEPENDENT:        2.088
REMARK UNBOUND:                -0.957
REMARK  7 active torsions:
REMARK  status: ('A' for Active; 'I' for Inactive)
REMARK    1  A    between atoms: C_6  and  S_7 
REMARK    2  A    between atoms: S_7  and  C_8 
REMARK    3  A    between atoms: C_8  and  C_9 
REMARK    4  A    between atoms: C_12  and  C_13 
REMARK       I    between atoms: C_13  and  N_15 
REMARK    5  A    between atoms: N_15  and  N_16 
REMARK       I    between atoms: N_16  and  C_17 
REMARK    6  A    between atoms: C_17  and  C_19 
REMARK    7  A    between atoms: C_19  and  C_20 
ROOT
ATOM      1  C   UNL d   1      25.668 -14.671  -3.481  0.00  0.00     0.270 C 
ATOM      2  O   UNL d   1      25.244 -15.514  -4.273  0.00  0.00    -0.266 OA
ATOM      3  N   UNL d   1      25.547 -14.829  -2.053  0.00  0.00    -0.263 N 
ATOM      4  H   UNL d   1      25.921 -14.146  -1.403  0.00  0.00     0.190 HD
ENDROOT
BRANCH   1   5
ATOM      5  C   UNL d   1      26.387 -13.427  -4.075  0.00  0.00     0.033 A 
ATOM      6  C   UNL d   1      27.801 -13.256  -4.006  0.00  0.00     0.017 A 
ATOM      7  C   UNL d   1      28.444 -12.059  -4.434  0.00  0.00     0.009 A 
ATOM      8  C   UNL d   1      27.702 -11.039  -5.047  0.00  0.00    -0.048 A 
ATOM      9  C   UNL d   1      26.314 -11.208  -5.098  0.00  0.00     0.009 A 
ATOM     10  C   UNL d   1      25.676 -12.377  -4.650  0.00  0.00     0.017 A 
BRANCH   8  11
ATOM     11  C   UNL d   1      28.373  -9.807  -5.642  0.00  0.00     0.121 C 
BRANCH  11  12
ATOM     12  S   UNL d   1      29.894 -10.163  -6.567  0.00  0.00    -0.086 SA
BRANCH  12  13
ATOM     13  C   UNL d   1      29.917 -11.836  -6.998  0.00  0.00     0.184 A 
ATOM     14  N   UNL d   1      28.918 -12.302  -7.733  0.00  0.00    -0.152 NA
ATOM     15  N   UNL d   1      29.206 -13.613  -7.957  0.00  0.00    -0.293 N 
ATOM     16  C   UNL d   1      30.406 -14.006  -7.270  0.00  0.00     0.267 A 
ATOM     17  H   UNL d   1      28.556 -14.254  -8.390  0.00  0.00     0.184 HD
ATOM     18  N   UNL d   1      30.852 -12.781  -6.640  0.00  0.00    -0.346 N 
ATOM     19  C   UNL d   1      32.206 -12.626  -6.222  0.00  0.00     0.153 C 
ENDBRANCH  12  13
ENDBRANCH  11  12
ENDBRANCH   8  11
ENDBRANCH   1   5
BRANCH   3  20
ATOM     20  N   UNL d   1      24.977 -16.143  -1.372  0.00  0.00    -0.267 N 
ATOM     21  C   UNL d   1      23.522 -16.360  -1.087  0.00  0.00     0.237 C 
ATOM     22  O   UNL d   1      22.731 -15.502  -1.493  0.00  0.00    -0.272 OA
ATOM     23  H   UNL d   1      25.721 -16.822  -1.230  0.00  0.00     0.190 HD
BRANCH  21  24
ATOM     24  C   UNL d   1      23.034 -17.841  -0.199  0.00  0.00     0.121 C 
BRANCH  24  25
ATOM     25  C   UNL d   1      21.377 -18.592   0.080  0.00  0.00     0.028 C 
ATOM     26  C   UNL d   1      21.198 -19.325  -1.062  0.00  0.00     0.094 C 
ATOM     27  N   UNL d   1      19.905 -18.929  -1.106  0.00  0.00    -0.285 NA
ATOM     28  C   UNL d   1      19.364 -19.759  -0.171  0.00  0.00     0.015 C 
ATOM     29  H   UNL d   1      19.548 -17.985  -1.120  0.00  0.00     0.128 HD
ATOM     30  C   UNL d   1      18.127 -20.450  -0.519  0.00  0.00     0.024 C 
ATOM     31  C   UNL d   1      20.387 -19.758   0.983  0.00  0.00    -0.025 C 
ATOM     32  C   UNL d   1      17.510 -21.411   0.218  0.00  0.00     0.002 C 
ATOM     33  C   UNL d   1      18.200 -21.646   1.355  0.00  0.00     0.001 C 
ATOM     34  C   UNL d   1      19.447 -20.814   1.676  0.00  0.00     0.010 C 
ENDBRANCH  24  25
ENDBRANCH  21  24
ENDBRANCH   3  20
TORSDOF 7
ENDMDL
MODEL 2
REMARK VINA RESULT:   -31.074      1.784      2.028
REMARK INTER + INTRA:         -34.062
REMARK INTER:                 -33.162
REMARK INTRA:                  -0.900
REMARK CONF_INDEPENDENT:        2.088
REMARK UNBOUND:                -0.900
REMARK  7 active torsions:
REMARK  status: ('A' for Active; 'I' for Inactive)
REMARK    1  A    between atoms: C_6  and  S_7 
REMARK    2  A    between atoms: S_7  and  C_8 
REMARK    3  A    between atoms: C_8  and  C_9 
REMARK    4  A    between atoms: C_12  and  C_13 
REMARK       I    between atoms: C_13  and  N_15 
REMARK    5  A    between atoms: N_15  and  N_16 
REMARK       I    between atoms: N_16  and  C_17 
REMARK    6  A    between atoms: C_17  and  C_19 
REMARK    7  A    between atoms: C_19  and  C_20 
ROOT
ATOM      1  C   UNL d   1      25.922 -14.367  -2.912  0.00  0.00     0.270 C 
ATOM      2  O   UNL d   1      25.624 -13.467  -2.125  0.00  0.00    -0.266 OA
ATOM      3  N   UNL d   1      25.633 -15.754  -2.639  0.00  0.00    -0.263 N 
ATOM      4  H   UNL d   1      25.856 -16.490  -3.301  0.00  0.00     0.190 HD
ENDROOT
BRANCH   1   5
ATOM      5  C   UNL d   1      26.595 -13.955  -4.252  0.00  0.00     0.033 A 
ATOM      6  C   UNL d   1      27.361 -14.867  -5.034  0.00  0.00     0.017 A 
ATOM      7  C   UNL d   1      28.083 -14.455  -6.192  0.00  0.00     0.009 A 
ATOM      8  C   UNL d   1      27.970 -13.140  -6.664  0.00  0.00    -0.048 A 
ATOM      9  C   UNL d   1      27.228 -12.247  -5.882  0.00  0.00     0.009 A 
ATOM     10  C   UNL d   1      26.539 -12.646  -4.725  0.00  0.00     0.017 A 
BRANCH   8  11
ATOM     11  C   UNL d   1      28.614 -12.700  -7.973  0.00  0.00     0.121 C 
BRANCH  11  12
ATOM     12  S   UNL d   1      30.405 -12.420  -7.863  0.00  0.00    -0.086 SA
BRANCH  12  13
ATOM     13  C   UNL d   1      31.210 -13.944  -7.743  0.00  0.00     0.184 A 
ATOM     14  N   UNL d   1      30.669 -14.873  -6.968  0.00  0.00    -0.152 NA
ATOM     15  N   UNL d   1      31.471 -15.966  -7.091  0.00  0.00    -0.293 N 
ATOM     16  C   UNL d   1      32.607 -15.687  -7.926  0.00  0.00     0.267 A 
ATOM     17  H   UNL d   1      31.369 -16.791  -6.515  0.00  0.00     0.184 HD
ATOM     18  N   UNL d   1      32.391 -14.318  -8.344  0.00  0.00    -0.346 N 
ATOM     19  C   UNL d   1      33.042 -13.797  -9.500  0.00  0.00     0.153 C 
ENDBRANCH  12  13
ENDBRANCH  11  12
ENDBRANCH   8  11
ENDBRANCH   1   5
BRANCH   3  20
ATOM     20  N   UNL d   1      24.804 -16.233  -1.374  0.00  0.00    -0.267 N 
ATOM     21  C   UNL d   1      23.955 -17.466  -1.363  0.00  0.00     0.237 C 
ATOM     22  O   UNL d   1      23.986 -18.184  -2.368  0.00  0.00    -0.272 OA
ATOM     23  H   UNL d   1      24.992 -15.628  -0.577  0.00  0.00     0.190 HD
BRANCH  21  24
ATOM     24  C   UNL d   1      22.973 -17.818   0.098  0.00  0.00     0.121 C 
BRANCH  24  25
ATOM     25  C   UNL d   1      21.306 -18.578   0.278  0.00  0.00     0.028 C 
ATOM     26  C   UNL d   1      21.196 -19.304  -0.877  0.00  0.00     0.094 C 
ATOM     27  N   UNL d   1      19.905 -18.915  -0.991  0.00  0.00    -0.285 NA
ATOM     28  C   UNL d   1      19.317 -19.754  -0.093  0.00  0.00     0.015 C 
ATOM     29  H   UNL d   1      19.544 -17.972  -1.017  0.00  0.00     0.128 HD
ATOM     30  C   UNL d   1      18.105 -20.449  -0.515  0.00  0.00     0.024 C 
ATOM     31  C   UNL d   1      20.274 -19.756   1.116  0.00  0.00    -0.025 C 
ATOM     32  C   UNL d   1      17.453 -21.417   0.179  0.00  0.00     0.002 C 
ATOM     33  C   UNL d   1      18.079 -21.658   1.352  0.00  0.00     0.001 C 
ATOM     34  C   UNL d   1      19.302 -20.822   1.747  0.00  0.00     0.010 C 
ENDBRANCH  24  25
ENDBRANCH  21  24
ENDBRANCH   3  20
TORSDOF 7
ENDMDL
MODEL 3
REMARK VINA RESULT:   -30.958      2.548      3.526
REMARK INTER + INTRA:         -34.027
REMARK INTER:                 -33.046
REMARK INTRA:                  -0.981
REMARK CONF_INDEPENDENT:        2.088
REMARK UNBOUND:                -0.981
REMARK  7 active torsions:
REMARK  status: ('A' for Active; 'I' for Inactive)
REMARK    1  A    between atoms: C_6  and  S_7 
REMARK    2  A    between atoms: S_7  and  C_8 
REMARK    3  A    between atoms: C_8  and  C_9 
REMARK    4  A    between atoms: C_12  and  C_13 
REMARK       I    between atoms: C_13  and  N_15 
REMARK    5  A    between atoms: N_15  and  N_16 
REMARK       I    between atoms: N_16  and  C_17 
REMARK    6  A    between atoms: C_17  and  C_19 
REMARK    7  A    between atoms: C_19  and  C_20 
ROOT
ATOM      1  C   UNL d   1      25.801 -14.676  -3.454  0.00  0.00     0.270 C 
ATOM      2  O   UNL d   1      25.464 -15.546  -4.258  0.00  0.00    -0.266 OA
ATOM      3  N   UNL d   1      25.578 -14.812  -2.036  0.00  0.00    -0.263 N 
ATOM      4  H   UNL d   1      25.881 -14.106  -1.374  0.00  0.00     0.190 HD
ENDROOT
BRANCH   1   5
ATOM      5  C   UNL d   1      26.523 -13.420  -4.018  0.00  0.00     0.033 A 
ATOM      6  C   UNL d   1      26.723 -13.217  -5.415  0.00  0.00     0.017 A 
ATOM      7  C   UNL d   1      27.497 -12.133  -5.922  0.00  0.00     0.009 A 
ATOM      8  C   UNL d   1      28.002 -11.157  -5.051  0.00  0.00    -0.048 A 
ATOM      9  C   UNL d   1      27.814 -11.371  -3.681  0.00  0.00     0.009 A 
ATOM     10  C   UNL d   1      27.075 -12.455  -3.179  0.00  0.00     0.017 A 
BRANCH   8  11
ATOM     11  C   UNL d   1      28.714  -9.912  -5.568  0.00  0.00     0.121 C 
BRANCH  11  12
ATOM     12  S   UNL d   1      28.560  -8.464  -4.484  0.00  0.00    -0.086 SA
BRANCH  12  13
ATOM     13  C   UNL d   1      26.889  -8.177  -4.155  0.00  0.00     0.184 A 
ATOM     14  N   UNL d   1      26.478  -8.265  -2.898  0.00  0.00    -0.152 NA
ATOM     15  N   UNL d   1      25.154  -7.955  -2.921  0.00  0.00    -0.293 N 
ATOM     16  C   UNL d   1      24.694  -7.733  -4.265  0.00  0.00     0.267 A 
ATOM     17  H   UNL d   1      24.549  -8.059  -2.117  0.00  0.00     0.184 HD
ATOM     18  N   UNL d   1      25.893  -7.890  -5.062  0.00  0.00    -0.346 N 
ATOM     19  C   UNL d   1      25.973  -7.343  -6.375  0.00  0.00     0.153 C 
ENDBRANCH  12  13
ENDBRANCH  11  12
ENDBRANCH   8  11
ENDBRANCH   1   5
BRANCH   3  20
ATOM     20  N   UNL d   1      24.999 -16.132  -1.373  0.00  0.00    -0.267 N 
ATOM     21  C   UNL d   1      23.539 -16.364  -1.135  0.00  0.00     0.237 C 
ATOM     22  O   UNL d   1      22.753 -15.513  -1.565  0.00  0.00    -0.272 OA
ATOM     23  H   UNL d   1      25.746 -16.803  -1.207  0.00  0.00     0.190 HD
BRANCH  21  24
ATOM     24  C   UNL d   1      23.038 -17.850  -0.262  0.00  0.00     0.121 C 
BRANCH  24  25
ATOM     25  C   UNL d   1      21.371 -18.573   0.033  0.00  0.00     0.028 C 
ATOM     26  C   UNL d   1      21.194 -19.349  -1.080  0.00  0.00     0.094 C 
ATOM     27  N   UNL d   1      19.905 -18.943  -1.150  0.00  0.00    -0.285 NA
ATOM     28  C   UNL d   1      19.349 -19.730  -0.187  0.00  0.00     0.015 C 
ATOM     29  H   UNL d   1      19.557 -17.996  -1.202  0.00  0.00     0.128 HD
ATOM     30  C   UNL d   1      18.108 -20.424  -0.518  0.00  0.00     0.024 C 
ATOM     31  C   UNL d   1      20.364 -19.695   0.973  0.00  0.00    -0.025 C 
ATOM     32  C   UNL d   1      17.477 -21.349   0.251  0.00  0.00     0.002 C 
ATOM     33  C   UNL d   1      18.156 -21.546   1.402  0.00  0.00     0.001 C 
ATOM     34  C   UNL d   1      19.409 -20.714   1.699  0.00  0.00     0.010 C 
ENDBRANCH  24  25
ENDBRANCH  21  24
ENDBRANCH   3  20
TORSDOF 7
ENDMDL
MODEL 4
REMARK VINA RESULT:   -30.779      5.383      6.425
REMARK INTER + INTRA:         -34.208
REMARK INTER:                 -32.867
REMARK INTRA:                  -1.340
REMARK CONF_INDEPENDENT:        2.088
REMARK UNBOUND:                -1.340
REMARK  7 active torsions:
REMARK  status: ('A' for Active; 'I' for Inactive)
REMARK    1  A    between atoms: C_6  and  S_7 
REMARK    2  A    between atoms: S_7  and  C_8 
REMARK    3  A    between atoms: C_8  and  C_9 
REMARK    4  A    between atoms: C_12  and  C_13 
REMARK       I    between atoms: C_13  and  N_15 
REMARK    5  A    between atoms: N_15  and  N_16 
REMARK       I    between atoms: N_16  and  C_17 
REMARK    6  A    between atoms: C_17  and  C_19 
REMARK    7  A    between atoms: C_19  and  C_20 
ROOT
ATOM      1  C   UNL d   1      28.300 -16.624  -1.955  0.00  0.00     0.270 C 
ATOM      2  O   UNL d   1      28.022 -15.809  -2.835  0.00  0.00    -0.266 OA
ATOM      3  N   UNL d   1      27.287 -17.274  -1.160  0.00  0.00    -0.263 N 
ATOM      4  H   UNL d   1      27.518 -17.965  -0.455  0.00  0.00     0.190 HD
ENDROOT
BRANCH   1   5
ATOM      5  C   UNL d   1      29.802 -16.971  -1.748  0.00  0.00     0.033 A 
ATOM      6  C   UNL d   1      30.834 -16.409  -2.555  0.00  0.00     0.017 A 
ATOM      7  C   UNL d   1      32.193 -16.825  -2.449  0.00  0.00     0.009 A 
ATOM      8  C   UNL d   1      32.577 -17.737  -1.457  0.00  0.00    -0.048 A 
ATOM      9  C   UNL d   1      31.556 -18.296  -0.679  0.00  0.00     0.009 A 
ATOM     10  C   UNL d   1      30.212 -17.907  -0.801  0.00  0.00     0.017 A 
BRANCH   8  11
ATOM     11  C   UNL d   1      34.039 -18.100  -1.224  0.00  0.00     0.121 C 
BRANCH  11  12
ATOM     12  S   UNL d   1      34.594 -17.883   0.491  0.00  0.00    -0.086 SA
BRANCH  12  13
ATOM     13  C   UNL d   1      33.608 -16.690   1.259  0.00  0.00     0.184 A 
ATOM     14  N   UNL d   1      32.489 -17.092   1.844  0.00  0.00    -0.152 NA
ATOM     15  N   UNL d   1      31.941 -15.976   2.396  0.00  0.00    -0.293 N 
ATOM     16  C   UNL d   1      32.715 -14.806   2.081  0.00  0.00     0.267 A 
ATOM     17  H   UNL d   1      31.016 -15.960   2.804  0.00  0.00     0.184 HD
ATOM     18  N   UNL d   1      33.827 -15.333   1.318  0.00  0.00    -0.346 N 
ATOM     19  C   UNL d   1      35.033 -14.586   1.178  0.00  0.00     0.153 C 
ENDBRANCH  12  13
ENDBRANCH  11  12
ENDBRANCH   8  11
ENDBRANCH   1   5
BRANCH   3  20
ATOM     20  N   UNL d   1      25.733 -17.095  -1.425  0.00  0.00    -0.267 N 
ATOM     21  C   UNL d   1      24.673 -17.687  -0.548  0.00  0.00     0.237 C 
ATOM     22  O   UNL d   1      25.045 -18.262   0.481  0.00  0.00    -0.272 OA
ATOM     23  H   UNL d   1      25.576 -16.476  -2.218  0.00  0.00     0.190 HD
BRANCH  21  24
ATOM     24  C   UNL d   1      22.956 -17.510  -1.039  0.00  0.00     0.121 C 
BRANCH  24  25
ATOM     25  C   UNL d   1      21.426 -18.299  -0.387  0.00  0.00     0.028 C 
ATOM     26  C   UNL d   1      21.233 -19.325  -1.272  0.00  0.00     0.094 C 
ATOM     27  N   UNL d   1      19.904 -19.070  -1.269  0.00  0.00    -0.285 NA
ATOM     28  C   UNL d   1      19.546 -19.661  -0.095  0.00  0.00     0.015 C 
ATOM     29  H   UNL d   1      19.442 -18.199  -1.485  0.00  0.00     0.128 HD
ATOM     30  C   UNL d   1      18.371 -20.526  -0.108  0.00  0.00     0.024 C 
ATOM     31  C   UNL d   1      20.659 -19.261   0.894  0.00  0.00    -0.025 C 
ATOM     32  C   UNL d   1      17.935 -21.303   0.918  0.00  0.00     0.002 C 
ATOM     33  C   UNL d   1      18.744 -21.162   1.991  0.00  0.00     0.001 C 
ATOM     34  C   UNL d   1      19.910 -20.169   1.939  0.00  0.00     0.010 C 
ENDBRANCH  24  25
ENDBRANCH  21  24
ENDBRANCH   3  20
TORSDOF 7
ENDMDL
MODEL 5
REMARK VINA RESULT:   -30.707      6.419      7.725
REMARK INTER + INTRA:         -34.048
REMARK INTER:                 -32.795
REMARK INTRA:                  -1.253
REMARK CONF_INDEPENDENT:        2.088
REMARK UNBOUND:                -1.253
REMARK  7 active torsions:
REMARK  status: ('A' for Active; 'I' for Inactive)
REMARK    1  A    between atoms: C_6  and  S_7 
REMARK    2  A    between atoms: S_7  and  C_8 
REMARK    3  A    between atoms: C_8  and  C_9 
REMARK    4  A    between atoms: C_12  and  C_13 
REMARK       I    between atoms: C_13  and  N_15 
REMARK    5  A    between atoms: N_15  and  N_16 
REMARK       I    between atoms: N_16  and  C_17 
REMARK    6  A    between atoms: C_17  and  C_19 
REMARK    7  A    between atoms: C_19  and  C_20 
ROOT
ATOM      1  C   UNL d   1      28.458 -17.069  -1.459  0.00  0.00     0.270 C 
ATOM      2  O   UNL d   1      28.269 -16.307  -2.407  0.00  0.00    -0.266 OA
ATOM      3  N   UNL d   1      27.373 -17.593  -0.666  0.00  0.00    -0.263 N 
ATOM      4  H   UNL d   1      27.530 -18.242   0.098  0.00  0.00     0.190 HD
ENDROOT
BRANCH   1   5
ATOM      5  C   UNL d   1      29.924 -17.491  -1.159  0.00  0.00     0.033 A 
ATOM      6  C   UNL d   1      30.297 -18.847  -0.927  0.00  0.00     0.017 A 
ATOM      7  C   UNL d   1      31.614 -19.215  -0.526  0.00  0.00     0.009 A 
ATOM      8  C   UNL d   1      32.626 -18.248  -0.451  0.00  0.00    -0.048 A 
ATOM      9  C   UNL d   1      32.249 -16.918  -0.665  0.00  0.00     0.009 A 
ATOM     10  C   UNL d   1      30.944 -16.550  -1.033  0.00  0.00     0.017 A 
BRANCH   8  11
ATOM     11  C   UNL d   1      34.074 -18.625  -0.161  0.00  0.00     0.121 C 
BRANCH  11  12
ATOM     12  S   UNL d   1      34.296 -20.330   0.422  0.00  0.00    -0.086 SA
BRANCH  12  13
ATOM     13  C   UNL d   1      33.353 -20.567   1.850  0.00  0.00     0.184 A 
ATOM     14  N   UNL d   1      32.653 -21.688   1.954  0.00  0.00    -0.152 NA
ATOM     15  N   UNL d   1      32.051 -21.634   3.172  0.00  0.00    -0.293 N 
ATOM     16  C   UNL d   1      32.327 -20.389   3.835  0.00  0.00     0.267 A 
ATOM     17  H   UNL d   1      31.354 -22.302   3.473  0.00  0.00     0.184 HD
ATOM     18  N   UNL d   1      33.208 -19.703   2.912  0.00  0.00    -0.346 N 
ATOM     19  C   UNL d   1      34.047 -18.640   3.357  0.00  0.00     0.153 C 
ENDBRANCH  12  13
ENDBRANCH  11  12
ENDBRANCH   8  11
ENDBRANCH   1   5
BRANCH   3  20
ATOM     20  N   UNL d   1      25.846 -17.340  -1.013  0.00  0.00    -0.267 N 
ATOM     21  C   UNL d   1      24.713 -17.920  -0.224  0.00  0.00     0.237 C 
ATOM     22  O   UNL d   1      25.000 -18.550   0.800  0.00  0.00    -0.272 OA
ATOM     23  H   UNL d   1      25.762 -16.685  -1.788  0.00  0.00     0.190 HD
BRANCH  21  24
ATOM     24  C   UNL d   1      23.037 -17.653  -0.807  0.00  0.00     0.121 C 
BRANCH  24  25
ATOM     25  C   UNL d   1      21.440 -18.401  -0.277  0.00  0.00     0.028 C 
ATOM     26  C   UNL d   1      21.215 -19.324  -1.262  0.00  0.00     0.094 C 
ATOM     27  N   UNL d   1      19.905 -18.986  -1.270  0.00  0.00    -0.285 NA
ATOM     28  C   UNL d   1      19.472 -19.662  -0.169  0.00  0.00     0.015 C 
ATOM     29  H   UNL d   1      19.504 -18.071  -1.413  0.00  0.00     0.128 HD
ATOM     30  C   UNL d   1      18.247 -20.445  -0.298  0.00  0.00     0.024 C 
ATOM     31  C   UNL d   1      20.574 -19.430   0.883  0.00  0.00    -0.025 C 
ATOM     32  C   UNL d   1      17.731 -21.286   0.635  0.00  0.00     0.002 C 
ATOM     33  C   UNL d   1      18.510 -21.300   1.738  0.00  0.00     0.001 C 
ATOM     34  C   UNL d   1      19.737 -20.383   1.815  0.00  0.00     0.010 C 
ENDBRANCH  24  25
ENDBRANCH  21  24
ENDBRANCH   3  20
TORSDOF 7
ENDMDL
MODEL 6
REMARK VINA RESULT:   -30.667      5.651      6.746
REMARK INTER + INTRA:         -34.248
REMARK INTER:                 -32.755
REMARK INTRA:                  -1.492
REMARK CONF_INDEPENDENT:        2.088
REMARK UNBOUND:                -1.492
REMARK  7 active torsions:
REMARK  status: ('A' for Active; 'I' for Inactive)
REMARK    1  A    between atoms: C_6  and  S_7 
REMARK    2  A    between atoms: S_7  and  C_8 
REMARK    3  A    between atoms: C_8  and  C_9 
REMARK    4  A    between atoms: C_12  and  C_13 
REMARK       I    between atoms: C_13  and  N_15 
REMARK    5  A    between atoms: N_15  and  N_16 
REMARK       I    between atoms: N_16  and  C_17 
REMARK    6  A    between atoms: C_17  and  C_19 
REMARK    7  A    between atoms: C_19  and  C_20 
ROOT
ATOM      1  C   UNL d   1      28.328 -16.649  -1.739  0.00  0.00     0.270 C 
ATOM      2  O   UNL d   1      28.075 -16.107  -2.815  0.00  0.00    -0.266 OA
ATOM      3  N   UNL d   1      27.294 -17.037  -0.811  0.00  0.00    -0.263 N 
ATOM      4  H   UNL d   1      27.504 -17.507   0.063  0.00  0.00     0.190 HD
ENDROOT
BRANCH   1   5
ATOM      5  C   UNL d   1      29.821 -16.945  -1.419  0.00  0.00     0.033 A 
ATOM      6  C   UNL d   1      30.370 -16.776  -0.114  0.00  0.00     0.017 A 
ATOM      7  C   UNL d   1      31.764 -16.923   0.148  0.00  0.00     0.009 A 
ATOM      8  C   UNL d   1      32.632 -17.352  -0.865  0.00  0.00    -0.048 A 
ATOM      9  C   UNL d   1      32.088 -17.502  -2.146  0.00  0.00     0.009 A 
ATOM     10  C   UNL d   1      30.719 -17.329  -2.411  0.00  0.00     0.017 A 
BRANCH   8  11
ATOM     11  C   UNL d   1      34.100 -17.654  -0.588  0.00  0.00     0.121 C 
BRANCH  11  12
ATOM     12  S   UNL d   1      34.439 -19.391  -0.185  0.00  0.00    -0.086 SA
BRANCH  12  13
ATOM     13  C   UNL d   1      32.950 -20.268  -0.163  0.00  0.00     0.184 A 
ATOM     14  N   UNL d   1      32.126 -20.068   0.856  0.00  0.00    -0.152 NA
ATOM     15  N   UNL d   1      31.033 -20.837   0.602  0.00  0.00    -0.293 N 
ATOM     16  C   UNL d   1      31.209 -21.611  -0.597  0.00  0.00     0.267 A 
ATOM     17  H   UNL d   1      30.290 -20.978   1.273  0.00  0.00     0.184 HD
ATOM     18  N   UNL d   1      32.510 -21.196  -1.079  0.00  0.00    -0.346 N 
ATOM     19  C   UNL d   1      32.879 -21.393  -2.441  0.00  0.00     0.153 C 
ENDBRANCH  12  13
ENDBRANCH  11  12
ENDBRANCH   8  11
ENDBRANCH   1   5
BRANCH   3  20
ATOM     20  N   UNL d   1      25.747 -16.918  -1.141  0.00  0.00    -0.267 N 
ATOM     21  C   UNL d   1      24.688 -17.696  -0.422  0.00  0.00     0.237 C 
ATOM     22  O   UNL d   1      25.046 -18.392   0.534  0.00  0.00    -0.272 OA
ATOM     23  H   UNL d   1      25.588 -16.200  -1.845  0.00  0.00     0.190 HD
BRANCH  21  24
ATOM     24  C   UNL d   1      22.989 -17.554  -0.985  0.00  0.00     0.121 C 
BRANCH  24  25
ATOM     25  C   UNL d   1      21.441 -18.329  -0.359  0.00  0.00     0.028 C 
ATOM     26  C   UNL d   1      21.228 -19.324  -1.274  0.00  0.00     0.094 C 
ATOM     27  N   UNL d   1      19.905 -19.040  -1.264  0.00  0.00    -0.285 NA
ATOM     28  C   UNL d   1      19.531 -19.657  -0.109  0.00  0.00     0.015 C 
ATOM     29  H   UNL d   1      19.462 -18.152  -1.455  0.00  0.00     0.128 HD
ATOM     30  C   UNL d   1      18.337 -20.496  -0.149  0.00  0.00     0.024 C 
ATOM     31  C   UNL d   1      20.651 -19.311   0.892  0.00  0.00    -0.025 C 
ATOM     32  C   UNL d   1      17.883 -21.292   0.853  0.00  0.00     0.002 C 
ATOM     33  C   UNL d   1      18.693 -21.202   1.930  0.00  0.00     0.001 C 
ATOM     34  C   UNL d   1      19.881 -20.234   1.910  0.00  0.00     0.010 C 
ENDBRANCH  24  25
ENDBRANCH  21  24
ENDBRANCH   3  20
TORSDOF 7
ENDMDL
MODEL 7
REMARK VINA RESULT:   -30.478      5.743      6.969
REMARK INTER + INTRA:         -33.980
REMARK INTER:                 -32.566
REMARK INTRA:                  -1.414
REMARK CONF_INDEPENDENT:        2.088
REMARK UNBOUND:                -1.414
REMARK  7 active torsions:
REMARK  status: ('A' for Active; 'I' for Inactive)
REMARK    1  A    between atoms: C_6  and  S_7 
REMARK    2  A    between atoms: S_7  and  C_8 
REMARK    3  A    between atoms: C_8  and  C_9 
REMARK    4  A    between atoms: C_12  and  C_13 
REMARK       I    between atoms: C_13  and  N_15 
REMARK    5  A    between atoms: N_15  and  N_16 
REMARK       I    between atoms: N_16  and  C_17 
REMARK    6  A    between atoms: C_17  and  C_19 
REMARK    7  A    between atoms: C_19  and  C_20 
ROOT
ATOM      1  C   UNL d   1      28.291 -16.637  -1.855  0.00  0.00     0.270 C 
ATOM      2  O   UNL d   1      28.005 -15.886  -2.787  0.00  0.00    -0.266 OA
ATOM      3  N   UNL d   1      27.291 -17.184  -0.972  0.00  0.00    -0.263 N 
ATOM      4  H   UNL d   1      27.528 -17.824  -0.222  0.00  0.00     0.190 HD
ENDROOT
BRANCH   1   5
ATOM      5  C   UNL d   1      29.789 -17.017  -1.676  0.00  0.00     0.033 A 
ATOM      6  C   UNL d   1      30.546 -17.643  -2.709  0.00  0.00     0.017 A 
ATOM      7  C   UNL d   1      31.878 -18.107  -2.500  0.00  0.00     0.009 A 
ATOM      8  C   UNL d   1      32.529 -17.861  -1.283  0.00  0.00    -0.048 A 
ATOM      9  C   UNL d   1      31.774 -17.260  -0.270  0.00  0.00     0.009 A 
ATOM     10  C   UNL d   1      30.451 -16.827  -0.466  0.00  0.00     0.017 A 
BRANCH   8  11
ATOM     11  C   UNL d   1      33.996 -18.219  -1.073  0.00  0.00     0.121 C 
BRANCH  11  12
ATOM     12  S   UNL d   1      34.259 -19.741  -0.119  0.00  0.00    -0.086 SA
BRANCH  12  13
ATOM     13  C   UNL d   1      32.767 -20.605  -0.007  0.00  0.00     0.184 A 
ATOM     14  N   UNL d   1      32.298 -21.180  -1.105  0.00  0.00    -0.152 NA
ATOM     15  N   UNL d   1      31.155 -21.815  -0.728  0.00  0.00    -0.293 N 
ATOM     16  C   UNL d   1      30.854 -21.567   0.656  0.00  0.00     0.267 A 
ATOM     17  H   UNL d   1      30.517 -22.239  -1.387  0.00  0.00     0.184 HD
ATOM     18  N   UNL d   1      31.964 -20.751   1.102  0.00  0.00    -0.346 N 
ATOM     19  C   UNL d   1      32.278 -20.642   2.488  0.00  0.00     0.153 C 
ENDBRANCH  12  13
ENDBRANCH  11  12
ENDBRANCH   8  11
ENDBRANCH   1   5
BRANCH   3  20
ATOM     20  N   UNL d   1      25.734 -16.974  -1.193  0.00  0.00    -0.267 N 
ATOM     21  C   UNL d   1      24.687 -17.848  -0.574  0.00  0.00     0.237 C 
ATOM     22  O   UNL d   1      25.070 -18.715   0.220  0.00  0.00    -0.272 OA
ATOM     23  H   UNL d   1      25.563 -16.137  -1.745  0.00  0.00     0.190 HD
BRANCH  21  24
ATOM     24  C   UNL d   1      22.969 -17.571  -1.012  0.00  0.00     0.121 C 
BRANCH  24  25
ATOM     25  C   UNL d   1      21.421 -18.336  -0.373  0.00  0.00     0.028 C 
ATOM     26  C   UNL d   1      21.190 -19.324  -1.292  0.00  0.00     0.094 C 
ATOM     27  N   UNL d   1      19.869 -19.029  -1.266  0.00  0.00    -0.285 NA
ATOM     28  C   UNL d   1      19.503 -19.650  -0.111  0.00  0.00     0.015 C 
ATOM     29  H   UNL d   1      19.432 -18.137  -1.447  0.00  0.00     0.128 HD
ATOM     30  C   UNL d   1      18.302 -20.478  -0.143  0.00  0.00     0.024 C 
ATOM     31  C   UNL d   1      20.637 -19.319   0.881  0.00  0.00    -0.025 C 
ATOM     32  C   UNL d   1      17.851 -21.277   0.859  0.00  0.00     0.002 C 
ATOM     33  C   UNL d   1      18.673 -21.199   1.928  0.00  0.00     0.001 C 
ATOM     34  C   UNL d   1      19.870 -20.241   1.901  0.00  0.00     0.010 C 
ENDBRANCH  24  25
ENDBRANCH  21  24
ENDBRANCH   3  20
TORSDOF 7
ENDMDL
MODEL 8
REMARK VINA RESULT:   -30.426      5.086      5.850
REMARK INTER + INTRA:         -33.971
REMARK INTER:                 -32.514
REMARK INTRA:                  -1.457
REMARK CONF_INDEPENDENT:        2.088
REMARK UNBOUND:                -1.457
REMARK  7 active torsions:
REMARK  status: ('A' for Active; 'I' for Inactive)
REMARK    1  A    between atoms: C_6  and  S_7 
REMARK    2  A    between atoms: S_7  and  C_8 
REMARK    3  A    between atoms: C_8  and  C_9 
REMARK    4  A    between atoms: C_12  and  C_13 
REMARK       I    between atoms: C_13  and  N_15 
REMARK    5  A    between atoms: N_15  and  N_16 
REMARK       I    between atoms: N_16  and  C_17 
REMARK    6  A    between atoms: C_17  and  C_19 
REMARK    7  A    between atoms: C_19  and  C_20 
ROOT
ATOM      1  C   UNL d   1      27.453 -14.518   0.068  0.00  0.00     0.270 C 
ATOM      2  O   UNL d   1      26.924 -13.582  -0.533  0.00  0.00    -0.266 OA
ATOM      3  N   UNL d   1      26.774 -15.770   0.291  0.00  0.00    -0.263 N 
ATOM      4  H   UNL d   1      27.221 -16.548   0.764  0.00  0.00     0.190 HD
ENDROOT
BRANCH   1   5
ATOM      5  C   UNL d   1      28.916 -14.321   0.556  0.00  0.00     0.033 A 
ATOM      6  C   UNL d   1      29.279 -14.400   1.933  0.00  0.00     0.017 A 
ATOM      7  C   UNL d   1      30.594 -14.092   2.391  0.00  0.00     0.009 A 
ATOM      8  C   UNL d   1      31.612 -13.802   1.472  0.00  0.00    -0.048 A 
ATOM      9  C   UNL d   1      31.244 -13.711   0.125  0.00  0.00     0.009 A 
ATOM     10  C   UNL d   1      29.942 -13.987  -0.325  0.00  0.00     0.017 A 
BRANCH   8  11
ATOM     11  C   UNL d   1      33.057 -13.605   1.914  0.00  0.00     0.121 C 
BRANCH  11  12
ATOM     12  S   UNL d   1      34.080 -15.101   1.800  0.00  0.00    -0.086 SA
BRANCH  12  13
ATOM     13  C   UNL d   1      33.239 -16.293   0.875  0.00  0.00     0.184 A 
ATOM     14  N   UNL d   1      32.138 -16.820   1.393  0.00  0.00    -0.152 NA
ATOM     15  N   UNL d   1      31.665 -17.681   0.453  0.00  0.00    -0.293 N 
ATOM     16  C   UNL d   1      32.548 -17.752  -0.679  0.00  0.00     0.267 A 
ATOM     17  H   UNL d   1      30.899 -18.317   0.625  0.00  0.00     0.184 HD
ATOM     18  N   UNL d   1      33.591 -16.802  -0.354  0.00  0.00    -0.346 N 
ATOM     19  C   UNL d   1      34.423 -16.255  -1.375  0.00  0.00     0.153 C 
ENDBRANCH  12  13
ENDBRANCH  11  12
ENDBRANCH   8  11
ENDBRANCH   1   5
BRANCH   3  20
ATOM     20  N   UNL d   1      25.347 -16.102  -0.319  0.00  0.00    -0.267 N 
ATOM     21  C   UNL d   1      24.610 -17.377  -0.049  0.00  0.00     0.237 C 
ATOM     22  O   UNL d   1      25.112 -18.160   0.766  0.00  0.00    -0.272 OA
ATOM     23  H   UNL d   1      24.993 -15.307  -0.847  0.00  0.00     0.190 HD
BRANCH  21  24
ATOM     24  C   UNL d   1      23.062 -17.671  -0.907  0.00  0.00     0.121 C 
BRANCH  24  25
ATOM     25  C   UNL d   1      21.483 -18.419  -0.327  0.00  0.00     0.028 C 
ATOM     26  C   UNL d   1      21.212 -19.323  -1.319  0.00  0.00     0.094 C 
ATOM     27  N   UNL d   1      19.905 -18.977  -1.268  0.00  0.00    -0.285 NA
ATOM     28  C   UNL d   1      19.512 -19.670  -0.164  0.00  0.00     0.015 C 
ATOM     29  H   UNL d   1      19.505 -18.056  -1.379  0.00  0.00     0.128 HD
ATOM     30  C   UNL d   1      18.278 -20.443  -0.258  0.00  0.00     0.024 C 
ATOM     31  C   UNL d   1      20.656 -19.464   0.848  0.00  0.00    -0.025 C 
ATOM     32  C   UNL d   1      17.793 -21.298   0.680  0.00  0.00     0.002 C 
ATOM     33  C   UNL d   1      18.616 -21.337   1.751  0.00  0.00     0.001 C 
ATOM     34  C   UNL d   1      19.851 -20.429   1.795  0.00  0.00     0.010 C 
ENDBRANCH  24  25
ENDBRANCH  21  24
ENDBRANCH   3  20
TORSDOF 7
ENDMDL
MODEL 9
REMARK VINA RESULT:   -30.277      4.981      5.791
REMARK INTER + INTRA:         -33.824
REMARK INTER:                 -32.365
REMARK INTRA:                  -1.460
REMARK CONF_INDEPENDENT:        2.088
REMARK UNBOUND:                -1.460
REMARK  7 active torsions:
REMARK  status: ('A' for Active; 'I' for Inactive)
REMARK    1  A    between atoms: C_6  and  S_7 
REMARK    2  A    between atoms: S_7  and  C_8 
REMARK    3  A    between atoms: C_8  and  C_9 
REMARK    4  A    between atoms: C_12  and  C_13 
REMARK       I    between atoms: C_13  and  N_15 
REMARK    5  A    between atoms: N_15  and  N_16 
REMARK       I    between atoms: N_16  and  C_17 
REMARK    6  A    between atoms: C_17  and  C_19 
REMARK    7  A    between atoms: C_19  and  C_20 
ROOT
ATOM      1  C   UNL d   1      28.198 -16.522  -2.080  0.00  0.00     0.270 C 
ATOM      2  O   UNL d   1      27.860 -15.668  -2.900  0.00  0.00    -0.266 OA
ATOM      3  N   UNL d   1      27.257 -17.130  -1.172  0.00  0.00    -0.263 N 
ATOM      4  H   UNL d   1      27.533 -17.852  -0.515  0.00  0.00     0.190 HD
ENDROOT
BRANCH   1   5
ATOM      5  C   UNL d   1      29.689 -16.963  -2.077  0.00  0.00     0.033 A 
ATOM      6  C   UNL d   1      30.273 -17.671  -0.986  0.00  0.00     0.017 A 
ATOM      7  C   UNL d   1      31.668 -17.960  -0.928  0.00  0.00     0.009 A 
ATOM      8  C   UNL d   1      32.500 -17.646  -2.012  0.00  0.00    -0.048 A 
ATOM      9  C   UNL d   1      31.922 -16.938  -3.071  0.00  0.00     0.009 A 
ATOM     10  C   UNL d   1      30.552 -16.628  -3.116  0.00  0.00     0.017 A 
BRANCH   8  11
ATOM     11  C   UNL d   1      33.966 -18.064  -2.044  0.00  0.00     0.121 C 
BRANCH  11  12
ATOM     12  S   UNL d   1      34.348 -19.336  -3.282  0.00  0.00    -0.086 SA
BRANCH  12  13
ATOM     13  C   UNL d   1      32.874 -20.028  -3.857  0.00  0.00     0.184 A 
ATOM     14  N   UNL d   1      32.156 -20.754  -3.012  0.00  0.00    -0.152 NA
ATOM     15  N   UNL d   1      31.047 -21.133  -3.702  0.00  0.00    -0.293 N 
ATOM     16  C   UNL d   1      31.104 -20.684  -5.067  0.00  0.00     0.267 A 
ATOM     17  H   UNL d   1      30.376 -21.800  -3.345  0.00  0.00     0.184 HD
ATOM     18  N   UNL d   1      32.348 -19.944  -5.127  0.00  0.00    -0.346 N 
ATOM     19  C   UNL d   1      32.578 -18.989  -6.159  0.00  0.00     0.153 C 
ENDBRANCH  12  13
ENDBRANCH  11  12
ENDBRANCH   8  11
ENDBRANCH   1   5
BRANCH   3  20
ATOM     20  N   UNL d   1      25.696 -16.852  -1.229  0.00  0.00    -0.267 N 
ATOM     21  C   UNL d   1      24.666 -17.823  -0.739  0.00  0.00     0.237 C 
ATOM     22  O   UNL d   1      25.074 -18.848  -0.181  0.00  0.00    -0.272 OA
ATOM     23  H   UNL d   1      25.515 -15.912  -1.573  0.00  0.00     0.190 HD
BRANCH  21  24
ATOM     24  C   UNL d   1      22.932 -17.429  -0.981  0.00  0.00     0.121 C 
BRANCH  24  25
ATOM     25  C   UNL d   1      21.408 -18.252  -0.357  0.00  0.00     0.028 C 
ATOM     26  C   UNL d   1      21.237 -19.263  -1.264  0.00  0.00     0.094 C 
ATOM     27  N   UNL d   1      19.904 -19.027  -1.265  0.00  0.00    -0.285 NA
ATOM     28  C   UNL d   1      19.545 -19.646  -0.106  0.00  0.00     0.015 C 
ATOM     29  H   UNL d   1      19.431 -18.157  -1.467  0.00  0.00     0.128 HD
ATOM     30  C   UNL d   1      18.382 -20.527  -0.146  0.00  0.00     0.024 C 
ATOM     31  C   UNL d   1      20.645 -19.251   0.899  0.00  0.00    -0.025 C 
ATOM     32  C   UNL d   1      17.950 -21.330   0.860  0.00  0.00     0.002 C 
ATOM     33  C   UNL d   1      18.748 -21.200   1.942  0.00  0.00     0.001 C 
ATOM     34  C   UNL d   1      19.902 -20.190   1.920  0.00  0.00     0.010 C 
ENDBRANCH  24  25
ENDBRANCH  21  24
ENDBRANCH   3  20
TORSDOF 7
ENDMDL
