MODEL 1
REMARK VINA RESULT:    -8.817      0.000      0.000
REMARK INTER + INTRA:         -10.535
REMARK INTER:                 -10.010
REMARK INTRA:                  -0.525
REMARK CONF_INDEPENDENT:        1.193
REMARK UNBOUND:                -0.525
REMARK  4 active torsions:
REMARK  status: ('A' for Active; 'I' for Inactive)
REMARK    1  A    between atoms: C_2  and  C_3 
REMARK       I    between atoms: C_2  and  N_19 
REMARK    2  A    between atoms: C_3  and  S_4 
REMARK    3  A    between atoms: S_4  and  C_5 
REMARK    4  A    between atoms: N_19  and  C_20 
ROOT
ATOM      1  C   UNL d   1      25.561 -15.600  -0.992  0.00  0.00     0.211 A 
ATOM      2  N   UNL d   1      26.026 -16.130   0.119  0.00  0.00    -0.107 NA
ATOM      3  N   UNL d   1      27.354 -15.757   0.246  0.00  0.00     0.045 NA
ATOM      4  C   UNL d   1      27.654 -14.994  -0.780  0.00  0.00     0.734 A 
ATOM      5  N   UNL d   1      28.848 -14.391  -1.084  0.00  0.00    -0.152 N 
ATOM      6  C   UNL d   1      28.999 -13.580  -2.196  0.00  0.00     0.268 A 
ATOM      7  O   UNL d   1      30.033 -13.037  -2.459  0.00  0.00    -0.267 OA
ATOM      8  C   UNL d   1      27.772 -13.410  -3.064  0.00  0.00     0.034 A 
ATOM      9  C   UNL d   1      26.613 -14.029  -2.744  0.00  0.00     0.048 A 
ATOM     10  N   UNL d   1      26.549 -14.833  -1.596  0.00  0.00    -0.122 N 
ATOM     11  C   UNL d   1      25.382 -13.849  -3.594  0.00  0.00     0.059 C 
ATOM     12  C   UNL d   1      25.478 -12.679  -4.559  0.00  0.00     0.006 C 
ATOM     13  C   UNL d   1      26.807 -12.737  -5.288  0.00  0.00     0.005 C 
ATOM     14  C   UNL d   1      27.944 -12.541  -4.284  0.00  0.00     0.046 C 
ATOM     15  H   UNL d   1      29.653 -14.523  -0.488  0.00  0.00     0.188 HD
ENDROOT
BRANCH   1  16
ATOM     16  S   UNL d   1      24.011 -15.908  -1.717  0.00  0.00    -0.080 SA
BRANCH  16  17
ATOM     17  C   UNL d   1      23.067 -16.882  -0.527  0.00  0.00     0.185 C 
BRANCH  17  18
ATOM     18  C   UNL d   1      23.653 -18.303  -0.371  0.00  0.00     0.231 C 
ATOM     19  O   UNL d   1      24.856 -18.565  -0.447  0.00  0.00    -0.272 OA
ATOM     20  N   UNL d   1      22.793 -19.337  -0.051  0.00  0.00    -0.327 N 
ATOM     21  H   UNL d   1      23.258 -20.186   0.253  0.00  0.00     0.169 HD
BRANCH  20  22
ATOM     22  C   UNL d   1      21.395 -19.326  -0.071  0.00  0.00     0.033 C 
ATOM     23  C   UNL d   1      20.699 -18.960  -1.208  0.00  0.00     0.028 C 
ATOM     24  C   UNL d   1      19.343 -19.325  -1.265  0.00  0.00     0.020 C 
ATOM     25  C   UNL d   1      18.710 -19.803  -0.096  0.00  0.00     0.158 C 
ATOM     26  C   UNL d   1      19.247 -19.436   1.096  0.00  0.00     0.160 C 
ATOM     27  O   UNL d   1      18.672 -21.274   0.234  0.00  0.00    -0.345 OA
ATOM     28  C   UNL d   1      20.654 -19.574   1.091  0.00  0.00     0.047 C 
ATOM     29  O   UNL d   1      18.405 -19.977   2.095  0.00  0.00    -0.345 OA
ATOM     30  C   UNL d   1      18.672 -21.295   1.713  0.00  0.00     0.341 C 
ENDBRANCH  20  22
ENDBRANCH  17  18
ENDBRANCH  16  17
ENDBRANCH   1  16
TORSDOF 4
ENDMDL
MODEL 2
REMARK VINA RESULT:    -8.771      3.288      5.271
REMARK INTER + INTRA:         -10.352
REMARK INTER:                  -9.965
REMARK INTRA:                  -0.387
REMARK CONF_INDEPENDENT:        1.193
REMARK UNBOUND:                -0.387
REMARK  4 active torsions:
REMARK  status: ('A' for Active; 'I' for Inactive)
REMARK    1  A    between atoms: C_2  and  C_3 
REMARK       I    between atoms: C_2  and  N_19 
REMARK    2  A    between atoms: C_3  and  S_4 
REMARK    3  A    between atoms: S_4  and  C_5 
REMARK    4  A    between atoms: N_19  and  C_20 
ROOT
ATOM      1  C   UNL d   1      26.803 -14.069  -5.394  0.00  0.00     0.211 A 
ATOM      2  N   UNL d   1      27.398 -15.243  -5.395  0.00  0.00    -0.107 NA
ATOM      3  N   UNL d   1      28.424 -15.201  -6.326  0.00  0.00     0.045 NA
ATOM      4  C   UNL d   1      28.437 -13.997  -6.850  0.00  0.00     0.734 A 
ATOM      5  N   UNL d   1      29.270 -13.486  -7.811  0.00  0.00    -0.152 N 
ATOM      6  C   UNL d   1      29.180 -12.172  -8.240  0.00  0.00     0.268 A 
ATOM      7  O   UNL d   1      29.914 -11.714  -9.067  0.00  0.00    -0.267 OA
ATOM      8  C   UNL d   1      28.095 -11.338  -7.594  0.00  0.00     0.034 A 
ATOM      9  C   UNL d   1      27.281 -11.875  -6.659  0.00  0.00     0.048 A 
ATOM     10  N   UNL d   1      27.444 -13.217  -6.282  0.00  0.00    -0.122 N 
ATOM     11  C   UNL d   1      26.211 -11.044  -5.998  0.00  0.00     0.059 C 
ATOM     12  C   UNL d   1      26.389  -9.549  -6.207  0.00  0.00     0.006 C 
ATOM     13  C   UNL d   1      26.655  -9.276  -7.676  0.00  0.00     0.005 C 
ATOM     14  C   UNL d   1      27.987  -9.913  -8.076  0.00  0.00     0.046 C 
ATOM     15  H   UNL d   1      29.985 -14.066  -8.228  0.00  0.00     0.188 HD
ENDROOT
BRANCH   1  16
ATOM     16  S   UNL d   1      25.343 -13.650  -4.549  0.00  0.00    -0.080 SA
BRANCH  16  17
ATOM     17  C   UNL d   1      25.155 -14.847  -3.212  0.00  0.00     0.185 C 
BRANCH  17  18
ATOM     18  C   UNL d   1      25.759 -14.316  -1.892  0.00  0.00     0.231 C 
ATOM     19  O   UNL d   1      26.290 -13.210  -1.773  0.00  0.00    -0.272 OA
ATOM     20  N   UNL d   1      25.630 -15.090  -0.753  0.00  0.00    -0.327 N 
ATOM     21  H   UNL d   1      25.842 -14.599   0.109  0.00  0.00     0.169 HD
BRANCH  20  22
ATOM     22  C   UNL d   1      25.222 -16.425  -0.666  0.00  0.00     0.033 C 
ATOM     23  C   UNL d   1      26.008 -17.373  -0.039  0.00  0.00     0.028 C 
ATOM     24  C   UNL d   1      25.377 -18.575   0.328  0.00  0.00     0.020 C 
ATOM     25  C   UNL d   1      24.086 -18.854  -0.171  0.00  0.00     0.158 C 
ATOM     26  C   UNL d   1      23.719 -18.240  -1.325  0.00  0.00     0.160 C 
ATOM     27  O   UNL d   1      22.844 -18.447   0.583  0.00  0.00    -0.345 OA
ATOM     28  C   UNL d   1      24.060 -16.867  -1.310  0.00  0.00     0.047 C 
ATOM     29  O   UNL d   1      22.432 -18.730  -1.645  0.00  0.00    -0.345 OA
ATOM     30  C   UNL d   1      21.858 -18.193  -0.489  0.00  0.00     0.341 C 
ENDBRANCH  20  22
ENDBRANCH  17  18
ENDBRANCH  16  17
ENDBRANCH   1  16
TORSDOF 4
ENDMDL
MODEL 3
REMARK VINA RESULT:    -8.549      3.815      8.360
REMARK INTER + INTRA:         -11.147
REMARK INTER:                  -9.743
REMARK INTRA:                  -1.404
REMARK CONF_INDEPENDENT:        1.193
REMARK UNBOUND:                -1.404
REMARK  4 active torsions:
REMARK  status: ('A' for Active; 'I' for Inactive)
REMARK    1  A    between atoms: C_2  and  C_3 
REMARK       I    between atoms: C_2  and  N_19 
REMARK    2  A    between atoms: C_3  and  S_4 
REMARK    3  A    between atoms: S_4  and  C_5 
REMARK    4  A    between atoms: N_19  and  C_20 
ROOT
ATOM      1  C   UNL d   1      27.482 -14.359  -1.206  0.00  0.00     0.211 A 
ATOM      2  N   UNL d   1      28.769 -14.136  -1.047  0.00  0.00    -0.107 NA
ATOM      3  N   UNL d   1      29.329 -15.262  -0.465  0.00  0.00     0.045 NA
ATOM      4  C   UNL d   1      28.371 -16.146  -0.305  0.00  0.00     0.734 A 
ATOM      5  N   UNL d   1      28.444 -17.406   0.230  0.00  0.00    -0.152 N 
ATOM      6  C   UNL d   1      27.341 -18.241   0.299  0.00  0.00     0.268 A 
ATOM      7  O   UNL d   1      27.401 -19.348   0.750  0.00  0.00    -0.267 OA
ATOM      8  C   UNL d   1      26.046 -17.672  -0.238  0.00  0.00     0.034 A 
ATOM      9  C   UNL d   1      26.004 -16.420  -0.747  0.00  0.00     0.048 A 
ATOM     10  N   UNL d   1      27.172 -15.644  -0.779  0.00  0.00    -0.122 N 
ATOM     11  C   UNL d   1      24.722 -15.855  -1.301  0.00  0.00     0.059 C 
ATOM     12  C   UNL d   1      23.655 -16.908  -1.554  0.00  0.00     0.006 C 
ATOM     13  C   UNL d   1      23.535 -17.805  -0.336  0.00  0.00     0.005 C 
ATOM     14  C   UNL d   1      24.843 -18.575  -0.145  0.00  0.00     0.046 C 
ATOM     15  H   UNL d   1      29.322 -17.761   0.584  0.00  0.00     0.188 HD
ENDROOT
BRANCH   1  16
ATOM     16  S   UNL d   1      26.286 -13.205  -1.718  0.00  0.00    -0.080 SA
BRANCH  16  17
ATOM     17  C   UNL d   1      26.424 -13.078  -3.512  0.00  0.00     0.185 C 
BRANCH  17  18
ATOM     18  C   UNL d   1      25.674 -14.229  -4.219  0.00  0.00     0.231 C 
ATOM     19  O   UNL d   1      24.446 -14.302  -4.303  0.00  0.00    -0.272 OA
ATOM     20  N   UNL d   1      26.418 -15.200  -4.864  0.00  0.00    -0.327 N 
ATOM     21  H   UNL d   1      25.879 -15.792  -5.486  0.00  0.00     0.169 HD
BRANCH  20  22
ATOM     22  C   UNL d   1      27.796 -15.422  -4.775  0.00  0.00     0.033 C 
ATOM     23  C   UNL d   1      28.363 -15.950  -3.630  0.00  0.00     0.028 C 
ATOM     24  C   UNL d   1      29.659 -16.479  -3.752  0.00  0.00     0.020 C 
ATOM     25  C   UNL d   1      30.397 -16.227  -4.929  0.00  0.00     0.158 C 
ATOM     26  C   UNL d   1      30.062 -15.125  -5.649  0.00  0.00     0.160 C 
ATOM     27  O   UNL d   1      30.343 -17.165  -6.110  0.00  0.00    -0.345 OA
ATOM     28  C   UNL d   1      28.661 -15.013  -5.798  0.00  0.00     0.047 C 
ATOM     29  O   UNL d   1      30.978 -15.058  -6.724  0.00  0.00    -0.345 OA
ATOM     30  C   UNL d   1      30.540 -16.269  -7.270  0.00  0.00     0.341 C 
ENDBRANCH  20  22
ENDBRANCH  17  18
ENDBRANCH  16  17
ENDBRANCH   1  16
TORSDOF 4
ENDMDL
MODEL 4
REMARK VINA RESULT:    -8.473      3.587      8.550
REMARK INTER + INTRA:         -10.786
REMARK INTER:                  -9.666
REMARK INTRA:                  -1.120
REMARK CONF_INDEPENDENT:        1.193
REMARK UNBOUND:                -1.120
REMARK  4 active torsions:
REMARK  status: ('A' for Active; 'I' for Inactive)
REMARK    1  A    between atoms: C_2  and  C_3 
REMARK       I    between atoms: C_2  and  N_19 
REMARK    2  A    between atoms: C_3  and  S_4 
REMARK    3  A    between atoms: S_4  and  C_5 
REMARK    4  A    between atoms: N_19  and  C_20 
ROOT
ATOM      1  C   UNL d   1      26.964 -14.773  -1.921  0.00  0.00     0.211 A 
ATOM      2  N   UNL d   1      28.266 -14.587  -1.975  0.00  0.00    -0.107 NA
ATOM      3  N   UNL d   1      28.873 -15.608  -1.261  0.00  0.00     0.045 NA
ATOM      4  C   UNL d   1      27.925 -16.397  -0.810  0.00  0.00     0.734 A 
ATOM      5  N   UNL d   1      28.040 -17.535  -0.053  0.00  0.00    -0.152 N 
ATOM      6  C   UNL d   1      26.937 -18.285   0.319  0.00  0.00     0.268 A 
ATOM      7  O   UNL d   1      27.032 -19.288   0.966  0.00  0.00    -0.267 OA
ATOM      8  C   UNL d   1      25.595 -17.766  -0.148  0.00  0.00     0.034 A 
ATOM      9  C   UNL d   1      25.514 -16.634  -0.882  0.00  0.00     0.048 A 
ATOM     10  N   UNL d   1      26.685 -15.937  -1.215  0.00  0.00    -0.122 N 
ATOM     11  C   UNL d   1      24.182 -16.123  -1.366  0.00  0.00     0.059 C 
ATOM     12  C   UNL d   1      23.066 -17.150  -1.270  0.00  0.00     0.006 C 
ATOM     13  C   UNL d   1      23.092 -17.792   0.105  0.00  0.00     0.005 C 
ATOM     14  C   UNL d   1      24.395 -18.575   0.273  0.00  0.00     0.046 C 
ATOM     15  H   UNL d   1      28.949 -17.858   0.248  0.00  0.00     0.188 HD
ENDROOT
BRANCH   1  16
ATOM     16  S   UNL d   1      25.737 -13.681  -2.490  0.00  0.00    -0.080 SA
BRANCH  16  17
ATOM     17  C   UNL d   1      25.254 -14.255  -4.131  0.00  0.00     0.185 C 
BRANCH  17  18
ATOM     18  C   UNL d   1      26.486 -14.468  -5.039  0.00  0.00     0.231 C 
ATOM     19  O   UNL d   1      26.951 -15.575  -5.322  0.00  0.00    -0.272 OA
ATOM     20  N   UNL d   1      27.061 -13.362  -5.637  0.00  0.00    -0.327 N 
ATOM     21  H   UNL d   1      27.712 -13.583  -6.383  0.00  0.00     0.169 HD
BRANCH  20  22
ATOM     22  C   UNL d   1      26.823 -12.013  -5.351  0.00  0.00     0.033 C 
ATOM     23  C   UNL d   1      26.008 -11.244  -6.160  0.00  0.00     0.028 C 
ATOM     24  C   UNL d   1      25.531 -10.039  -5.615  0.00  0.00     0.020 C 
ATOM     25  C   UNL d   1      26.091  -9.561  -4.410  0.00  0.00     0.158 C 
ATOM     26  C   UNL d   1      27.346  -9.977  -4.099  0.00  0.00     0.160 C 
ATOM     27  O   UNL d   1      25.505  -9.926  -3.069  0.00  0.00    -0.345 OA
ATOM     28  C   UNL d   1      27.492 -11.368  -4.304  0.00  0.00     0.047 C 
ATOM     29  O   UNL d   1      27.699  -9.314  -2.901  0.00  0.00    -0.345 OA
ATOM     30  C   UNL d   1      26.679  -9.932  -2.170  0.00  0.00     0.341 C 
ENDBRANCH  20  22
ENDBRANCH  17  18
ENDBRANCH  16  17
ENDBRANCH   1  16
TORSDOF 4
ENDMDL
MODEL 5
REMARK VINA RESULT:    -8.265      3.793      7.880
REMARK INTER + INTRA:         -10.869
REMARK INTER:                  -9.458
REMARK INTRA:                  -1.411
REMARK CONF_INDEPENDENT:        1.193
REMARK UNBOUND:                -1.411
REMARK  4 active torsions:
REMARK  status: ('A' for Active; 'I' for Inactive)
REMARK    1  A    between atoms: C_2  and  C_3 
REMARK       I    between atoms: C_2  and  N_19 
REMARK    2  A    between atoms: C_3  and  S_4 
REMARK    3  A    between atoms: S_4  and  C_5 
REMARK    4  A    between atoms: N_19  and  C_20 
ROOT
ATOM      1  C   UNL d   1      27.599 -14.202  -0.725  0.00  0.00     0.211 A 
ATOM      2  N   UNL d   1      28.899 -14.045  -0.592  0.00  0.00    -0.107 NA
ATOM      3  N   UNL d   1      29.437 -15.259  -0.196  0.00  0.00     0.045 NA
ATOM      4  C   UNL d   1      28.453 -16.125  -0.121  0.00  0.00     0.734 A 
ATOM      5  N   UNL d   1      28.498 -17.450   0.231  0.00  0.00    -0.152 N 
ATOM      6  C   UNL d   1      27.368 -18.250   0.230  0.00  0.00     0.268 A 
ATOM      7  O   UNL d   1      27.402 -19.411   0.519  0.00  0.00    -0.267 OA
ATOM      8  C   UNL d   1      26.076 -17.570  -0.167  0.00  0.00     0.034 A 
ATOM      9  C   UNL d   1      26.062 -16.259  -0.495  0.00  0.00     0.048 A 
ATOM     10  N   UNL d   1      27.257 -15.523  -0.469  0.00  0.00    -0.122 N 
ATOM     11  C   UNL d   1      24.783 -15.580  -0.910  0.00  0.00     0.059 C 
ATOM     12  C   UNL d   1      23.668 -16.552  -1.262  0.00  0.00     0.006 C 
ATOM     13  C   UNL d   1      23.560 -17.607  -0.177  0.00  0.00     0.005 C 
ATOM     14  C   UNL d   1      24.844 -18.438  -0.150  0.00  0.00     0.046 C 
ATOM     15  H   UNL d   1      29.374 -17.879   0.494  0.00  0.00     0.188 HD
ENDROOT
BRANCH   1  16
ATOM     16  S   UNL d   1      26.429 -12.950  -1.020  0.00  0.00    -0.080 SA
BRANCH  16  17
ATOM     17  C   UNL d   1      27.346 -11.516  -1.620  0.00  0.00     0.185 C 
BRANCH  17  18
ATOM     18  C   UNL d   1      26.592 -10.804  -2.765  0.00  0.00     0.231 C 
ATOM     19  O   UNL d   1      26.257  -9.617  -2.737  0.00  0.00    -0.272 OA
ATOM     20  N   UNL d   1      26.341 -11.512  -3.926  0.00  0.00    -0.327 N 
ATOM     21  H   UNL d   1      26.050 -10.936  -4.710  0.00  0.00     0.169 HD
BRANCH  20  22
ATOM     22  C   UNL d   1      26.473 -12.888  -4.136  0.00  0.00     0.033 C 
ATOM     23  C   UNL d   1      25.373 -13.725  -4.106  0.00  0.00     0.028 C 
ATOM     24  C   UNL d   1      25.531 -14.998  -4.681  0.00  0.00     0.020 C 
ATOM     25  C   UNL d   1      26.827 -15.444  -5.019  0.00  0.00     0.158 C 
ATOM     26  C   UNL d   1      27.871 -14.885  -4.353  0.00  0.00     0.160 C 
ATOM     27  O   UNL d   1      27.412 -15.200  -6.388  0.00  0.00    -0.345 OA
ATOM     28  C   UNL d   1      27.735 -13.480  -4.269  0.00  0.00     0.047 C 
ATOM     29  O   UNL d   1      29.035 -15.540  -4.817  0.00  0.00    -0.345 OA
ATOM     30  C   UNL d   1      28.862 -15.079  -6.126  0.00  0.00     0.341 C 
ENDBRANCH  20  22
ENDBRANCH  17  18
ENDBRANCH  16  17
ENDBRANCH   1  16
TORSDOF 4
ENDMDL
MODEL 6
REMARK VINA RESULT:    -8.205      3.870      5.941
REMARK INTER + INTRA:         -10.446
REMARK INTER:                  -9.398
REMARK INTRA:                  -1.048
REMARK CONF_INDEPENDENT:        1.193
REMARK UNBOUND:                -1.048
REMARK  4 active torsions:
REMARK  status: ('A' for Active; 'I' for Inactive)
REMARK    1  A    between atoms: C_2  and  C_3 
REMARK       I    between atoms: C_2  and  N_19 
REMARK    2  A    between atoms: C_3  and  S_4 
REMARK    3  A    between atoms: S_4  and  C_5 
REMARK    4  A    between atoms: N_19  and  C_20 
ROOT
ATOM      1  C   UNL d   1      30.689 -15.233   0.006  0.00  0.00     0.211 A 
ATOM      2  N   UNL d   1      31.848 -15.843   0.130  0.00  0.00    -0.107 NA
ATOM      3  N   UNL d   1      32.206 -15.810   1.469  0.00  0.00     0.045 NA
ATOM      4  C   UNL d   1      31.245 -15.200   2.123  0.00  0.00     0.734 A 
ATOM      5  N   UNL d   1      31.155 -14.930   3.465  0.00  0.00    -0.152 N 
ATOM      6  C   UNL d   1      30.050 -14.302   4.015  0.00  0.00     0.268 A 
ATOM      7  O   UNL d   1      29.957 -14.078   5.188  0.00  0.00    -0.267 OA
ATOM      8  C   UNL d   1      28.955 -13.918   3.045  0.00  0.00     0.034 A 
ATOM      9  C   UNL d   1      29.080 -14.186   1.726  0.00  0.00     0.048 A 
ATOM     10  N   UNL d   1      30.235 -14.828   1.254  0.00  0.00    -0.122 N 
ATOM     11  C   UNL d   1      27.985 -13.823   0.758  0.00  0.00     0.059 C 
ATOM     12  C   UNL d   1      26.663 -13.495   1.432  0.00  0.00     0.006 C 
ATOM     13  C   UNL d   1      26.908 -12.530   2.577  0.00  0.00     0.005 C 
ATOM     14  C   UNL d   1      27.761 -13.218   3.644  0.00  0.00     0.046 C 
ATOM     15  H   UNL d   1      31.902 -15.196   4.091  0.00  0.00     0.188 HD
ENDROOT
BRANCH   1  16
ATOM     16  S   UNL d   1      29.884 -14.833  -1.482  0.00  0.00    -0.080 SA
BRANCH  16  17
ATOM     17  C   UNL d   1      28.930 -16.287  -1.963  0.00  0.00     0.185 C 
BRANCH  17  18
ATOM     18  C   UNL d   1      29.127 -17.447  -0.961  0.00  0.00     0.231 C 
ATOM     19  O   UNL d   1      30.195 -18.040  -0.794  0.00  0.00    -0.272 OA
ATOM     20  N   UNL d   1      28.068 -17.796  -0.143  0.00  0.00    -0.327 N 
ATOM     21  H   UNL d   1      28.322 -18.400   0.632  0.00  0.00     0.169 HD
BRANCH  20  22
ATOM     22  C   UNL d   1      26.733 -17.392  -0.251  0.00  0.00     0.033 C 
ATOM     23  C   UNL d   1      26.403 -16.136  -0.725  0.00  0.00     0.028 C 
ATOM     24  C   UNL d   1      25.075 -15.948  -1.145  0.00  0.00     0.020 C 
ATOM     25  C   UNL d   1      24.110 -16.932  -0.838  0.00  0.00     0.158 C 
ATOM     26  C   UNL d   1      24.358 -17.734   0.230  0.00  0.00     0.160 C 
ATOM     27  O   UNL d   1      23.819 -18.073  -1.781  0.00  0.00    -0.345 OA
ATOM     28  C   UNL d   1      25.694 -18.200   0.224  0.00  0.00     0.047 C 
ATOM     29  O   UNL d   1      23.230 -18.574   0.368  0.00  0.00    -0.345 OA
ATOM     30  C   UNL d   1      23.433 -19.178  -0.877  0.00  0.00     0.341 C 
ENDBRANCH  20  22
ENDBRANCH  17  18
ENDBRANCH  16  17
ENDBRANCH   1  16
TORSDOF 4
ENDMDL
MODEL 7
REMARK VINA RESULT:    -7.934      4.260      8.698
REMARK INTER + INTRA:         -10.316
REMARK INTER:                  -9.127
REMARK INTRA:                  -1.189
REMARK CONF_INDEPENDENT:        1.193
REMARK UNBOUND:                -1.189
REMARK  4 active torsions:
REMARK  status: ('A' for Active; 'I' for Inactive)
REMARK    1  A    between atoms: C_2  and  C_3 
REMARK       I    between atoms: C_2  and  N_19 
REMARK    2  A    between atoms: C_3  and  S_4 
REMARK    3  A    between atoms: S_4  and  C_5 
REMARK    4  A    between atoms: N_19  and  C_20 
ROOT
ATOM      1  C   UNL d   1      28.955 -15.093  -2.220  0.00  0.00     0.211 A 
ATOM      2  N   UNL d   1      30.229 -15.407  -2.115  0.00  0.00    -0.107 NA
ATOM      3  N   UNL d   1      30.325 -16.533  -1.314  0.00  0.00     0.045 NA
ATOM      4  C   UNL d   1      29.108 -16.885  -0.972  0.00  0.00     0.734 A 
ATOM      5  N   UNL d   1      28.704 -17.934  -0.187  0.00  0.00    -0.152 N 
ATOM      6  C   UNL d   1      27.366 -18.198   0.057  0.00  0.00     0.268 A 
ATOM      7  O   UNL d   1      27.005 -19.121   0.727  0.00  0.00    -0.267 OA
ATOM      8  C   UNL d   1      26.377 -17.248  -0.582  0.00  0.00     0.034 A 
ATOM      9  C   UNL d   1      26.807 -16.214  -1.340  0.00  0.00     0.048 A 
ATOM     10  N   UNL d   1      28.184 -16.023  -1.536  0.00  0.00    -0.122 N 
ATOM     11  C   UNL d   1      25.827 -15.276  -1.994  0.00  0.00     0.059 C 
ATOM     12  C   UNL d   1      24.404 -15.808  -2.020  0.00  0.00     0.006 C 
ATOM     13  C   UNL d   1      24.036 -16.327  -0.642  0.00  0.00     0.005 C 
ATOM     14  C   UNL d   1      24.922 -17.525  -0.300  0.00  0.00     0.046 C 
ATOM     15  H   UNL d   1      29.385 -18.553   0.230  0.00  0.00     0.188 HD
ENDROOT
BRANCH   1  16
ATOM     16  S   UNL d   1      28.299 -13.661  -2.956  0.00  0.00    -0.080 SA
BRANCH  16  17
ATOM     17  C   UNL d   1      28.137 -14.012  -4.719  0.00  0.00     0.185 C 
BRANCH  17  18
ATOM     18  C   UNL d   1      26.710 -14.491  -5.069  0.00  0.00     0.231 C 
ATOM     19  O   UNL d   1      26.435 -15.644  -5.410  0.00  0.00    -0.272 OA
ATOM     20  N   UNL d   1      25.663 -13.601  -4.921  0.00  0.00    -0.327 N 
ATOM     21  H   UNL d   1      24.744 -14.031  -4.950  0.00  0.00     0.169 HD
BRANCH  20  22
ATOM     22  C   UNL d   1      25.736 -12.220  -4.711  0.00  0.00     0.033 C 
ATOM     23  C   UNL d   1      25.530 -11.677  -3.457  0.00  0.00     0.028 C 
ATOM     24  C   UNL d   1      25.978 -10.359  -3.257  0.00  0.00     0.020 C 
ATOM     25  C   UNL d   1      26.369  -9.589  -4.375  0.00  0.00     0.158 C 
ATOM     26  C   UNL d   1      25.850  -9.936  -5.581  0.00  0.00     0.160 C 
ATOM     27  O   UNL d   1      27.798  -9.570  -4.858  0.00  0.00    -0.345 OA
ATOM     28  C   UNL d   1      25.905 -11.335  -5.782  0.00  0.00     0.047 C 
ATOM     29  O   UNL d   1      26.333  -8.986  -6.510  0.00  0.00    -0.345 OA
ATOM     30  C   UNL d   1      27.666  -9.362  -6.316  0.00  0.00     0.341 C 
ENDBRANCH  20  22
ENDBRANCH  17  18
ENDBRANCH  16  17
ENDBRANCH   1  16
TORSDOF 4
ENDMDL
MODEL 8
REMARK VINA RESULT:    -7.715      5.038      7.165
REMARK INTER + INTRA:         -10.523
REMARK INTER:                  -8.908
REMARK INTRA:                  -1.615
REMARK CONF_INDEPENDENT:        1.193
REMARK UNBOUND:                -1.615
REMARK  4 active torsions:
REMARK  status: ('A' for Active; 'I' for Inactive)
REMARK    1  A    between atoms: C_2  and  C_3 
REMARK       I    between atoms: C_2  and  N_19 
REMARK    2  A    between atoms: C_3  and  S_4 
REMARK    3  A    between atoms: S_4  and  C_5 
REMARK    4  A    between atoms: N_19  and  C_20 
ROOT
ATOM      1  C   UNL d   1      31.381 -14.581   0.886  0.00  0.00     0.211 A 
ATOM      2  N   UNL d   1      32.529 -15.035   1.341  0.00  0.00    -0.107 NA
ATOM      3  N   UNL d   1      32.415 -15.186   2.713  0.00  0.00     0.045 NA
ATOM      4  C   UNL d   1      31.194 -14.840   3.052  0.00  0.00     0.734 A 
ATOM      5  N   UNL d   1      30.619 -14.824   4.296  0.00  0.00    -0.152 N 
ATOM      6  C   UNL d   1      29.296 -14.462   4.490  0.00  0.00     0.268 A 
ATOM      7  O   UNL d   1      28.782 -14.462   5.571  0.00  0.00    -0.267 OA
ATOM      8  C   UNL d   1      28.527 -14.072   3.247  0.00  0.00     0.034 A 
ATOM      9  C   UNL d   1      29.127 -14.085   2.035  0.00  0.00     0.048 A 
ATOM     10  N   UNL d   1      30.473 -14.467   1.931  0.00  0.00    -0.122 N 
ATOM     11  C   UNL d   1      28.362 -13.716   0.791  0.00  0.00     0.059 C 
ATOM     12  C   UNL d   1      26.855 -13.699   0.988  0.00  0.00     0.006 C 
ATOM     13  C   UNL d   1      26.522 -12.924   2.250  0.00  0.00     0.005 C 
ATOM     14  C   UNL d   1      27.093 -13.662   3.462  0.00  0.00     0.046 C 
ATOM     15  H   UNL d   1      31.155 -15.087   5.111  0.00  0.00     0.188 HD
ENDROOT
BRANCH   1  16
ATOM     16  S   UNL d   1      31.047 -14.043  -0.734  0.00  0.00    -0.080 SA
BRANCH  16  17
ATOM     17  C   UNL d   1      29.933 -15.260  -1.464  0.00  0.00     0.185 C 
BRANCH  17  18
ATOM     18  C   UNL d   1      30.060 -16.632  -0.765  0.00  0.00     0.231 C 
ATOM     19  O   UNL d   1      31.136 -17.158  -0.470  0.00  0.00    -0.272 OA
ATOM     20  N   UNL d   1      28.903 -17.280  -0.375  0.00  0.00    -0.327 N 
ATOM     21  H   UNL d   1      29.054 -18.053   0.265  0.00  0.00     0.169 HD
BRANCH  20  22
ATOM     22  C   UNL d   1      27.587 -16.974  -0.734  0.00  0.00     0.033 C 
ATOM     23  C   UNL d   1      26.535 -17.220   0.127  0.00  0.00     0.028 C 
ATOM     24  C   UNL d   1      25.325 -16.558  -0.145  0.00  0.00     0.020 C 
ATOM     25  C   UNL d   1      25.166 -15.899  -1.384  0.00  0.00     0.158 C 
ATOM     26  C   UNL d   1      25.934 -16.326  -2.419  0.00  0.00     0.160 C 
ATOM     27  O   UNL d   1      25.529 -14.444  -1.555  0.00  0.00    -0.345 OA
ATOM     28  C   UNL d   1      27.278 -16.513  -2.020  0.00  0.00     0.047 C 
ATOM     29  O   UNL d   1      25.544 -15.565  -3.545  0.00  0.00    -0.345 OA
ATOM     30  C   UNL d   1      25.957 -14.360  -2.968  0.00  0.00     0.341 C 
ENDBRANCH  20  22
ENDBRANCH  17  18
ENDBRANCH  16  17
ENDBRANCH   1  16
TORSDOF 4
ENDMDL
MODEL 9
REMARK VINA RESULT:    -7.677      3.866      5.365
REMARK INTER + INTRA:         -10.812
REMARK INTER:                  -8.870
REMARK INTRA:                  -1.943
REMARK CONF_INDEPENDENT:        1.193
REMARK UNBOUND:                -1.943
REMARK  4 active torsions:
REMARK  status: ('A' for Active; 'I' for Inactive)
REMARK    1  A    between atoms: C_2  and  C_3 
REMARK       I    between atoms: C_2  and  N_19 
REMARK    2  A    between atoms: C_3  and  S_4 
REMARK    3  A    between atoms: S_4  and  C_5 
REMARK    4  A    between atoms: N_19  and  C_20 
ROOT
ATOM      1  C   UNL d   1      28.131 -14.036  -1.184  0.00  0.00     0.211 A 
ATOM      2  N   UNL d   1      27.988 -13.762   0.095  0.00  0.00    -0.107 NA
ATOM      3  N   UNL d   1      28.618 -14.761   0.818  0.00  0.00     0.045 NA
ATOM      4  C   UNL d   1      29.144 -15.603  -0.041  0.00  0.00     0.734 A 
ATOM      5  N   UNL d   1      29.862 -16.746   0.204  0.00  0.00    -0.152 N 
ATOM      6  C   UNL d   1      30.385 -17.519  -0.819  0.00  0.00     0.268 A 
ATOM      7  O   UNL d   1      31.026 -18.509  -0.613  0.00  0.00    -0.267 OA
ATOM      8  C   UNL d   1      30.106 -17.034  -2.225  0.00  0.00     0.034 A 
ATOM      9  C   UNL d   1      29.384 -15.910  -2.433  0.00  0.00     0.048 A 
ATOM     10  N   UNL d   1      28.892 -15.187  -1.336  0.00  0.00    -0.122 N 
ATOM     11  C   UNL d   1      29.118 -15.412  -3.830  0.00  0.00     0.059 C 
ATOM     12  C   UNL d   1      30.009 -16.052  -4.882  0.00  0.00     0.006 C 
ATOM     13  C   UNL d   1      30.017 -17.556  -4.685  0.00  0.00     0.005 C 
ATOM     14  C   UNL d   1      30.661 -17.886  -3.337  0.00  0.00     0.046 C 
ATOM     15  H   UNL d   1      30.032 -17.049   1.153  0.00  0.00     0.188 HD
ENDROOT
BRANCH   1  16
ATOM     16  S   UNL d   1      27.373 -13.207  -2.512  0.00  0.00    -0.080 SA
BRANCH  16  17
ATOM     17  C   UNL d   1      25.624 -13.650  -2.469  0.00  0.00     0.185 C 
BRANCH  17  18
ATOM     18  C   UNL d   1      25.276 -14.676  -3.571  0.00  0.00     0.231 C 
ATOM     19  O   UNL d   1      25.165 -14.392  -4.766  0.00  0.00    -0.272 OA
ATOM     20  N   UNL d   1      25.156 -16.006  -3.216  0.00  0.00    -0.327 N 
ATOM     21  H   UNL d   1      25.148 -16.648  -4.002  0.00  0.00     0.169 HD
BRANCH  20  22
ATOM     22  C   UNL d   1      25.077 -16.545  -1.928  0.00  0.00     0.033 C 
ATOM     23  C   UNL d   1      23.863 -16.919  -1.382  0.00  0.00     0.028 C 
ATOM     24  C   UNL d   1      23.907 -17.774  -0.267  0.00  0.00     0.020 C 
ATOM     25  C   UNL d   1      25.143 -17.998   0.379  0.00  0.00     0.158 C 
ATOM     26  C   UNL d   1      26.100 -17.044   0.238  0.00  0.00     0.160 C 
ATOM     27  O   UNL d   1      26.047 -19.138  -0.020  0.00  0.00    -0.345 OA
ATOM     28  C   UNL d   1      26.208 -16.618  -1.105  0.00  0.00     0.047 C 
ATOM     29  O   UNL d   1      27.198 -17.464   1.024  0.00  0.00    -0.345 OA
ATOM     30  C   UNL d   1      27.402 -18.616   0.258  0.00  0.00     0.341 C 
ENDBRANCH  20  22
ENDBRANCH  17  18
ENDBRANCH  16  17
ENDBRANCH   1  16
TORSDOF 4
ENDMDL
