MODEL 1
REMARK VINA RESULT:    -9.847      0.000      0.000
REMARK INTER + INTRA:         -16.357
REMARK INTER:                 -14.024
REMARK INTRA:                  -2.334
REMARK CONF_INDEPENDENT:        4.176
REMARK UNBOUND:                -2.334
REMARK  14 active torsions:
REMARK  status: ('A' for Active; 'I' for Inactive)
REMARK    1  A    between atoms: C_2  and  N_3 
REMARK    2  A    between atoms: C_2  and  C_14 
REMARK       I    between atoms: N_3  and  C_4 
REMARK    3  A    between atoms: C_4  and  O_6 
REMARK    4  A    between atoms: O_6  and  C_7 
REMARK    5  A    between atoms: C_7  and  C_8 
REMARK       I    between atoms: C_14  and  N_16 
REMARK    6  A    between atoms: C_17  and  N_16 
REMARK    7  A    between atoms: C_17  and  C_27 
REMARK    8  A    between atoms: C_17  and  C_18 
REMARK    9  A    between atoms: C_18  and  S_19 
REMARK   10  A    between atoms: S_19  and  C_20 
REMARK   11  A    between atoms: C_20  and  C_21 
REMARK   12  A    between atoms: C_27  and  O_29 
REMARK   13  A    between atoms: O_29  and  C_30 
REMARK   14  A    between atoms: C_30  and  C_31 
ROOT
ATOM      1  C   UNL d   1      28.285 -15.666  -0.104  0.00  0.00     0.193 C 
ENDROOT
BRANCH   1   2
ATOM      2  C   UNL d   1      27.315 -14.746   0.663  0.00  0.00     0.282 C 
ATOM      3  O   UNL d   1      26.450 -14.051   0.144  0.00  0.00    -0.263 OA
BRANCH   2   4
ATOM      4  O   UNL d   1      27.569 -14.762   2.002  0.00  0.00    -0.315 OA
BRANCH   4   5
ATOM      5  C   UNL d   1      27.266 -13.511   2.644  0.00  0.00     0.217 C 
BRANCH   5   6
ATOM      6  C   UNL d   1      27.794 -13.554   4.053  0.00  0.00    -0.034 A 
ATOM      7  C   UNL d   1      27.777 -12.434   4.896  0.00  0.00     0.009 A 
ATOM      8  C   UNL d   1      28.332 -12.510   6.176  0.00  0.00     0.001 A 
ATOM      9  C   UNL d   1      28.840 -13.721   6.647  0.00  0.00     0.000 A 
ATOM     10  C   UNL d   1      28.860 -14.838   5.816  0.00  0.00     0.001 A 
ATOM     11  C   UNL d   1      28.359 -14.748   4.522  0.00  0.00     0.009 A 
ENDBRANCH   5   6
ENDBRANCH   4   5
ENDBRANCH   2   4
ENDBRANCH   1   2
BRANCH   1  12
ATOM     12  C   UNL d   1      29.761 -15.237  -0.024  0.00  0.00     0.109 C 
BRANCH  12  13
ATOM     13  S   UNL d   1      30.644 -15.670  -1.545  0.00  0.00    -0.162 SA
BRANCH  13  14
ATOM     14  C   UNL d   1      29.346 -16.595  -2.442  0.00  0.00     0.112 C 
BRANCH  14  15
ATOM     15  C   UNL d   1      28.853 -15.837  -3.667  0.00  0.00    -0.049 C 
ATOM     16  C   UNL d   1      27.802 -14.911  -3.584  0.00  0.00     0.008 C 
ATOM     17  C   UNL d   1      27.259 -14.322  -4.737  0.00  0.00     0.001 C 
ATOM     18  C   UNL d   1      27.870 -14.516  -5.970  0.00  0.00     0.000 C 
ATOM     19  C   UNL d   1      28.945 -15.386  -6.066  0.00  0.00     0.001 C 
ATOM     20  C   UNL d   1      29.385 -16.080  -4.940  0.00  0.00     0.008 C 
ENDBRANCH  14  15
ENDBRANCH  13  14
ENDBRANCH  12  13
ENDBRANCH   1  12
BRANCH   1  21
ATOM     21  N   UNL d   1      28.068 -17.078   0.240  0.00  0.00    -0.345 N 
ATOM     22  C   UNL d   1      26.907 -17.792   0.344  0.00  0.00     0.240 C 
ATOM     23  O   UNL d   1      27.002 -18.918   0.841  0.00  0.00    -0.271 OA
ATOM     24  H   UNL d   1      28.871 -17.588   0.598  0.00  0.00     0.163 HD
BRANCH  22  25
ATOM     25  C   UNL d   1      25.566 -17.257  -0.255  0.00  0.00     0.174 C 
ATOM     26  C   UNL d   1      25.812 -16.713  -1.656  0.00  0.00     0.042 C 
BRANCH  25  27
ATOM     27  N   UNL d   1      24.500 -18.258  -0.315  0.00  0.00    -0.324 N 
ATOM     28  C   UNL d   1      23.180 -17.958  -0.530  0.00  0.00     0.361 C 
ATOM     29  O   UNL d   1      22.751 -16.822  -0.723  0.00  0.00    -0.238 OA
ATOM     30  H   UNL d   1      24.754 -19.209  -0.533  0.00  0.00     0.165 HD
BRANCH  28  31
ATOM     31  O   UNL d   1      22.412 -19.087  -0.561  0.00  0.00    -0.299 OA
BRANCH  31  32
ATOM     32  C   UNL d   1      21.021 -18.836  -0.889  0.00  0.00     0.219 C 
BRANCH  32  33
ATOM     33  C   UNL d   1      20.033 -19.518   0.047  0.00  0.00    -0.034 A 
ATOM     34  C   UNL d   1      20.263 -19.636   1.422  0.00  0.00     0.009 A 
ATOM     35  C   UNL d   1      19.411 -20.400   2.242  0.00  0.00     0.001 A 
ATOM     36  C   UNL d   1      18.262 -20.978   1.728  0.00  0.00     0.000 A 
ATOM     37  C   UNL d   1      18.013 -20.852   0.381  0.00  0.00     0.001 A 
ATOM     38  C   UNL d   1      18.917 -20.181  -0.446  0.00  0.00     0.009 A 
ENDBRANCH  32  33
ENDBRANCH  31  32
ENDBRANCH  28  31
ENDBRANCH  25  27
ENDBRANCH  22  25
ENDBRANCH   1  21
TORSDOF 14
ENDMDL
MODEL 2
REMARK VINA RESULT:    -9.766      3.077      9.522
REMARK INTER + INTRA:         -16.901
REMARK INTER:                 -13.942
REMARK INTRA:                  -2.959
REMARK CONF_INDEPENDENT:        4.176
REMARK UNBOUND:                -2.959
REMARK  14 active torsions:
REMARK  status: ('A' for Active; 'I' for Inactive)
REMARK    1  A    between atoms: C_2  and  N_3 
REMARK    2  A    between atoms: C_2  and  C_14 
REMARK       I    between atoms: N_3  and  C_4 
REMARK    3  A    between atoms: C_4  and  O_6 
REMARK    4  A    between atoms: O_6  and  C_7 
REMARK    5  A    between atoms: C_7  and  C_8 
REMARK       I    between atoms: C_14  and  N_16 
REMARK    6  A    between atoms: C_17  and  N_16 
REMARK    7  A    between atoms: C_17  and  C_27 
REMARK    8  A    between atoms: C_17  and  C_18 
REMARK    9  A    between atoms: C_18  and  S_19 
REMARK   10  A    between atoms: S_19  and  C_20 
REMARK   11  A    between atoms: C_20  and  C_21 
REMARK   12  A    between atoms: C_27  and  O_29 
REMARK   13  A    between atoms: O_29  and  C_30 
REMARK   14  A    between atoms: C_30  and  C_31 
ROOT
ATOM      1  C   UNL d   1      24.343 -16.903  -0.226  0.00  0.00     0.193 C 
ENDROOT
BRANCH   1   2
ATOM      2  C   UNL d   1      24.869 -16.568  -1.635  0.00  0.00     0.282 C 
ATOM      3  O   UNL d   1      25.039 -17.384  -2.532  0.00  0.00    -0.263 OA
BRANCH   2   4
ATOM      4  O   UNL d   1      25.172 -15.244  -1.750  0.00  0.00    -0.315 OA
BRANCH   4   5
ATOM      5  C   UNL d   1      24.900 -14.720  -3.062  0.00  0.00     0.217 C 
BRANCH   5   6
ATOM      6  C   UNL d   1      26.206 -14.552  -3.792  0.00  0.00    -0.034 A 
ATOM      7  C   UNL d   1      26.461 -15.170  -5.025  0.00  0.00     0.009 A 
ATOM      8  C   UNL d   1      27.711 -15.031  -5.634  0.00  0.00     0.001 A 
ATOM      9  C   UNL d   1      28.685 -14.217  -5.054  0.00  0.00     0.000 A 
ATOM     10  C   UNL d   1      28.439 -13.601  -3.830  0.00  0.00     0.001 A 
ATOM     11  C   UNL d   1      27.215 -13.785  -3.195  0.00  0.00     0.009 A 
ENDBRANCH   5   6
ENDBRANCH   4   5
ENDBRANCH   2   4
ENDBRANCH   1   2
BRANCH   1  12
ATOM     12  C   UNL d   1      22.849 -17.272  -0.180  0.00  0.00     0.109 C 
BRANCH  12  13
ATOM     13  S   UNL d   1      22.565 -18.911  -0.898  0.00  0.00    -0.162 SA
BRANCH  13  14
ATOM     14  C   UNL d   1      20.750 -18.877  -1.121  0.00  0.00     0.112 C 
BRANCH  14  15
ATOM     15  C   UNL d   1      20.023 -19.521   0.051  0.00  0.00    -0.049 C 
ATOM     16  C   UNL d   1      20.472 -19.363   1.371  0.00  0.00     0.008 C 
ATOM     17  C   UNL d   1      19.883 -20.073   2.430  0.00  0.00     0.001 C 
ATOM     18  C   UNL d   1      18.728 -20.814   2.211  0.00  0.00     0.000 C 
ATOM     19  C   UNL d   1      18.234 -20.940   0.922  0.00  0.00     0.001 C 
ATOM     20  C   UNL d   1      18.911 -20.351  -0.145  0.00  0.00     0.008 C 
ENDBRANCH  14  15
ENDBRANCH  13  14
ENDBRANCH  12  13
ENDBRANCH   1  12
BRANCH   1  21
ATOM     21  N   UNL d   1      25.206 -17.881   0.449  0.00  0.00    -0.345 N 
ATOM     22  C   UNL d   1      26.552 -18.092   0.341  0.00  0.00     0.240 C 
ATOM     23  O   UNL d   1      26.989 -19.114   0.878  0.00  0.00    -0.271 OA
ATOM     24  H   UNL d   1      24.739 -18.618   0.972  0.00  0.00     0.163 HD
BRANCH  22  25
ATOM     25  C   UNL d   1      27.493 -17.030  -0.315  0.00  0.00     0.174 C 
ATOM     26  C   UNL d   1      27.767 -15.908   0.678  0.00  0.00     0.042 C 
BRANCH  25  27
ATOM     27  N   UNL d   1      28.769 -17.572  -0.783  0.00  0.00    -0.324 N 
ATOM     28  C   UNL d   1      29.468 -17.072  -1.851  0.00  0.00     0.361 C 
ATOM     29  O   UNL d   1      29.114 -16.099  -2.515  0.00  0.00    -0.238 OA
ATOM     30  H   UNL d   1      29.325 -18.106  -0.133  0.00  0.00     0.165 HD
BRANCH  28  31
ATOM     31  O   UNL d   1      30.633 -17.756  -2.047  0.00  0.00    -0.299 OA
BRANCH  31  32
ATOM     32  C   UNL d   1      31.447 -17.221  -3.122  0.00  0.00     0.219 C 
BRANCH  32  33
ATOM     33  C   UNL d   1      31.237 -17.916  -4.461  0.00  0.00    -0.034 A 
ATOM     34  C   UNL d   1      31.497 -17.284  -5.682  0.00  0.00     0.009 A 
ATOM     35  C   UNL d   1      31.154 -17.890  -6.905  0.00  0.00     0.001 A 
ATOM     36  C   UNL d   1      30.638 -19.176  -6.941  0.00  0.00     0.000 A 
ATOM     37  C   UNL d   1      30.398 -19.816  -5.747  0.00  0.00     0.001 A 
ATOM     38  C   UNL d   1      30.643 -19.169  -4.534  0.00  0.00     0.009 A 
ENDBRANCH  32  33
ENDBRANCH  31  32
ENDBRANCH  28  31
ENDBRANCH  25  27
ENDBRANCH  22  25
ENDBRANCH   1  21
TORSDOF 14
ENDMDL
MODEL 3
REMARK VINA RESULT:    -9.714      2.195      8.794
REMARK INTER + INTRA:         -16.854
REMARK INTER:                 -13.891
REMARK INTRA:                  -2.963
REMARK CONF_INDEPENDENT:        4.176
REMARK UNBOUND:                -2.963
REMARK  14 active torsions:
REMARK  status: ('A' for Active; 'I' for Inactive)
REMARK    1  A    between atoms: C_2  and  N_3 
REMARK    2  A    between atoms: C_2  and  C_14 
REMARK       I    between atoms: N_3  and  C_4 
REMARK    3  A    between atoms: C_4  and  O_6 
REMARK    4  A    between atoms: O_6  and  C_7 
REMARK    5  A    between atoms: C_7  and  C_8 
REMARK       I    between atoms: C_14  and  N_16 
REMARK    6  A    between atoms: C_17  and  N_16 
REMARK    7  A    between atoms: C_17  and  C_27 
REMARK    8  A    between atoms: C_17  and  C_18 
REMARK    9  A    between atoms: C_18  and  S_19 
REMARK   10  A    between atoms: S_19  and  C_20 
REMARK   11  A    between atoms: C_20  and  C_21 
REMARK   12  A    between atoms: C_27  and  O_29 
REMARK   13  A    between atoms: O_29  and  C_30 
REMARK   14  A    between atoms: C_30  and  C_31 
ROOT
ATOM      1  C   UNL d   1      25.421 -15.389  -2.257  0.00  0.00     0.193 C 
ENDROOT
BRANCH   1   2
ATOM      2  C   UNL d   1      25.160 -14.772  -3.645  0.00  0.00     0.282 C 
ATOM      3  O   UNL d   1      24.237 -14.014  -3.911  0.00  0.00    -0.263 OA
BRANCH   2   4
ATOM      4  O   UNL d   1      26.063 -15.216  -4.564  0.00  0.00    -0.315 OA
BRANCH   4   5
ATOM      5  C   UNL d   1      27.141 -14.289  -4.781  0.00  0.00     0.217 C 
BRANCH   5   6
ATOM      6  C   UNL d   1      28.421 -15.068  -4.933  0.00  0.00    -0.034 A 
ATOM      7  C   UNL d   1      28.907 -15.476  -6.183  0.00  0.00     0.009 A 
ATOM      8  C   UNL d   1      30.068 -16.249  -6.266  0.00  0.00     0.001 A 
ATOM      9  C   UNL d   1      30.789 -16.555  -5.112  0.00  0.00     0.000 A 
ATOM     10  C   UNL d   1      30.313 -16.153  -3.866  0.00  0.00     0.001 A 
ATOM     11  C   UNL d   1      29.126 -15.432  -3.778  0.00  0.00     0.009 A 
ENDBRANCH   5   6
ENDBRANCH   4   5
ENDBRANCH   2   4
ENDBRANCH   1   2
BRANCH   1  12
ATOM     12  C   UNL d   1      24.181 -16.024  -1.603  0.00  0.00     0.109 C 
BRANCH  12  13
ATOM     13  S   UNL d   1      24.363 -17.822  -1.481  0.00  0.00    -0.162 SA
BRANCH  13  14
ATOM     14  C   UNL d   1      23.578 -18.136   0.141  0.00  0.00     0.112 C 
BRANCH  14  15
ATOM     15  C   UNL d   1      22.175 -18.708  -0.009  0.00  0.00    -0.049 C 
ATOM     16  C   UNL d   1      21.613 -18.953  -1.271  0.00  0.00     0.008 C 
ATOM     17  C   UNL d   1      20.272 -19.346  -1.406  0.00  0.00     0.001 C 
ATOM     18  C   UNL d   1      19.525 -19.666  -0.279  0.00  0.00     0.000 C 
ATOM     19  C   UNL d   1      20.079 -19.481   0.979  0.00  0.00     0.001 C 
ATOM     20  C   UNL d   1      21.362 -18.952   1.106  0.00  0.00     0.008 C 
ENDBRANCH  14  15
ENDBRANCH  13  14
ENDBRANCH  12  13
ENDBRANCH   1  12
BRANCH   1  21
ATOM     21  N   UNL d   1      26.589 -16.280  -2.278  0.00  0.00    -0.345 N 
ATOM     22  C   UNL d   1      27.322 -16.798  -1.247  0.00  0.00     0.240 C 
ATOM     23  O   UNL d   1      28.376 -17.362  -1.555  0.00  0.00    -0.271 OA
ATOM     24  H   UNL d   1      27.029 -16.435  -3.182  0.00  0.00     0.163 HD
BRANCH  22  25
ATOM     25  C   UNL d   1      26.783 -16.787   0.221  0.00  0.00     0.174 C 
ATOM     26  C   UNL d   1      26.950 -18.170   0.837  0.00  0.00     0.042 C 
BRANCH  25  27
ATOM     27  N   UNL d   1      27.433 -15.801   1.085  0.00  0.00    -0.324 N 
ATOM     28  C   UNL d   1      27.131 -14.464   1.083  0.00  0.00     0.361 C 
ATOM     29  O   UNL d   1      26.266 -13.951   0.374  0.00  0.00    -0.238 OA
ATOM     30  H   UNL d   1      27.873 -16.129   1.932  0.00  0.00     0.165 HD
BRANCH  28  31
ATOM     31  O   UNL d   1      27.873 -13.784   2.006  0.00  0.00    -0.299 OA
BRANCH  31  32
ATOM     32  C   UNL d   1      27.095 -13.289   3.126  0.00  0.00     0.219 C 
BRANCH  32  33
ATOM     33  C   UNL d   1      27.793 -13.430   4.473  0.00  0.00    -0.034 A 
ATOM     34  C   UNL d   1      28.137 -12.324   5.257  0.00  0.00     0.009 A 
ATOM     35  C   UNL d   1      28.913 -12.469   6.423  0.00  0.00     0.001 A 
ATOM     36  C   UNL d   1      29.275 -13.724   6.884  0.00  0.00     0.000 A 
ATOM     37  C   UNL d   1      28.924 -14.822   6.132  0.00  0.00     0.001 A 
ATOM     38  C   UNL d   1      28.245 -14.664   4.922  0.00  0.00     0.009 A 
ENDBRANCH  32  33
ENDBRANCH  31  32
ENDBRANCH  28  31
ENDBRANCH  25  27
ENDBRANCH  22  25
ENDBRANCH   1  21
TORSDOF 14
ENDMDL
MODEL 4
REMARK VINA RESULT:    -9.304      2.820      7.398
REMARK INTER + INTRA:         -16.731
REMARK INTER:                 -13.480
REMARK INTRA:                  -3.250
REMARK CONF_INDEPENDENT:        4.176
REMARK UNBOUND:                -3.250
REMARK  14 active torsions:
REMARK  status: ('A' for Active; 'I' for Inactive)
REMARK    1  A    between atoms: C_2  and  N_3 
REMARK    2  A    between atoms: C_2  and  C_14 
REMARK       I    between atoms: N_3  and  C_4 
REMARK    3  A    between atoms: C_4  and  O_6 
REMARK    4  A    between atoms: O_6  and  C_7 
REMARK    5  A    between atoms: C_7  and  C_8 
REMARK       I    between atoms: C_14  and  N_16 
REMARK    6  A    between atoms: C_17  and  N_16 
REMARK    7  A    between atoms: C_17  and  C_27 
REMARK    8  A    between atoms: C_17  and  C_18 
REMARK    9  A    between atoms: C_18  and  S_19 
REMARK   10  A    between atoms: S_19  and  C_20 
REMARK   11  A    between atoms: C_20  and  C_21 
REMARK   12  A    between atoms: C_27  and  O_29 
REMARK   13  A    between atoms: O_29  and  C_30 
REMARK   14  A    between atoms: C_30  and  C_31 
ROOT
ATOM      1  C   UNL d   1      27.204 -14.092  -1.756  0.00  0.00     0.193 C 
ENDROOT
BRANCH   1   2
ATOM      2  C   UNL d   1      27.038 -13.165  -0.536  0.00  0.00     0.282 C 
ATOM      3  O   UNL d   1      27.205 -11.952  -0.551  0.00  0.00    -0.263 OA
BRANCH   2   4
ATOM      4  O   UNL d   1      26.726 -13.871   0.587  0.00  0.00    -0.315 OA
BRANCH   4   5
ATOM      5  C   UNL d   1      26.592 -13.039   1.752  0.00  0.00     0.217 C 
BRANCH   5   6
ATOM      6  C   UNL d   1      27.522 -13.552   2.818  0.00  0.00    -0.034 A 
ATOM      7  C   UNL d   1      28.846 -13.924   2.544  0.00  0.00     0.009 A 
ATOM      8  C   UNL d   1      29.651 -14.450   3.557  0.00  0.00     0.001 A 
ATOM      9  C   UNL d   1      29.165 -14.538   4.862  0.00  0.00     0.000 A 
ATOM     10  C   UNL d   1      27.852 -14.171   5.143  0.00  0.00     0.001 A 
ATOM     11  C   UNL d   1      27.031 -13.700   4.122  0.00  0.00     0.009 A 
ENDBRANCH   5   6
ENDBRANCH   4   5
ENDBRANCH   2   4
ENDBRANCH   1   2
BRANCH   1  12
ATOM     12  C   UNL d   1      28.174 -15.265  -1.531  0.00  0.00     0.109 C 
BRANCH  12  13
ATOM     13  S   UNL d   1      27.302 -16.851  -1.613  0.00  0.00    -0.162 SA
BRANCH  13  14
ATOM     14  C   UNL d   1      26.379 -16.815  -0.034  0.00  0.00     0.112 C 
BRANCH  14  15
ATOM     15  C   UNL d   1      24.931 -17.249  -0.215  0.00  0.00    -0.049 C 
ATOM     16  C   UNL d   1      24.555 -18.599  -0.146  0.00  0.00     0.008 C 
ATOM     17  C   UNL d   1      23.246 -19.007  -0.453  0.00  0.00     0.001 C 
ATOM     18  C   UNL d   1      22.254 -18.057  -0.662  0.00  0.00     0.000 C 
ATOM     19  C   UNL d   1      22.593 -16.712  -0.680  0.00  0.00     0.001 C 
ATOM     20  C   UNL d   1      23.922 -16.325  -0.520  0.00  0.00     0.008 C 
ENDBRANCH  14  15
ENDBRANCH  13  14
ENDBRANCH  12  13
ENDBRANCH   1  12
BRANCH   1  21
ATOM     21  N   UNL d   1      25.902 -14.507  -2.294  0.00  0.00    -0.345 N 
ATOM     22  C   UNL d   1      25.180 -14.007  -3.342  0.00  0.00     0.240 C 
ATOM     23  O   UNL d   1      24.022 -14.420  -3.454  0.00  0.00    -0.271 OA
ATOM     24  H   UNL d   1      25.367 -15.169  -1.736  0.00  0.00     0.163 HD
BRANCH  22  25
ATOM     25  C   UNL d   1      25.835 -13.068  -4.406  0.00  0.00     0.174 C 
ATOM     26  C   UNL d   1      26.237 -11.753  -3.748  0.00  0.00     0.042 C 
BRANCH  25  27
ATOM     27  N   UNL d   1      27.005 -13.644  -5.070  0.00  0.00    -0.324 N 
ATOM     28  C   UNL d   1      27.078 -14.943  -5.500  0.00  0.00     0.361 C 
ATOM     29  O   UNL d   1      26.162 -15.758  -5.400  0.00  0.00    -0.238 OA
ATOM     30  H   UNL d   1      27.649 -13.015  -5.525  0.00  0.00     0.165 HD
BRANCH  28  31
ATOM     31  O   UNL d   1      28.275 -15.200  -6.105  0.00  0.00    -0.299 OA
BRANCH  31  32
ATOM     32  C   UNL d   1      29.344 -15.506  -5.173  0.00  0.00     0.219 C 
BRANCH  32  33
ATOM     33  C   UNL d   1      30.029 -16.841  -5.436  0.00  0.00    -0.034 A 
ATOM     34  C   UNL d   1      30.407 -17.248  -6.720  0.00  0.00     0.009 A 
ATOM     35  C   UNL d   1      30.900 -18.545  -6.959  0.00  0.00     0.001 A 
ATOM     36  C   UNL d   1      31.119 -19.426  -5.912  0.00  0.00     0.000 A 
ATOM     37  C   UNL d   1      30.770 -19.029  -4.642  0.00  0.00     0.001 A 
ATOM     38  C   UNL d   1      30.184 -17.780  -4.426  0.00  0.00     0.009 A 
ENDBRANCH  32  33
ENDBRANCH  31  32
ENDBRANCH  28  31
ENDBRANCH  25  27
ENDBRANCH  22  25
ENDBRANCH   1  21
TORSDOF 14
ENDMDL
MODEL 5
REMARK VINA RESULT:    -9.150      3.177      8.996
REMARK INTER + INTRA:         -16.943
REMARK INTER:                 -13.327
REMARK INTRA:                  -3.616
REMARK CONF_INDEPENDENT:        4.176
REMARK UNBOUND:                -3.616
REMARK  14 active torsions:
REMARK  status: ('A' for Active; 'I' for Inactive)
REMARK    1  A    between atoms: C_2  and  N_3 
REMARK    2  A    between atoms: C_2  and  C_14 
REMARK       I    between atoms: N_3  and  C_4 
REMARK    3  A    between atoms: C_4  and  O_6 
REMARK    4  A    between atoms: O_6  and  C_7 
REMARK    5  A    between atoms: C_7  and  C_8 
REMARK       I    between atoms: C_14  and  N_16 
REMARK    6  A    between atoms: C_17  and  N_16 
REMARK    7  A    between atoms: C_17  and  C_27 
REMARK    8  A    between atoms: C_17  and  C_18 
REMARK    9  A    between atoms: C_18  and  S_19 
REMARK   10  A    between atoms: S_19  and  C_20 
REMARK   11  A    between atoms: C_20  and  C_21 
REMARK   12  A    between atoms: C_27  and  O_29 
REMARK   13  A    between atoms: O_29  and  C_30 
REMARK   14  A    between atoms: C_30  and  C_31 
ROOT
ATOM      1  C   UNL d   1      25.011 -17.344  -1.403  0.00  0.00     0.193 C 
ENDROOT
BRANCH   1   2
ATOM      2  C   UNL d   1      26.119 -17.146  -0.351  0.00  0.00     0.282 C 
ATOM      3  O   UNL d   1      26.322 -17.888   0.601  0.00  0.00    -0.263 OA
BRANCH   2   4
ATOM      4  O   UNL d   1      26.827 -16.004  -0.584  0.00  0.00    -0.315 OA
BRANCH   4   5
ATOM      5  C   UNL d   1      27.826 -15.751   0.419  0.00  0.00     0.217 C 
BRANCH   5   6
ATOM      6  C   UNL d   1      29.156 -16.230  -0.097  0.00  0.00    -0.034 A 
ATOM      7  C   UNL d   1      30.332 -15.480   0.046  0.00  0.00     0.009 A 
ATOM      8  C   UNL d   1      31.531 -15.942  -0.503  0.00  0.00     0.001 A 
ATOM      9  C   UNL d   1      31.578 -17.186  -1.131  0.00  0.00     0.000 A 
ATOM     10  C   UNL d   1      30.415 -17.938  -1.278  0.00  0.00     0.001 A 
ATOM     11  C   UNL d   1      29.210 -17.452  -0.782  0.00  0.00     0.009 A 
ENDBRANCH   5   6
ENDBRANCH   4   5
ENDBRANCH   2   4
ENDBRANCH   1   2
BRANCH   1  12
ATOM     12  C   UNL d   1      23.960 -18.402  -1.022  0.00  0.00     0.109 C 
BRANCH  12  13
ATOM     13  S   UNL d   1      22.501 -17.626  -0.278  0.00  0.00    -0.162 SA
BRANCH  13  14
ATOM     14  C   UNL d   1      21.161 -18.557  -1.103  0.00  0.00     0.112 C 
BRANCH  14  15
ATOM     15  C   UNL d   1      20.295 -19.311  -0.104  0.00  0.00    -0.049 C 
ATOM     16  C   UNL d   1      20.598 -19.325   1.267  0.00  0.00     0.008 C 
ATOM     17  C   UNL d   1      19.880 -20.135   2.162  0.00  0.00     0.001 C 
ATOM     18  C   UNL d   1      18.743 -20.807   1.732  0.00  0.00     0.000 C 
ATOM     19  C   UNL d   1      18.393 -20.763   0.390  0.00  0.00     0.001 C 
ATOM     20  C   UNL d   1      19.196 -20.075  -0.518  0.00  0.00     0.008 C 
ENDBRANCH  14  15
ENDBRANCH  13  14
ENDBRANCH  12  13
ENDBRANCH   1  12
BRANCH   1  21
ATOM     21  N   UNL d   1      24.425 -16.061  -1.812  0.00  0.00    -0.345 N 
ATOM     22  C   UNL d   1      24.830 -15.171  -2.768  0.00  0.00     0.240 C 
ATOM     23  O   UNL d   1      24.262 -14.075  -2.769  0.00  0.00    -0.271 OA
ATOM     24  H   UNL d   1      23.692 -15.684  -1.217  0.00  0.00     0.163 HD
BRANCH  22  25
ATOM     25  C   UNL d   1      25.860 -15.575  -3.872  0.00  0.00     0.174 C 
ATOM     26  C   UNL d   1      25.810 -14.565  -5.012  0.00  0.00     0.042 C 
BRANCH  25  27
ATOM     27  N   UNL d   1      27.238 -15.680  -3.391  0.00  0.00    -0.324 N 
ATOM     28  C   UNL d   1      28.337 -15.686  -4.211  0.00  0.00     0.361 C 
ATOM     29  O   UNL d   1      28.287 -15.578  -5.435  0.00  0.00    -0.238 OA
ATOM     30  H   UNL d   1      27.429 -15.413  -2.437  0.00  0.00     0.165 HD
BRANCH  28  31
ATOM     31  O   UNL d   1      29.494 -15.769  -3.491  0.00  0.00    -0.299 OA
BRANCH  31  32
ATOM     32  C   UNL d   1      30.669 -16.019  -4.305  0.00  0.00     0.219 C 
BRANCH  32  33
ATOM     33  C   UNL d   1      30.595 -17.306  -5.116  0.00  0.00    -0.034 A 
ATOM     34  C   UNL d   1      30.458 -18.562  -4.515  0.00  0.00     0.009 A 
ATOM     35  C   UNL d   1      30.543 -19.746  -5.272  0.00  0.00     0.001 A 
ATOM     36  C   UNL d   1      30.668 -19.700  -6.652  0.00  0.00     0.000 A 
ATOM     37  C   UNL d   1      30.782 -18.470  -7.256  0.00  0.00     0.001 A 
ATOM     38  C   UNL d   1      30.802 -17.303  -6.489  0.00  0.00     0.009 A 
ENDBRANCH  32  33
ENDBRANCH  31  32
ENDBRANCH  28  31
ENDBRANCH  25  27
ENDBRANCH  22  25
ENDBRANCH   1  21
TORSDOF 14
ENDMDL
MODEL 6
REMARK VINA RESULT:    -8.962      2.388      8.544
REMARK INTER + INTRA:         -16.512
REMARK INTER:                 -13.139
REMARK INTRA:                  -3.374
REMARK CONF_INDEPENDENT:        4.176
REMARK UNBOUND:                -3.374
REMARK  14 active torsions:
REMARK  status: ('A' for Active; 'I' for Inactive)
REMARK    1  A    between atoms: C_2  and  N_3 
REMARK    2  A    between atoms: C_2  and  C_14 
REMARK       I    between atoms: N_3  and  C_4 
REMARK    3  A    between atoms: C_4  and  O_6 
REMARK    4  A    between atoms: O_6  and  C_7 
REMARK    5  A    between atoms: C_7  and  C_8 
REMARK       I    between atoms: C_14  and  N_16 
REMARK    6  A    between atoms: C_17  and  N_16 
REMARK    7  A    between atoms: C_17  and  C_27 
REMARK    8  A    between atoms: C_17  and  C_18 
REMARK    9  A    between atoms: C_18  and  S_19 
REMARK   10  A    between atoms: S_19  and  C_20 
REMARK   11  A    between atoms: C_20  and  C_21 
REMARK   12  A    between atoms: C_27  and  O_29 
REMARK   13  A    between atoms: O_29  and  C_30 
REMARK   14  A    between atoms: C_30  and  C_31 
ROOT
ATOM      1  C   UNL d   1      25.410 -15.391  -2.300  0.00  0.00     0.193 C 
ENDROOT
BRANCH   1   2
ATOM      2  C   UNL d   1      25.150 -14.823  -3.709  0.00  0.00     0.282 C 
ATOM      3  O   UNL d   1      24.228 -14.074  -4.002  0.00  0.00    -0.263 OA
BRANCH   2   4
ATOM      4  O   UNL d   1      26.054 -15.299  -4.612  0.00  0.00    -0.315 OA
BRANCH   4   5
ATOM      5  C   UNL d   1      26.960 -14.287  -5.083  0.00  0.00     0.217 C 
BRANCH   5   6
ATOM      6  C   UNL d   1      27.104 -13.236  -4.015  0.00  0.00    -0.034 A 
ATOM      7  C   UNL d   1      27.882 -13.438  -2.865  0.00  0.00     0.009 A 
ATOM      8  C   UNL d   1      27.937 -12.454  -1.874  0.00  0.00     0.001 A 
ATOM      9  C   UNL d   1      27.277 -11.238  -2.058  0.00  0.00     0.000 A 
ATOM     10  C   UNL d   1      26.503 -11.031  -3.197  0.00  0.00     0.001 A 
ATOM     11  C   UNL d   1      26.402 -12.032  -4.158  0.00  0.00     0.009 A 
ENDBRANCH   5   6
ENDBRANCH   4   5
ENDBRANCH   2   4
ENDBRANCH   1   2
BRANCH   1  12
ATOM     12  C   UNL d   1      24.158 -15.953  -1.603  0.00  0.00     0.109 C 
BRANCH  12  13
ATOM     13  S   UNL d   1      24.155 -17.764  -1.640  0.00  0.00    -0.162 SA
BRANCH  13  14
ATOM     14  C   UNL d   1      23.516 -18.139   0.032  0.00  0.00     0.112 C 
BRANCH  14  15
ATOM     15  C   UNL d   1      22.102 -18.702  -0.015  0.00  0.00    -0.049 C 
ATOM     16  C   UNL d   1      21.443 -18.935  -1.232  0.00  0.00     0.008 C 
ATOM     17  C   UNL d   1      20.093 -19.320  -1.267  0.00  0.00     0.001 C 
ATOM     18  C   UNL d   1      19.433 -19.643  -0.088  0.00  0.00     0.000 C 
ATOM     19  C   UNL d   1      20.082 -19.471   1.125  0.00  0.00     0.001 C 
ATOM     20  C   UNL d   1      21.375 -18.950   1.157  0.00  0.00     0.008 C 
ENDBRANCH  14  15
ENDBRANCH  13  14
ENDBRANCH  12  13
ENDBRANCH   1  12
BRANCH   1  21
ATOM     21  N   UNL d   1      26.545 -16.324  -2.300  0.00  0.00    -0.345 N 
ATOM     22  C   UNL d   1      27.338 -16.748  -1.270  0.00  0.00     0.240 C 
ATOM     23  O   UNL d   1      28.348 -17.386  -1.586  0.00  0.00    -0.271 OA
ATOM     24  H   UNL d   1      26.909 -16.601  -3.209  0.00  0.00     0.163 HD
BRANCH  22  25
ATOM     25  C   UNL d   1      26.915 -16.544   0.220  0.00  0.00     0.174 C 
ATOM     26  C   UNL d   1      27.040 -17.864   0.972  0.00  0.00     0.042 C 
BRANCH  25  27
ATOM     27  N   UNL d   1      27.689 -15.522   0.925  0.00  0.00    -0.324 N 
ATOM     28  C   UNL d   1      27.300 -14.213   1.042  0.00  0.00     0.361 C 
ATOM     29  O   UNL d   1      26.248 -13.760   0.593  0.00  0.00    -0.238 OA
ATOM     30  H   UNL d   1      28.353 -15.825   1.621  0.00  0.00     0.165 HD
BRANCH  28  31
ATOM     31  O   UNL d   1      28.201 -13.489   1.770  0.00  0.00    -0.299 OA
BRANCH  31  32
ATOM     32  C   UNL d   1      27.657 -12.956   3.005  0.00  0.00     0.219 C 
BRANCH  32  33
ATOM     33  C   UNL d   1      28.400 -13.411   4.254  0.00  0.00    -0.034 A 
ATOM     34  C   UNL d   1      27.911 -14.423   5.089  0.00  0.00     0.009 A 
ATOM     35  C   UNL d   1      28.536 -14.723   6.315  0.00  0.00     0.001 A 
ATOM     36  C   UNL d   1      29.712 -14.091   6.686  0.00  0.00     0.000 A 
ATOM     37  C   UNL d   1      30.213 -13.109   5.863  0.00  0.00     0.001 A 
ATOM     38  C   UNL d   1      29.532 -12.744   4.700  0.00  0.00     0.009 A 
ENDBRANCH  32  33
ENDBRANCH  31  32
ENDBRANCH  28  31
ENDBRANCH  25  27
ENDBRANCH  22  25
ENDBRANCH   1  21
TORSDOF 14
ENDMDL
MODEL 7
REMARK VINA RESULT:    -8.634      2.916      8.799
REMARK INTER + INTRA:         -16.671
REMARK INTER:                 -12.810
REMARK INTRA:                  -3.861
REMARK CONF_INDEPENDENT:        4.176
REMARK UNBOUND:                -3.861
REMARK  14 active torsions:
REMARK  status: ('A' for Active; 'I' for Inactive)
REMARK    1  A    between atoms: C_2  and  N_3 
REMARK    2  A    between atoms: C_2  and  C_14 
REMARK       I    between atoms: N_3  and  C_4 
REMARK    3  A    between atoms: C_4  and  O_6 
REMARK    4  A    between atoms: O_6  and  C_7 
REMARK    5  A    between atoms: C_7  and  C_8 
REMARK       I    between atoms: C_14  and  N_16 
REMARK    6  A    between atoms: C_17  and  N_16 
REMARK    7  A    between atoms: C_17  and  C_27 
REMARK    8  A    between atoms: C_17  and  C_18 
REMARK    9  A    between atoms: C_18  and  S_19 
REMARK   10  A    between atoms: S_19  and  C_20 
REMARK   11  A    between atoms: C_20  and  C_21 
REMARK   12  A    between atoms: C_27  and  O_29 
REMARK   13  A    between atoms: O_29  and  C_30 
REMARK   14  A    between atoms: C_30  and  C_31 
ROOT
ATOM      1  C   UNL d   1      27.430 -14.751  -0.636  0.00  0.00     0.193 C 
ENDROOT
BRANCH   1   2
ATOM      2  C   UNL d   1      27.883 -15.733  -1.733  0.00  0.00     0.282 C 
ATOM      3  O   UNL d   1      28.782 -15.520  -2.536  0.00  0.00    -0.263 OA
BRANCH   2   4
ATOM      4  O   UNL d   1      27.122 -16.864  -1.734  0.00  0.00    -0.315 OA
BRANCH   4   5
ATOM      5  C   UNL d   1      26.625 -17.205  -0.428  0.00  0.00     0.217 C 
BRANCH   5   6
ATOM      6  C   UNL d   1      25.129 -17.352  -0.508  0.00  0.00    -0.034 A 
ATOM      7  C   UNL d   1      24.291 -16.296  -0.893  0.00  0.00     0.009 A 
ATOM      8  C   UNL d   1      22.903 -16.466  -0.894  0.00  0.00     0.001 A 
ATOM      9  C   UNL d   1      22.351 -17.708  -0.582  0.00  0.00     0.000 A 
ATOM     10  C   UNL d   1      23.177 -18.762  -0.199  0.00  0.00     0.001 A 
ATOM     11  C   UNL d   1      24.555 -18.577  -0.142  0.00  0.00     0.009 A 
ENDBRANCH   5   6
ENDBRANCH   4   5
ENDBRANCH   2   4
ENDBRANCH   1   2
BRANCH   1  12
ATOM     12  C   UNL d   1      28.424 -14.601   0.529  0.00  0.00     0.109 C 
BRANCH  12  13
ATOM     13  S   UNL d   1      28.257 -12.979   1.318  0.00  0.00    -0.162 SA
BRANCH  13  14
ATOM     14  C   UNL d   1      27.023 -13.355   2.614  0.00  0.00     0.112 C 
BRANCH  14  15
ATOM     15  C   UNL d   1      27.675 -13.563   3.974  0.00  0.00    -0.049 C 
ATOM     16  C   UNL d   1      28.081 -14.835   4.408  0.00  0.00     0.008 C 
ATOM     17  C   UNL d   1      28.550 -15.043   5.715  0.00  0.00     0.001 C 
ATOM     18  C   UNL d   1      28.784 -13.957   6.550  0.00  0.00     0.000 C 
ATOM     19  C   UNL d   1      28.440 -12.683   6.122  0.00  0.00     0.001 C 
ATOM     20  C   UNL d   1      27.838 -12.504   4.877  0.00  0.00     0.008 C 
ENDBRANCH  14  15
ENDBRANCH  13  14
ENDBRANCH  12  13
ENDBRANCH   1  12
BRANCH   1  21
ATOM     21  N   UNL d   1      27.005 -13.467  -1.209  0.00  0.00    -0.345 N 
ATOM     22  C   UNL d   1      26.340 -13.197  -2.372  0.00  0.00     0.240 C 
ATOM     23  O   UNL d   1      26.284 -12.010  -2.706  0.00  0.00    -0.271 OA
ATOM     24  H   UNL d   1      27.373 -12.627  -0.769  0.00  0.00     0.163 HD
BRANCH  22  25
ATOM     25  C   UNL d   1      25.586 -14.319  -3.158  0.00  0.00     0.174 C 
ATOM     26  C   UNL d   1      24.448 -13.703  -3.962  0.00  0.00     0.042 C 
BRANCH  25  27
ATOM     27  N   UNL d   1      26.441 -15.091  -4.060  0.00  0.00    -0.324 N 
ATOM     28  C   UNL d   1      26.984 -14.591  -5.215  0.00  0.00     0.361 C 
ATOM     29  O   UNL d   1      26.836 -13.434  -5.605  0.00  0.00    -0.238 OA
ATOM     30  H   UNL d   1      26.921 -15.896  -3.686  0.00  0.00     0.165 HD
BRANCH  28  31
ATOM     31  O   UNL d   1      27.758 -15.523  -5.845  0.00  0.00    -0.299 OA
BRANCH  31  32
ATOM     32  C   UNL d   1      29.174 -15.395  -5.557  0.00  0.00     0.219 C 
BRANCH  32  33
ATOM     33  C   UNL d   1      29.948 -16.702  -5.674  0.00  0.00    -0.034 A 
ATOM     34  C   UNL d   1      30.488 -17.146  -6.886  0.00  0.00     0.009 A 
ATOM     35  C   UNL d   1      31.068 -18.424  -7.002  0.00  0.00     0.001 A 
ATOM     36  C   UNL d   1      31.210 -19.242  -5.893  0.00  0.00     0.000 A 
ATOM     37  C   UNL d   1      30.702 -18.808  -4.691  0.00  0.00     0.001 A 
ATOM     38  C   UNL d   1      30.035 -17.584  -4.605  0.00  0.00     0.009 A 
ENDBRANCH  32  33
ENDBRANCH  31  32
ENDBRANCH  28  31
ENDBRANCH  25  27
ENDBRANCH  22  25
ENDBRANCH   1  21
TORSDOF 14
ENDMDL
MODEL 8
REMARK VINA RESULT:    -8.593      2.597      8.131
REMARK INTER + INTRA:         -16.628
REMARK INTER:                 -12.769
REMARK INTRA:                  -3.859
REMARK CONF_INDEPENDENT:        4.176
REMARK UNBOUND:                -3.859
REMARK  14 active torsions:
REMARK  status: ('A' for Active; 'I' for Inactive)
REMARK    1  A    between atoms: C_2  and  N_3 
REMARK    2  A    between atoms: C_2  and  C_14 
REMARK       I    between atoms: N_3  and  C_4 
REMARK    3  A    between atoms: C_4  and  O_6 
REMARK    4  A    between atoms: O_6  and  C_7 
REMARK    5  A    between atoms: C_7  and  C_8 
REMARK       I    between atoms: C_14  and  N_16 
REMARK    6  A    between atoms: C_17  and  N_16 
REMARK    7  A    between atoms: C_17  and  C_27 
REMARK    8  A    between atoms: C_17  and  C_18 
REMARK    9  A    between atoms: C_18  and  S_19 
REMARK   10  A    between atoms: S_19  and  C_20 
REMARK   11  A    between atoms: C_20  and  C_21 
REMARK   12  A    between atoms: C_27  and  O_29 
REMARK   13  A    between atoms: O_29  and  C_30 
REMARK   14  A    between atoms: C_30  and  C_31 
ROOT
ATOM      1  C   UNL d   1      28.428 -14.775  -0.496  0.00  0.00     0.193 C 
ENDROOT
BRANCH   1   2
ATOM      2  C   UNL d   1      26.943 -15.184  -0.453  0.00  0.00     0.282 C 
ATOM      3  O   UNL d   1      26.058 -14.548   0.106  0.00  0.00    -0.263 OA
BRANCH   2   4
ATOM      4  O   UNL d   1      26.737 -16.377  -1.078  0.00  0.00    -0.315 OA
BRANCH   4   5
ATOM      5  C   UNL d   1      26.247 -17.397  -0.190  0.00  0.00     0.217 C 
BRANCH   5   6
ATOM      6  C   UNL d   1      24.761 -17.533  -0.390  0.00  0.00    -0.034 A 
ATOM      7  C   UNL d   1      23.947 -16.444  -0.736  0.00  0.00     0.009 A 
ATOM      8  C   UNL d   1      22.565 -16.611  -0.852  0.00  0.00     0.001 A 
ATOM      9  C   UNL d   1      21.997 -17.876  -0.696  0.00  0.00     0.000 A 
ATOM     10  C   UNL d   1      22.798 -18.962  -0.352  0.00  0.00     0.001 A 
ATOM     11  C   UNL d   1      24.168 -18.785  -0.181  0.00  0.00     0.009 A 
ENDBRANCH   5   6
ENDBRANCH   4   5
ENDBRANCH   2   4
ENDBRANCH   1   2
BRANCH   1  12
ATOM     12  C   UNL d   1      28.951 -14.151   0.810  0.00  0.00     0.109 C 
BRANCH  12  13
ATOM     13  S   UNL d   1      28.187 -12.536   1.107  0.00  0.00    -0.162 SA
BRANCH  13  14
ATOM     14  C   UNL d   1      26.962 -12.969   2.395  0.00  0.00     0.112 C 
BRANCH  14  15
ATOM     15  C   UNL d   1      27.625 -13.254   3.735  0.00  0.00    -0.049 C 
ATOM     16  C   UNL d   1      28.023 -14.550   4.096  0.00  0.00     0.008 C 
ATOM     17  C   UNL d   1      28.504 -14.831   5.386  0.00  0.00     0.001 C 
ATOM     18  C   UNL d   1      28.756 -13.793   6.274  0.00  0.00     0.000 C 
ATOM     19  C   UNL d   1      28.419 -12.496   5.918  0.00  0.00     0.001 C 
ATOM     20  C   UNL d   1      27.807 -12.245   4.690  0.00  0.00     0.008 C 
ENDBRANCH  14  15
ENDBRANCH  13  14
ENDBRANCH  12  13
ENDBRANCH   1  12
BRANCH   1  21
ATOM     21  N   UNL d   1      29.270 -15.869  -0.998  0.00  0.00    -0.345 N 
ATOM     22  C   UNL d   1      29.382 -16.390  -2.257  0.00  0.00     0.240 C 
ATOM     23  O   UNL d   1      30.024 -17.440  -2.358  0.00  0.00    -0.271 OA
ATOM     24  H   UNL d   1      29.745 -16.436  -0.300  0.00  0.00     0.163 HD
BRANCH  22  25
ATOM     25  C   UNL d   1      28.836 -15.625  -3.506  0.00  0.00     0.174 C 
ATOM     26  C   UNL d   1      29.333 -16.302  -4.777  0.00  0.00     0.042 C 
BRANCH  25  27
ATOM     27  N   UNL d   1      27.376 -15.533  -3.556  0.00  0.00    -0.324 N 
ATOM     28  C   UNL d   1      26.664 -15.286  -4.701  0.00  0.00     0.361 C 
ATOM     29  O   UNL d   1      27.170 -15.142  -5.813  0.00  0.00    -0.238 OA
ATOM     30  H   UNL d   1      26.847 -15.978  -2.822  0.00  0.00     0.165 HD
BRANCH  28  31
ATOM     31  O   UNL d   1      25.320 -15.278  -4.460  0.00  0.00    -0.299 OA
BRANCH  31  32
ATOM     32  C   UNL d   1      24.920 -14.336  -3.432  0.00  0.00     0.219 C 
BRANCH  32  33
ATOM     33  C   UNL d   1      25.637 -12.995  -3.511  0.00  0.00    -0.034 A 
ATOM     34  C   UNL d   1      26.316 -12.443  -2.418  0.00  0.00     0.009 A 
ATOM     35  C   UNL d   1      26.841 -11.138  -2.469  0.00  0.00     0.001 A 
ATOM     36  C   UNL d   1      26.789 -10.396  -3.638  0.00  0.00     0.000 A 
ATOM     37  C   UNL d   1      26.143 -10.936  -4.726  0.00  0.00     0.001 A 
ATOM     38  C   UNL d   1      25.532 -12.189  -4.637  0.00  0.00     0.009 A 
ENDBRANCH  32  33
ENDBRANCH  31  32
ENDBRANCH  28  31
ENDBRANCH  25  27
ENDBRANCH  22  25
ENDBRANCH   1  21
TORSDOF 14
ENDMDL
MODEL 9
REMARK VINA RESULT:    -7.730      3.068      8.193
REMARK INTER + INTRA:         -16.375
REMARK INTER:                 -11.906
REMARK INTRA:                  -4.469
REMARK CONF_INDEPENDENT:        4.176
REMARK UNBOUND:                -4.469
REMARK  14 active torsions:
REMARK  status: ('A' for Active; 'I' for Inactive)
REMARK    1  A    between atoms: C_2  and  N_3 
REMARK    2  A    between atoms: C_2  and  C_14 
REMARK       I    between atoms: N_3  and  C_4 
REMARK    3  A    between atoms: C_4  and  O_6 
REMARK    4  A    between atoms: O_6  and  C_7 
REMARK    5  A    between atoms: C_7  and  C_8 
REMARK       I    between atoms: C_14  and  N_16 
REMARK    6  A    between atoms: C_17  and  N_16 
REMARK    7  A    between atoms: C_17  and  C_27 
REMARK    8  A    between atoms: C_17  and  C_18 
REMARK    9  A    between atoms: C_18  and  S_19 
REMARK   10  A    between atoms: S_19  and  C_20 
REMARK   11  A    between atoms: C_20  and  C_21 
REMARK   12  A    between atoms: C_27  and  O_29 
REMARK   13  A    between atoms: O_29  and  C_30 
REMARK   14  A    between atoms: C_30  and  C_31 
ROOT
ATOM      1  C   UNL d   1      28.652 -14.817  -1.005  0.00  0.00     0.193 C 
ENDROOT
BRANCH   1   2
ATOM      2  C   UNL d   1      28.935 -16.328  -0.894  0.00  0.00     0.282 C 
ATOM      3  O   UNL d   1      30.030 -16.819  -0.648  0.00  0.00    -0.263 OA
BRANCH   2   4
ATOM      4  O   UNL d   1      27.818 -17.064  -1.154  0.00  0.00    -0.315 OA
BRANCH   4   5
ATOM      5  C   UNL d   1      27.116 -17.454   0.039  0.00  0.00     0.217 C 
BRANCH   5   6
ATOM      6  C   UNL d   1      25.639 -17.468  -0.256  0.00  0.00    -0.034 A 
ATOM      7  C   UNL d   1      24.822 -18.563   0.058  0.00  0.00     0.009 A 
ATOM      8  C   UNL d   1      23.468 -18.551  -0.290  0.00  0.00     0.001 A 
ATOM      9  C   UNL d   1      22.909 -17.419  -0.885  0.00  0.00     0.000 A 
ATOM     10  C   UNL d   1      23.715 -16.328  -1.200  0.00  0.00     0.001 A 
ATOM     11  C   UNL d   1      25.074 -16.362  -0.906  0.00  0.00     0.009 A 
ENDBRANCH   5   6
ENDBRANCH   4   5
ENDBRANCH   2   4
ENDBRANCH   1   2
BRANCH   1  12
ATOM     12  C   UNL d   1      28.535 -14.094   0.349  0.00  0.00     0.109 C 
BRANCH  12  13
ATOM     13  S   UNL d   1      26.799 -13.897   0.829  0.00  0.00    -0.162 SA
BRANCH  13  14
ATOM     14  C   UNL d   1      26.947 -12.616   2.126  0.00  0.00     0.112 C 
BRANCH  14  15
ATOM     15  C   UNL d   1      27.530 -13.180   3.415  0.00  0.00    -0.049 C 
ATOM     16  C   UNL d   1      27.780 -14.552   3.570  0.00  0.00     0.008 C 
ATOM     17  C   UNL d   1      28.184 -15.083   4.806  0.00  0.00     0.001 C 
ATOM     18  C   UNL d   1      28.510 -14.232   5.854  0.00  0.00     0.000 C 
ATOM     19  C   UNL d   1      28.321 -12.866   5.705  0.00  0.00     0.001 C 
ATOM     20  C   UNL d   1      27.781 -12.360   4.524  0.00  0.00     0.008 C 
ENDBRANCH  14  15
ENDBRANCH  13  14
ENDBRANCH  12  13
ENDBRANCH   1  12
BRANCH   1  21
ATOM     21  N   UNL d   1      29.582 -14.165  -1.936  0.00  0.00    -0.345 N 
ATOM     22  C   UNL d   1      29.925 -14.495  -3.217  0.00  0.00     0.240 C 
ATOM     23  O   UNL d   1      30.883 -13.885  -3.701  0.00  0.00    -0.271 OA
ATOM     24  H   UNL d   1      30.183 -13.441  -1.548  0.00  0.00     0.163 HD
BRANCH  22  25
ATOM     25  C   UNL d   1      29.066 -15.496  -4.057  0.00  0.00     0.174 C 
ATOM     26  C   UNL d   1      29.650 -16.898  -3.935  0.00  0.00     0.042 C 
BRANCH  25  27
ATOM     27  N   UNL d   1      27.654 -15.535  -3.675  0.00  0.00    -0.324 N 
ATOM     28  C   UNL d   1      26.617 -15.371  -4.557  0.00  0.00     0.361 C 
ATOM     29  O   UNL d   1      26.759 -15.199  -5.766  0.00  0.00    -0.238 OA
ATOM     30  H   UNL d   1      27.406 -16.015  -2.823  0.00  0.00     0.165 HD
BRANCH  28  31
ATOM     31  O   UNL d   1      25.409 -15.479  -3.930  0.00  0.00    -0.299 OA
BRANCH  31  32
ATOM     32  C   UNL d   1      24.848 -14.205  -3.525  0.00  0.00     0.219 C 
BRANCH  32  33
ATOM     33  C   UNL d   1      25.837 -13.048  -3.583  0.00  0.00    -0.034 A 
ATOM     34  C   UNL d   1      26.618 -12.675  -2.483  0.00  0.00     0.009 A 
ATOM     35  C   UNL d   1      27.412 -11.513  -2.513  0.00  0.00     0.001 A 
ATOM     36  C   UNL d   1      27.521 -10.756  -3.668  0.00  0.00     0.000 A 
ATOM     37  C   UNL d   1      26.774 -11.125  -4.763  0.00  0.00     0.001 A 
ATOM     38  C   UNL d   1      25.908 -12.218  -4.694  0.00  0.00     0.009 A 
ENDBRANCH  32  33
ENDBRANCH  31  32
ENDBRANCH  28  31
ENDBRANCH  25  27
ENDBRANCH  22  25
ENDBRANCH   1  21
TORSDOF 14
ENDMDL
