MODEL 1
REMARK VINA RESULT:   -31.541      0.000      0.000
REMARK INTER + INTRA:         -33.284
REMARK INTER:                 -32.734
REMARK INTRA:                  -0.549
REMARK CONF_INDEPENDENT:        1.193
REMARK UNBOUND:                -0.549
REMARK  4 active torsions:
REMARK  status: ('A' for Active; 'I' for Inactive)
REMARK    1  A    between atoms: C_2  and  C_4 
REMARK    2  A    between atoms: C_8  and  N_9 
REMARK       I    between atoms: N_9  and  C_10 
REMARK       I    between atoms: C_10  and  N_12 
REMARK    3  A    between atoms: N_12  and  N_13 
REMARK    4  A    between atoms: N_13  and  C_14 
ROOT
ATOM      1  N   UNL d   1      22.424 -17.054  -0.879  0.00  0.00    -0.308 N 
ATOM      2  C   UNL d   1      21.714 -18.217  -1.175  0.00  0.00     0.335 C 
ATOM      3  O   UNL d   1      22.207 -19.331  -1.387  0.00  0.00    -0.246 OA
ATOM      4  N   UNL d   1      20.331 -18.075  -1.274  0.00  0.00    -0.268 N 
ATOM      5  H   UNL d   1      21.901 -16.225  -0.633  0.00  0.00     0.170 HD
ATOM      6  H   UNL d   1      19.858 -17.312  -0.809  0.00  0.00     0.185 HD
ENDROOT
BRANCH   1   7
ATOM      7  C   UNL d   1      23.852 -16.971  -0.781  0.00  0.00     0.037 A 
ATOM      8  C   UNL d   1      24.569 -17.736   0.154  0.00  0.00     0.029 A 
ATOM      9  C   UNL d   1      25.979 -17.673   0.205  0.00  0.00     0.003 A 
ATOM     10  C   UNL d   1      26.687 -16.835  -0.659  0.00  0.00     0.015 A 
ATOM     11  C   UNL d   1      25.987 -16.101  -1.609  0.00  0.00     0.011 A 
ATOM     12  C   UNL d   1      24.593 -16.153  -1.638  0.00  0.00     0.044 A 
BRANCH  11  13
ATOM     13  C   UNL d   1      26.707 -15.386  -2.693  0.00  0.00     0.155 C 
ATOM     14  C   UNL d   1      25.926 -14.863  -3.872  0.00  0.00     0.096 C 
ATOM     15  O   UNL d   1      27.929 -15.252  -2.608  0.00  0.00    -0.293 OA
ENDBRANCH  11  13
ENDBRANCH   1   7
BRANCH   4  16
ATOM     16  N   UNL d   1      19.638 -19.324  -1.166  0.00  0.00    -0.202 NA
ATOM     17  H   UNL d   1      18.780 -19.321  -1.738  0.00  0.00     0.153 HD
BRANCH  16  18
ATOM     18  C   UNL d   1      19.414 -19.867   0.118  0.00  0.00     0.027 A 
ATOM     19  C   UNL d   1      20.268 -19.466   1.163  0.00  0.00     0.025 A 
ATOM     20  C   UNL d   1      20.112 -19.957   2.464  0.00  0.00     0.002 A 
ATOM     21  C   UNL d   1      19.065 -20.825   2.754  0.00  0.00     0.000 A 
ATOM     22  C   UNL d   1      18.210 -21.234   1.732  0.00  0.00     0.002 A 
ATOM     23  C   UNL d   1      18.391 -20.768   0.423  0.00  0.00     0.025 A 
ENDBRANCH  16  18
ENDBRANCH   4  16
TORSDOF 4
ENDMDL
MODEL 2
REMARK VINA RESULT:   -30.865      1.264      1.312
REMARK INTER + INTRA:         -32.827
REMARK INTER:                 -32.058
REMARK INTRA:                  -0.769
REMARK CONF_INDEPENDENT:        1.193
REMARK UNBOUND:                -0.769
REMARK  4 active torsions:
REMARK  status: ('A' for Active; 'I' for Inactive)
REMARK    1  A    between atoms: C_2  and  C_4 
REMARK    2  A    between atoms: C_8  and  N_9 
REMARK       I    between atoms: N_9  and  C_10 
REMARK       I    between atoms: C_10  and  N_12 
REMARK    3  A    between atoms: N_12  and  N_13 
REMARK    4  A    between atoms: N_13  and  C_14 
ROOT
ATOM      1  N   UNL d   1      23.347 -18.267  -1.871  0.00  0.00    -0.308 N 
ATOM      2  C   UNL d   1      22.137 -18.372  -1.186  0.00  0.00     0.335 C 
ATOM      3  O   UNL d   1      21.816 -17.728  -0.182  0.00  0.00    -0.246 OA
ATOM      4  N   UNL d   1      21.245 -19.325  -1.676  0.00  0.00    -0.268 N 
ATOM      5  H   UNL d   1      23.454 -18.781  -2.735  0.00  0.00     0.170 HD
ATOM      6  H   UNL d   1      21.297 -19.631  -2.638  0.00  0.00     0.185 HD
ENDROOT
BRANCH   1   7
ATOM      7  C   UNL d   1      24.419 -17.389  -1.504  0.00  0.00     0.037 A 
ATOM      8  C   UNL d   1      25.343 -17.736  -0.504  0.00  0.00     0.029 A 
ATOM      9  C   UNL d   1      26.418 -16.876  -0.188  0.00  0.00     0.003 A 
ATOM     10  C   UNL d   1      26.574 -15.656  -0.849  0.00  0.00     0.015 A 
ATOM     11  C   UNL d   1      25.683 -15.321  -1.863  0.00  0.00     0.011 A 
ATOM     12  C   UNL d   1      24.612 -16.167  -2.153  0.00  0.00     0.044 A 
BRANCH  11  13
ATOM     13  C   UNL d   1      25.946 -14.157  -2.745  0.00  0.00     0.155 C 
ATOM     14  C   UNL d   1      26.780 -13.013  -2.223  0.00  0.00     0.096 C 
ATOM     15  O   UNL d   1      25.462 -14.148  -3.879  0.00  0.00    -0.293 OA
ENDBRANCH  11  13
ENDBRANCH   1   7
BRANCH   4  16
ATOM     16  N   UNL d   1      19.903 -19.110  -1.220  0.00  0.00    -0.202 NA
ATOM     17  H   UNL d   1      19.660 -18.108  -1.246  0.00  0.00     0.153 HD
BRANCH  16  18
ATOM     18  C   UNL d   1      19.489 -19.723  -0.018  0.00  0.00     0.027 A 
ATOM     19  C   UNL d   1      20.178 -19.391   1.164  0.00  0.00     0.025 A 
ATOM     20  C   UNL d   1      19.828 -19.955   2.397  0.00  0.00     0.002 A 
ATOM     21  C   UNL d   1      18.747 -20.826   2.477  0.00  0.00     0.000 A 
ATOM     22  C   UNL d   1      18.054 -21.167   1.317  0.00  0.00     0.002 A 
ATOM     23  C   UNL d   1      18.429 -20.628   0.079  0.00  0.00     0.025 A 
ENDBRANCH  16  18
ENDBRANCH   4  16
TORSDOF 4
ENDMDL
MODEL 3
REMARK VINA RESULT:   -29.524      1.557      2.525
REMARK INTER + INTRA:         -31.858
REMARK INTER:                 -30.717
REMARK INTRA:                  -1.141
REMARK CONF_INDEPENDENT:        1.193
REMARK UNBOUND:                -1.141
REMARK  4 active torsions:
REMARK  status: ('A' for Active; 'I' for Inactive)
REMARK    1  A    between atoms: C_2  and  C_4 
REMARK    2  A    between atoms: C_8  and  N_9 
REMARK       I    between atoms: N_9  and  C_10 
REMARK       I    between atoms: C_10  and  N_12 
REMARK    3  A    between atoms: N_12  and  N_13 
REMARK    4  A    between atoms: N_13  and  C_14 
ROOT
ATOM      1  N   UNL d   1      23.292 -17.960  -1.895  0.00  0.00    -0.308 N 
ATOM      2  C   UNL d   1      22.147 -18.010  -1.102  0.00  0.00     0.335 C 
ATOM      3  O   UNL d   1      21.930 -17.320  -0.100  0.00  0.00    -0.246 OA
ATOM      4  N   UNL d   1      21.196 -18.960  -1.471  0.00  0.00    -0.268 N 
ATOM      5  H   UNL d   1      23.310 -18.509  -2.744  0.00  0.00     0.170 HD
ATOM      6  H   UNL d   1      21.155 -19.305  -2.420  0.00  0.00     0.185 HD
ENDROOT
BRANCH   1   7
ATOM      7  C   UNL d   1      24.410 -17.093  -1.662  0.00  0.00     0.037 A 
ATOM      8  C   UNL d   1      24.396 -15.750  -2.072  0.00  0.00     0.029 A 
ATOM      9  C   UNL d   1      25.490 -14.900  -1.793  0.00  0.00     0.003 A 
ATOM     10  C   UNL d   1      26.615 -15.384  -1.122  0.00  0.00     0.015 A 
ATOM     11  C   UNL d   1      26.622 -16.703  -0.683  0.00  0.00     0.011 A 
ATOM     12  C   UNL d   1      25.547 -17.540  -0.982  0.00  0.00     0.044 A 
BRANCH  11  13
ATOM     13  C   UNL d   1      27.685 -17.189   0.232  0.00  0.00     0.155 C 
ATOM     14  C   UNL d   1      29.130 -16.961  -0.134  0.00  0.00     0.096 C 
ATOM     15  O   UNL d   1      27.357 -17.781   1.263  0.00  0.00    -0.293 OA
ENDBRANCH  11  13
ENDBRANCH   1   7
BRANCH   4  16
ATOM     16  N   UNL d   1      19.905 -18.697  -0.906  0.00  0.00    -0.202 NA
ATOM     17  H   UNL d   1      19.798 -17.696  -0.681  0.00  0.00     0.153 HD
BRANCH  16  18
ATOM     18  C   UNL d   1      19.439 -19.526   0.137  0.00  0.00     0.027 A 
ATOM     19  C   UNL d   1      18.406 -20.437  -0.154  0.00  0.00     0.025 A 
ATOM     20  C   UNL d   1      17.890 -21.294   0.825  0.00  0.00     0.002 A 
ATOM     21  C   UNL d   1      18.433 -21.288   2.105  0.00  0.00     0.000 A 
ATOM     22  C   UNL d   1      19.455 -20.392   2.412  0.00  0.00     0.002 A 
ATOM     23  C   UNL d   1      19.946 -19.511   1.439  0.00  0.00     0.025 A 
ENDBRANCH  16  18
ENDBRANCH   4  16
TORSDOF 4
ENDMDL
