MODEL 1
REMARK VINA RESULT:   -10.197      0.000      0.000
REMARK INTER + INTRA:         -15.421
REMARK INTER:                 -13.776
REMARK INTRA:                  -1.644
REMARK CONF_INDEPENDENT:        3.580
REMARK UNBOUND:                -1.644
REMARK  12 active torsions:
REMARK  status: ('A' for Active; 'I' for Inactive)
REMARK    1  A    between atoms: C_2  and  C_5 
REMARK    2  A    between atoms: C_5  and  C_6 
REMARK    3  A    between atoms: C_6  and  C_9 
REMARK    4  A    between atoms: C_12  and  O_13 
REMARK    5  A    between atoms: O_13  and  C_14 
REMARK    6  A    between atoms: C_14  and  C_15 
REMARK       I    between atoms: C_15  and  N_17 
REMARK    7  A    between atoms: N_17  and  N_18 
REMARK    8  A    between atoms: C_19  and  C_20 
REMARK    9  A    between atoms: C_24  and  O_25 
REMARK   10  A    between atoms: O_25  and  C_26 
REMARK   11  A    between atoms: C_26  and  C_28 
REMARK   12  A    between atoms: C_31  and  N_32 
ROOT
ATOM      1  C   UNL d   1      30.374 -16.001  -6.477  0.00  0.00     0.261 C 
ATOM      2  O   UNL d   1      30.309 -16.549  -5.374  0.00  0.00    -0.269 OA
ATOM      3  N   UNL d   1      29.306 -15.291  -7.045  0.00  0.00    -0.246 N 
ATOM      4  H   UNL d   1      29.376 -14.826  -7.942  0.00  0.00     0.192 HD
ENDROOT
BRANCH   3   5
ATOM      5  N   UNL d   1      28.133 -15.209  -6.327  0.00  0.00    -0.184 NA
ATOM      6  C   UNL d   1      28.172 -14.883  -5.073  0.00  0.00     0.150 C 
BRANCH   6   7
ATOM      7  C   UNL d   1      26.933 -14.861  -4.243  0.00  0.00    -0.014 A 
ATOM      8  C   UNL d   1      25.771 -14.197  -4.630  0.00  0.00     0.013 A 
ATOM      9  C   UNL d   1      24.733 -14.023  -3.699  0.00  0.00     0.004 A 
ATOM     10  C   UNL d   1      24.831 -14.554  -2.400  0.00  0.00     0.037 A 
ATOM     11  C   UNL d   1      25.985 -15.251  -2.030  0.00  0.00     0.080 A 
ATOM     12  C   UNL d   1      27.008 -15.413  -2.969  0.00  0.00     0.050 A 
BRANCH  11  13
ATOM     13  O   UNL d   1      26.088 -15.726  -0.688  0.00  0.00    -0.275 OA
BRANCH  13  14
ATOM     14  C   UNL d   1      25.832 -17.068  -0.400  0.00  0.00     0.298 C 
ATOM     15  O   UNL d   1      26.618 -17.951  -0.124  0.00  0.00    -0.259 OA
BRANCH  14  16
ATOM     16  C   UNL d   1      24.411 -17.446  -0.422  0.00  0.00     0.040 A 
ATOM     17  C   UNL d   1      24.137 -18.825  -0.521  0.00  0.00     0.020 A 
ATOM     18  C   UNL d   1      22.856 -19.270  -0.835  0.00  0.00     0.037 A 
ATOM     19  C   UNL d   1      21.829 -18.331  -0.965  0.00  0.00     0.102 A 
ATOM     20  C   UNL d   1      22.098 -16.953  -0.867  0.00  0.00     0.037 A 
ATOM     21  C   UNL d   1      23.398 -16.508  -0.601  0.00  0.00     0.020 A 
BRANCH  19  22
ATOM     22  N   UNL d   1      20.448 -18.797  -1.140  0.00  0.00    -0.116 N 
ATOM     23  O   UNL d   1      19.533 -17.997  -0.895  0.00  0.00    -0.532 OA
ATOM     24  O   UNL d   1      20.280 -19.951  -1.559  0.00  0.00    -0.532 OA
ENDBRANCH  19  22
ENDBRANCH  14  16
ENDBRANCH  13  14
ENDBRANCH  11  13
ENDBRANCH   6   7
ENDBRANCH   3   5
BRANCH   1  25
ATOM     25  C   UNL d   1      31.649 -16.074  -7.333  0.00  0.00     0.280 C 
BRANCH  25  26
ATOM     26  O   UNL d   1      31.862 -17.428  -7.746  0.00  0.00    -0.342 OA
BRANCH  26  27
ATOM     27  C   UNL d   1      31.903 -18.387  -6.778  0.00  0.00     0.069 A 
ATOM     28  C   UNL d   1      31.133 -19.525  -7.019  0.00  0.00     0.037 A 
ATOM     29  C   UNL d   1      31.050 -20.532  -6.064  0.00  0.00     0.011 A 
ATOM     30  C   UNL d   1      31.825 -20.474  -4.896  0.00  0.00    -0.050 A 
ATOM     31  C   UNL d   1      32.603 -19.329  -4.676  0.00  0.00     0.011 A 
ATOM     32  C   UNL d   1      32.636 -18.295  -5.602  0.00  0.00     0.037 A 
BRANCH  30  33
ATOM     33  C   UNL d   1      31.889 -21.635  -3.893  0.00  0.00    -0.020 C 
ATOM     34  C   UNL d   1      32.278 -21.086  -2.510  0.00  0.00     0.020 C 
ATOM     35  C   UNL d   1      33.007 -22.588  -4.357  0.00  0.00     0.020 C 
BRANCH  33  36
ATOM     36  C   UNL d   1      30.466 -22.319  -3.884  0.00  0.00     0.022 C 
BRANCH  36  37
ATOM     37  C   UNL d   1      30.299 -23.726  -3.227  0.00  0.00    -0.050 C 
ATOM     38  C   UNL d   1      28.895 -23.849  -2.607  0.00  0.00     0.014 C 
ATOM     39  C   UNL d   1      31.285 -23.956  -2.077  0.00  0.00     0.014 C 
ATOM     40  C   UNL d   1      30.407 -24.864  -4.249  0.00  0.00     0.014 C 
ENDBRANCH  36  37
ENDBRANCH  33  36
ENDBRANCH  30  33
ENDBRANCH  26  27
ENDBRANCH  25  26
ENDBRANCH   1  25
TORSDOF 12
ENDMDL
MODEL 2
REMARK VINA RESULT:    -9.559      7.747     11.284
REMARK INTER + INTRA:         -14.999
REMARK INTER:                 -13.139
REMARK INTRA:                  -1.860
REMARK CONF_INDEPENDENT:        3.580
REMARK UNBOUND:                -1.860
REMARK  12 active torsions:
REMARK  status: ('A' for Active; 'I' for Inactive)
REMARK    1  A    between atoms: C_2  and  C_5 
REMARK    2  A    between atoms: C_5  and  C_6 
REMARK    3  A    between atoms: C_6  and  C_9 
REMARK    4  A    between atoms: C_12  and  O_13 
REMARK    5  A    between atoms: O_13  and  C_14 
REMARK    6  A    between atoms: C_14  and  C_15 
REMARK       I    between atoms: C_15  and  N_17 
REMARK    7  A    between atoms: N_17  and  N_18 
REMARK    8  A    between atoms: C_19  and  C_20 
REMARK    9  A    between atoms: C_24  and  O_25 
REMARK   10  A    between atoms: O_25  and  C_26 
REMARK   11  A    between atoms: C_26  and  C_28 
REMARK   12  A    between atoms: C_31  and  N_32 
ROOT
ATOM      1  C   UNL d   1      28.181 -13.390   3.123  0.00  0.00     0.261 C 
ATOM      2  O   UNL d   1      27.191 -12.734   2.792  0.00  0.00    -0.269 OA
ATOM      3  N   UNL d   1      28.420 -14.697   2.674  0.00  0.00    -0.246 N 
ATOM      4  H   UNL d   1      29.248 -15.220   2.934  0.00  0.00     0.192 HD
ENDROOT
BRANCH   3   5
ATOM      5  N   UNL d   1      27.499 -15.264   1.821  0.00  0.00    -0.184 NA
ATOM      6  C   UNL d   1      27.802 -15.431   0.572  0.00  0.00     0.150 C 
BRANCH   6   7
ATOM      7  C   UNL d   1      26.804 -15.967  -0.399  0.00  0.00    -0.014 A 
ATOM      8  C   UNL d   1      26.798 -15.625  -1.748  0.00  0.00     0.013 A 
ATOM      9  C   UNL d   1      25.696 -15.980  -2.546  0.00  0.00     0.004 A 
ATOM     10  C   UNL d   1      24.625 -16.719  -2.011  0.00  0.00     0.037 A 
ATOM     11  C   UNL d   1      24.656 -17.091  -0.663  0.00  0.00     0.080 A 
ATOM     12  C   UNL d   1      25.758 -16.727   0.114  0.00  0.00     0.050 A 
BRANCH  11  13
ATOM     13  O   UNL d   1      23.530 -17.786  -0.128  0.00  0.00    -0.275 OA
BRANCH  13  14
ATOM     14  C   UNL d   1      22.719 -18.553  -0.967  0.00  0.00     0.298 C 
ATOM     15  O   UNL d   1      22.948 -18.954  -2.089  0.00  0.00    -0.259 OA
BRANCH  14  16
ATOM     16  C   UNL d   1      21.420 -18.934  -0.393  0.00  0.00     0.040 A 
ATOM     17  C   UNL d   1      21.343 -18.950   1.014  0.00  0.00     0.020 A 
ATOM     18  C   UNL d   1      20.271 -19.563   1.657  0.00  0.00     0.037 A 
ATOM     19  C   UNL d   1      19.230 -20.084   0.884  0.00  0.00     0.102 A 
ATOM     20  C   UNL d   1      19.302 -20.071  -0.522  0.00  0.00     0.037 A 
ATOM     21  C   UNL d   1      20.408 -19.499  -1.163  0.00  0.00     0.020 A 
BRANCH  19  22
ATOM     22  N   UNL d   1      18.024 -20.590   1.551  0.00  0.00    -0.116 N 
ATOM     23  O   UNL d   1      17.472 -21.588   1.066  0.00  0.00    -0.532 OA
ATOM     24  O   UNL d   1      17.653 -20.012   2.581  0.00  0.00    -0.532 OA
ENDBRANCH  19  22
ENDBRANCH  14  16
ENDBRANCH  13  14
ENDBRANCH  11  13
ENDBRANCH   6   7
ENDBRANCH   3   5
BRANCH   1  25
ATOM     25  C   UNL d   1      29.234 -12.819   4.086  0.00  0.00     0.280 C 
BRANCH  25  26
ATOM     26  O   UNL d   1      29.758 -13.879   4.894  0.00  0.00    -0.342 OA
BRANCH  26  27
ATOM     27  C   UNL d   1      29.592 -13.789   6.244  0.00  0.00     0.069 A 
ATOM     28  C   UNL d   1      28.526 -12.996   6.671  0.00  0.00     0.037 A 
ATOM     29  C   UNL d   1      28.311 -12.781   8.029  0.00  0.00     0.011 A 
ATOM     30  C   UNL d   1      29.088 -13.446   8.988  0.00  0.00    -0.050 A 
ATOM     31  C   UNL d   1      30.146 -14.249   8.541  0.00  0.00     0.011 A 
ATOM     32  C   UNL d   1      30.400 -14.412   7.186  0.00  0.00     0.037 A 
BRANCH  30  33
ATOM     33  C   UNL d   1      28.785 -13.366  10.492  0.00  0.00    -0.020 C 
ATOM     34  C   UNL d   1      28.217 -14.715  10.964  0.00  0.00     0.020 C 
ATOM     35  C   UNL d   1      27.693 -12.296  10.689  0.00  0.00     0.020 C 
BRANCH  33  36
ATOM     36  C   UNL d   1      30.137 -13.000  11.219  0.00  0.00     0.022 C 
BRANCH  36  37
ATOM     37  C   UNL d   1      30.735 -11.567  11.045  0.00  0.00    -0.050 C 
ATOM     38  C   UNL d   1      32.272 -11.639  11.042  0.00  0.00     0.014 C 
ATOM     39  C   UNL d   1      30.363 -10.634  12.203  0.00  0.00     0.014 C 
ATOM     40  C   UNL d   1      30.341 -10.928   9.708  0.00  0.00     0.014 C 
ENDBRANCH  36  37
ENDBRANCH  33  36
ENDBRANCH  30  33
ENDBRANCH  26  27
ENDBRANCH  25  26
ENDBRANCH   1  25
TORSDOF 12
ENDMDL
MODEL 3
REMARK VINA RESULT:    -9.515      3.245      5.321
REMARK INTER + INTRA:         -15.231
REMARK INTER:                 -13.095
REMARK INTRA:                  -2.137
REMARK CONF_INDEPENDENT:        3.580
REMARK UNBOUND:                -2.137
REMARK  12 active torsions:
REMARK  status: ('A' for Active; 'I' for Inactive)
REMARK    1  A    between atoms: C_2  and  C_5 
REMARK    2  A    between atoms: C_5  and  C_6 
REMARK    3  A    between atoms: C_6  and  C_9 
REMARK    4  A    between atoms: C_12  and  O_13 
REMARK    5  A    between atoms: O_13  and  C_14 
REMARK    6  A    between atoms: C_14  and  C_15 
REMARK       I    between atoms: C_15  and  N_17 
REMARK    7  A    between atoms: N_17  and  N_18 
REMARK    8  A    between atoms: C_19  and  C_20 
REMARK    9  A    between atoms: C_24  and  O_25 
REMARK   10  A    between atoms: O_25  and  C_26 
REMARK   11  A    between atoms: C_26  and  C_28 
REMARK   12  A    between atoms: C_31  and  N_32 
ROOT
ATOM      1  C   UNL d   1      25.687 -12.860  -4.235  0.00  0.00     0.261 C 
ATOM      2  O   UNL d   1      26.073 -12.428  -3.147  0.00  0.00    -0.269 OA
ATOM      3  N   UNL d   1      25.200 -14.162  -4.415  0.00  0.00    -0.246 N 
ATOM      4  H   UNL d   1      24.864 -14.501  -5.309  0.00  0.00     0.192 HD
ENDROOT
BRANCH   3   5
ATOM      5  N   UNL d   1      25.154 -14.991  -3.315  0.00  0.00    -0.184 NA
ATOM      6  C   UNL d   1      26.232 -15.198  -2.626  0.00  0.00     0.150 C 
BRANCH   6   7
ATOM      7  C   UNL d   1      26.242 -16.150  -1.477  0.00  0.00    -0.014 A 
ATOM      8  C   UNL d   1      27.379 -16.847  -1.079  0.00  0.00     0.013 A 
ATOM      9  C   UNL d   1      27.258 -17.894  -0.148  0.00  0.00     0.004 A 
ATOM     10  C   UNL d   1      26.012 -18.211   0.422  0.00  0.00     0.037 A 
ATOM     11  C   UNL d   1      24.880 -17.482   0.045  0.00  0.00     0.080 A 
ATOM     12  C   UNL d   1      25.020 -16.446  -0.883  0.00  0.00     0.050 A 
BRANCH  11  13
ATOM     13  O   UNL d   1      23.617 -17.862   0.591  0.00  0.00    -0.275 OA
BRANCH  13  14
ATOM     14  C   UNL d   1      22.446 -17.644  -0.137  0.00  0.00     0.298 C 
ATOM     15  O   UNL d   1      22.180 -16.735  -0.897  0.00  0.00    -0.259 OA
BRANCH  14  16
ATOM     16  C   UNL d   1      21.408 -18.671   0.037  0.00  0.00     0.040 A 
ATOM     17  C   UNL d   1      20.632 -18.969  -1.101  0.00  0.00     0.020 A 
ATOM     18  C   UNL d   1      19.454 -19.701  -0.981  0.00  0.00     0.037 A 
ATOM     19  C   UNL d   1      19.100 -20.209   0.272  0.00  0.00     0.102 A 
ATOM     20  C   UNL d   1      19.872 -19.914   1.412  0.00  0.00     0.037 A 
ATOM     21  C   UNL d   1      21.029 -19.134   1.294  0.00  0.00     0.020 A 
BRANCH  19  22
ATOM     22  N   UNL d   1      17.947 -21.111   0.382  0.00  0.00    -0.116 N 
ATOM     23  O   UNL d   1      17.115 -21.098  -0.536  0.00  0.00    -0.532 OA
ATOM     24  O   UNL d   1      17.897 -21.860   1.368  0.00  0.00    -0.532 OA
ENDBRANCH  19  22
ENDBRANCH  14  16
ENDBRANCH  13  14
ENDBRANCH  11  13
ENDBRANCH   6   7
ENDBRANCH   3   5
BRANCH   1  25
ATOM     25  C   UNL d   1      25.731 -11.990  -5.502  0.00  0.00     0.280 C 
BRANCH  25  26
ATOM     26  O   UNL d   1      27.089 -11.863  -5.940  0.00  0.00    -0.342 OA
BRANCH  26  27
ATOM     27  C   UNL d   1      27.929 -12.912  -5.710  0.00  0.00     0.069 A 
ATOM     28  C   UNL d   1      28.731 -12.807  -4.573  0.00  0.00     0.037 A 
ATOM     29  C   UNL d   1      29.673 -13.789  -4.285  0.00  0.00     0.011 A 
ATOM     30  C   UNL d   1      29.753 -14.952  -5.065  0.00  0.00    -0.050 A 
ATOM     31  C   UNL d   1      28.929 -15.047  -6.196  0.00  0.00     0.011 A 
ATOM     32  C   UNL d   1      28.034 -14.036  -6.519  0.00  0.00     0.037 A 
BRANCH  30  33
ATOM     33  C   UNL d   1      30.662 -16.132  -4.693  0.00  0.00    -0.020 C 
ATOM     34  C   UNL d   1      30.753 -16.235  -3.161  0.00  0.00     0.020 C 
ATOM     35  C   UNL d   1      32.071 -15.821  -5.232  0.00  0.00     0.020 C 
BRANCH  33  36
ATOM     36  C   UNL d   1      30.031 -17.426  -5.341  0.00  0.00     0.022 C 
BRANCH  36  37
ATOM     37  C   UNL d   1      30.938 -18.379  -6.183  0.00  0.00    -0.050 C 
ATOM     38  C   UNL d   1      32.203 -18.736  -5.382  0.00  0.00     0.014 C 
ATOM     39  C   UNL d   1      31.433 -17.725  -7.477  0.00  0.00     0.014 C 
ATOM     40  C   UNL d   1      30.249 -19.713  -6.497  0.00  0.00     0.014 C 
ENDBRANCH  36  37
ENDBRANCH  33  36
ENDBRANCH  30  33
ENDBRANCH  26  27
ENDBRANCH  25  26
ENDBRANCH   1  25
TORSDOF 12
ENDMDL
MODEL 4
REMARK VINA RESULT:    -9.499      2.459      4.263
REMARK INTER + INTRA:         -15.095
REMARK INTER:                 -13.078
REMARK INTRA:                  -2.017
REMARK CONF_INDEPENDENT:        3.580
REMARK UNBOUND:                -2.017
REMARK  12 active torsions:
REMARK  status: ('A' for Active; 'I' for Inactive)
REMARK    1  A    between atoms: C_2  and  C_5 
REMARK    2  A    between atoms: C_5  and  C_6 
REMARK    3  A    between atoms: C_6  and  C_9 
REMARK    4  A    between atoms: C_12  and  O_13 
REMARK    5  A    between atoms: O_13  and  C_14 
REMARK    6  A    between atoms: C_14  and  C_15 
REMARK       I    between atoms: C_15  and  N_17 
REMARK    7  A    between atoms: N_17  and  N_18 
REMARK    8  A    between atoms: C_19  and  C_20 
REMARK    9  A    between atoms: C_24  and  O_25 
REMARK   10  A    between atoms: O_25  and  C_26 
REMARK   11  A    between atoms: C_26  and  C_28 
REMARK   12  A    between atoms: C_31  and  N_32 
ROOT
ATOM      1  C   UNL d   1      27.841 -14.929  -5.410  0.00  0.00     0.261 C 
ATOM      2  O   UNL d   1      26.704 -15.189  -5.808  0.00  0.00    -0.269 OA
ATOM      3  N   UNL d   1      28.265 -15.158  -4.093  0.00  0.00    -0.246 N 
ATOM      4  H   UNL d   1      29.209 -14.962  -3.781  0.00  0.00     0.192 HD
ENDROOT
BRANCH   3   5
ATOM      5  N   UNL d   1      27.358 -15.701  -3.210  0.00  0.00    -0.184 NA
ATOM      6  C   UNL d   1      27.759 -16.088  -2.039  0.00  0.00     0.150 C 
BRANCH   6   7
ATOM      7  C   UNL d   1      26.825 -16.754  -1.085  0.00  0.00    -0.014 A 
ATOM      8  C   UNL d   1      27.214 -17.192   0.177  0.00  0.00     0.013 A 
ATOM      9  C   UNL d   1      26.349 -18.015   0.921  0.00  0.00     0.004 A 
ATOM     10  C   UNL d   1      25.077 -18.356   0.427  0.00  0.00     0.037 A 
ATOM     11  C   UNL d   1      24.678 -17.881  -0.826  0.00  0.00     0.080 A 
ATOM     12  C   UNL d   1      25.552 -17.067  -1.551  0.00  0.00     0.050 A 
BRANCH  11  13
ATOM     13  O   UNL d   1      23.408 -18.292  -1.332  0.00  0.00    -0.275 OA
BRANCH  13  14
ATOM     14  C   UNL d   1      22.235 -17.753  -0.799  0.00  0.00     0.298 C 
ATOM     15  O   UNL d   1      21.875 -16.595  -0.770  0.00  0.00    -0.259 OA
BRANCH  14  16
ATOM     16  C   UNL d   1      21.314 -18.737  -0.211  0.00  0.00     0.040 A 
ATOM     17  C   UNL d   1      20.323 -19.251  -1.071  0.00  0.00     0.020 A 
ATOM     18  C   UNL d   1      19.238 -19.955  -0.557  0.00  0.00     0.037 A 
ATOM     19  C   UNL d   1      19.194 -20.219   0.815  0.00  0.00     0.102 A 
ATOM     20  C   UNL d   1      20.181 -19.708   1.678  0.00  0.00     0.037 A 
ATOM     21  C   UNL d   1      21.243 -18.955   1.162  0.00  0.00     0.020 A 
BRANCH  19  22
ATOM     22  N   UNL d   1      18.140 -21.093   1.344  0.00  0.00    -0.116 N 
ATOM     23  O   UNL d   1      18.173 -22.292   1.031  0.00  0.00    -0.532 OA
ATOM     24  O   UNL d   1      17.303 -20.587   2.104  0.00  0.00    -0.532 OA
ENDBRANCH  19  22
ENDBRANCH  14  16
ENDBRANCH  13  14
ENDBRANCH  11  13
ENDBRANCH   6   7
ENDBRANCH   3   5
BRANCH   1  25
ATOM     25  C   UNL d   1      28.892 -14.304  -6.343  0.00  0.00     0.280 C 
BRANCH  25  26
ATOM     26  O   UNL d   1      30.199 -14.691  -5.906  0.00  0.00    -0.342 OA
BRANCH  26  27
ATOM     27  C   UNL d   1      30.547 -16.003  -6.031  0.00  0.00     0.069 A 
ATOM     28  C   UNL d   1      30.511 -16.754  -4.855  0.00  0.00     0.037 A 
ATOM     29  C   UNL d   1      30.914 -18.085  -4.860  0.00  0.00     0.011 A 
ATOM     30  C   UNL d   1      31.254 -18.724  -6.061  0.00  0.00    -0.050 A 
ATOM     31  C   UNL d   1      31.271 -17.958  -7.235  0.00  0.00     0.011 A 
ATOM     32  C   UNL d   1      30.930 -16.612  -7.219  0.00  0.00     0.037 A 
BRANCH  30  33
ATOM     33  C   UNL d   1      31.548 -20.229  -6.138  0.00  0.00    -0.020 C 
ATOM     34  C   UNL d   1      30.666 -20.969  -5.118  0.00  0.00     0.020 C 
ATOM     35  C   UNL d   1      33.020 -20.436  -5.731  0.00  0.00     0.020 C 
BRANCH  33  36
ATOM     36  C   UNL d   1      31.254 -20.683  -7.621  0.00  0.00     0.022 C 
BRANCH  36  37
ATOM     37  C   UNL d   1      32.440 -21.140  -8.530  0.00  0.00    -0.050 C 
ATOM     38  C   UNL d   1      33.446 -19.987  -8.693  0.00  0.00     0.014 C 
ATOM     39  C   UNL d   1      31.985 -21.502  -9.948  0.00  0.00     0.014 C 
ATOM     40  C   UNL d   1      33.229 -22.304  -7.917  0.00  0.00     0.014 C 
ENDBRANCH  36  37
ENDBRANCH  33  36
ENDBRANCH  30  33
ENDBRANCH  26  27
ENDBRANCH  25  26
ENDBRANCH   1  25
TORSDOF 12
ENDMDL
MODEL 5
REMARK VINA RESULT:    -8.773      2.276      3.867
REMARK INTER + INTRA:         -14.772
REMARK INTER:                 -12.352
REMARK INTRA:                  -2.419
REMARK CONF_INDEPENDENT:        3.580
REMARK UNBOUND:                -2.419
REMARK  12 active torsions:
REMARK  status: ('A' for Active; 'I' for Inactive)
REMARK    1  A    between atoms: C_2  and  C_5 
REMARK    2  A    between atoms: C_5  and  C_6 
REMARK    3  A    between atoms: C_6  and  C_9 
REMARK    4  A    between atoms: C_12  and  O_13 
REMARK    5  A    between atoms: O_13  and  C_14 
REMARK    6  A    between atoms: C_14  and  C_15 
REMARK       I    between atoms: C_15  and  N_17 
REMARK    7  A    between atoms: N_17  and  N_18 
REMARK    8  A    between atoms: C_19  and  C_20 
REMARK    9  A    between atoms: C_24  and  O_25 
REMARK   10  A    between atoms: O_25  and  C_26 
REMARK   11  A    between atoms: C_26  and  C_28 
REMARK   12  A    between atoms: C_31  and  N_32 
ROOT
ATOM      1  C   UNL d   1      28.095 -14.764  -5.726  0.00  0.00     0.261 C 
ATOM      2  O   UNL d   1      27.035 -15.284  -6.080  0.00  0.00    -0.269 OA
ATOM      3  N   UNL d   1      28.638 -14.927  -4.443  0.00  0.00    -0.246 N 
ATOM      4  H   UNL d   1      29.521 -14.514  -4.169  0.00  0.00     0.192 HD
ENDROOT
BRANCH   3   5
ATOM      5  N   UNL d   1      27.945 -15.708  -3.544  0.00  0.00    -0.184 NA
ATOM      6  C   UNL d   1      27.718 -15.258  -2.350  0.00  0.00     0.150 C 
BRANCH   6   7
ATOM      7  C   UNL d   1      27.042 -16.104  -1.323  0.00  0.00    -0.014 A 
ATOM      8  C   UNL d   1      27.663 -16.509  -0.145  0.00  0.00     0.013 A 
ATOM      9  C   UNL d   1      27.053 -17.490   0.656  0.00  0.00     0.004 A 
ATOM     10  C   UNL d   1      25.801 -18.029   0.309  0.00  0.00     0.037 A 
ATOM     11  C   UNL d   1      25.166 -17.589  -0.857  0.00  0.00     0.080 A 
ATOM     12  C   UNL d   1      25.789 -16.615  -1.641  0.00  0.00     0.050 A 
BRANCH  11  13
ATOM     13  O   UNL d   1      23.926 -18.195  -1.220  0.00  0.00    -0.275 OA
BRANCH  13  14
ATOM     14  C   UNL d   1      22.721 -17.643  -0.778  0.00  0.00     0.298 C 
ATOM     15  O   UNL d   1      22.420 -16.474  -0.653  0.00  0.00    -0.259 OA
BRANCH  14  16
ATOM     16  C   UNL d   1      21.680 -18.623  -0.437  0.00  0.00     0.040 A 
ATOM     17  C   UNL d   1      20.824 -19.012  -1.487  0.00  0.00     0.020 A 
ATOM     18  C   UNL d   1      19.644 -19.700  -1.219  0.00  0.00     0.037 A 
ATOM     19  C   UNL d   1      19.366 -20.075   0.098  0.00  0.00     0.102 A 
ATOM     20  C   UNL d   1      20.217 -19.689   1.150  0.00  0.00     0.037 A 
ATOM     21  C   UNL d   1      21.377 -18.952   0.882  0.00  0.00     0.020 A 
BRANCH  19  22
ATOM     22  N   UNL d   1      18.207 -20.935   0.371  0.00  0.00    -0.116 N 
ATOM     23  O   UNL d   1      18.198 -21.569   1.435  0.00  0.00    -0.532 OA
ATOM     24  O   UNL d   1      17.291 -20.943  -0.462  0.00  0.00    -0.532 OA
ENDBRANCH  19  22
ENDBRANCH  14  16
ENDBRANCH  13  14
ENDBRANCH  11  13
ENDBRANCH   6   7
ENDBRANCH   3   5
BRANCH   1  25
ATOM     25  C   UNL d   1      28.904 -13.868  -6.677  0.00  0.00     0.280 C 
BRANCH  25  26
ATOM     26  O   UNL d   1      30.276 -13.867  -6.270  0.00  0.00    -0.342 OA
BRANCH  26  27
ATOM     27  C   UNL d   1      30.959 -15.045  -6.338  0.00  0.00     0.069 A 
ATOM     28  C   UNL d   1      30.431 -16.001  -7.206  0.00  0.00     0.037 A 
ATOM     29  C   UNL d   1      31.011 -17.262  -7.298  0.00  0.00     0.011 A 
ATOM     30  C   UNL d   1      32.196 -17.555  -6.608  0.00  0.00    -0.050 A 
ATOM     31  C   UNL d   1      32.720 -16.577  -5.751  0.00  0.00     0.011 A 
ATOM     32  C   UNL d   1      32.104 -15.340  -5.611  0.00  0.00     0.037 A 
BRANCH  30  33
ATOM     33  C   UNL d   1      32.958 -18.873  -6.804  0.00  0.00    -0.020 C 
ATOM     34  C   UNL d   1      34.278 -18.816  -6.016  0.00  0.00     0.020 C 
ATOM     35  C   UNL d   1      33.304 -18.992  -8.301  0.00  0.00     0.020 C 
BRANCH  33  36
ATOM     36  C   UNL d   1      32.013 -20.034  -6.302  0.00  0.00     0.022 C 
BRANCH  36  37
ATOM     37  C   UNL d   1      31.287 -19.886  -4.926  0.00  0.00    -0.050 C 
ATOM     38  C   UNL d   1      30.809 -21.266  -4.438  0.00  0.00     0.014 C 
ATOM     39  C   UNL d   1      30.029 -19.017  -5.018  0.00  0.00     0.014 C 
ATOM     40  C   UNL d   1      32.218 -19.352  -3.830  0.00  0.00     0.014 C 
ENDBRANCH  36  37
ENDBRANCH  33  36
ENDBRANCH  30  33
ENDBRANCH  26  27
ENDBRANCH  25  26
ENDBRANCH   1  25
TORSDOF 12
ENDMDL
MODEL 6
REMARK VINA RESULT:    -8.771      1.293      2.357
REMARK INTER + INTRA:         -15.118
REMARK INTER:                 -12.350
REMARK INTRA:                  -2.768
REMARK CONF_INDEPENDENT:        3.580
REMARK UNBOUND:                -2.768
REMARK  12 active torsions:
REMARK  status: ('A' for Active; 'I' for Inactive)
REMARK    1  A    between atoms: C_2  and  C_5 
REMARK    2  A    between atoms: C_5  and  C_6 
REMARK    3  A    between atoms: C_6  and  C_9 
REMARK    4  A    between atoms: C_12  and  O_13 
REMARK    5  A    between atoms: O_13  and  C_14 
REMARK    6  A    between atoms: C_14  and  C_15 
REMARK       I    between atoms: C_15  and  N_17 
REMARK    7  A    between atoms: N_17  and  N_18 
REMARK    8  A    between atoms: C_19  and  C_20 
REMARK    9  A    between atoms: C_24  and  O_25 
REMARK   10  A    between atoms: O_25  and  C_26 
REMARK   11  A    between atoms: C_26  and  C_28 
REMARK   12  A    between atoms: C_31  and  N_32 
ROOT
ATOM      1  C   UNL d   1      30.603 -14.760  -6.717  0.00  0.00     0.261 C 
ATOM      2  O   UNL d   1      30.607 -13.746  -6.018  0.00  0.00    -0.269 OA
ATOM      3  N   UNL d   1      29.476 -15.579  -6.876  0.00  0.00    -0.246 N 
ATOM      4  H   UNL d   1      29.476 -16.399  -7.471  0.00  0.00     0.192 HD
ENDROOT
BRANCH   3   5
ATOM      5  N   UNL d   1      28.322 -15.223  -6.212  0.00  0.00    -0.184 NA
ATOM      6  C   UNL d   1      28.193 -15.511  -4.955  0.00  0.00     0.150 C 
BRANCH   6   7
ATOM      7  C   UNL d   1      26.928 -15.214  -4.222  0.00  0.00    -0.014 A 
ATOM      8  C   UNL d   1      25.893 -14.460  -4.768  0.00  0.00     0.013 A 
ATOM      9  C   UNL d   1      24.843 -14.026  -3.940  0.00  0.00     0.004 A 
ATOM     10  C   UNL d   1      24.799 -14.387  -2.581  0.00  0.00     0.037 A 
ATOM     11  C   UNL d   1      25.823 -15.177  -2.049  0.00  0.00     0.080 A 
ATOM     12  C   UNL d   1      26.859 -15.597  -2.886  0.00  0.00     0.050 A 
BRANCH  11  13
ATOM     13  O   UNL d   1      25.788 -15.479  -0.654  0.00  0.00    -0.275 OA
BRANCH  13  14
ATOM     14  C   UNL d   1      25.655 -16.802  -0.228  0.00  0.00     0.298 C 
ATOM     15  O   UNL d   1      26.442 -17.482   0.399  0.00  0.00    -0.259 OA
BRANCH  14  16
ATOM     16  C   UNL d   1      24.379 -17.441  -0.579  0.00  0.00     0.040 A 
ATOM     17  C   UNL d   1      23.299 -16.573  -0.832  0.00  0.00     0.020 A 
ATOM     18  C   UNL d   1      21.997 -17.062  -0.889  0.00  0.00     0.037 A 
ATOM     19  C   UNL d   1      21.789 -18.439  -0.779  0.00  0.00     0.102 A 
ATOM     20  C   UNL d   1      22.864 -19.311  -0.526  0.00  0.00     0.037 A 
ATOM     21  C   UNL d   1      24.166 -18.807  -0.418  0.00  0.00     0.020 A 
BRANCH  19  22
ATOM     22  N   UNL d   1      20.441 -18.982  -0.994  0.00  0.00    -0.116 N 
ATOM     23  O   UNL d   1      20.279 -19.765  -1.941  0.00  0.00    -0.532 OA
ATOM     24  O   UNL d   1      19.556 -18.654  -0.192  0.00  0.00    -0.532 OA
ENDBRANCH  19  22
ENDBRANCH  14  16
ENDBRANCH  13  14
ENDBRANCH  11  13
ENDBRANCH   6   7
ENDBRANCH   3   5
BRANCH   1  25
ATOM     25  C   UNL d   1      31.864 -15.220  -7.467  0.00  0.00     0.280 C 
BRANCH  25  26
ATOM     26  O   UNL d   1      31.634 -16.519  -8.025  0.00  0.00    -0.342 OA
BRANCH  26  27
ATOM     27  C   UNL d   1      31.685 -17.588  -7.181  0.00  0.00     0.069 A 
ATOM     28  C   UNL d   1      32.827 -17.678  -6.386  0.00  0.00     0.037 A 
ATOM     29  C   UNL d   1      33.010 -18.769  -5.541  0.00  0.00     0.011 A 
ATOM     30  C   UNL d   1      32.003 -19.733  -5.392  0.00  0.00    -0.050 A 
ATOM     31  C   UNL d   1      30.856 -19.619  -6.189  0.00  0.00     0.011 A 
ATOM     32  C   UNL d   1      30.702 -18.564  -7.078  0.00  0.00     0.037 A 
BRANCH  30  33
ATOM     33  C   UNL d   1      32.093 -20.862  -4.355  0.00  0.00    -0.020 C 
ATOM     34  C   UNL d   1      32.856 -22.050  -4.966  0.00  0.00     0.020 C 
ATOM     35  C   UNL d   1      30.656 -21.328  -4.050  0.00  0.00     0.020 C 
BRANCH  33  36
ATOM     36  C   UNL d   1      32.825 -20.270  -3.088  0.00  0.00     0.022 C 
BRANCH  36  37
ATOM     37  C   UNL d   1      31.973 -19.677  -1.920  0.00  0.00    -0.050 C 
ATOM     38  C   UNL d   1      32.899 -19.011  -0.886  0.00  0.00     0.014 C 
ATOM     39  C   UNL d   1      31.199 -20.755  -1.154  0.00  0.00     0.014 C 
ATOM     40  C   UNL d   1      31.015 -18.579  -2.396  0.00  0.00     0.014 C 
ENDBRANCH  36  37
ENDBRANCH  33  36
ENDBRANCH  30  33
ENDBRANCH  26  27
ENDBRANCH  25  26
ENDBRANCH   1  25
TORSDOF 12
ENDMDL
MODEL 7
REMARK VINA RESULT:    -8.595      4.440      7.349
REMARK INTER + INTRA:         -15.088
REMARK INTER:                 -12.175
REMARK INTRA:                  -2.913
REMARK CONF_INDEPENDENT:        3.580
REMARK UNBOUND:                -2.913
REMARK  12 active torsions:
REMARK  status: ('A' for Active; 'I' for Inactive)
REMARK    1  A    between atoms: C_2  and  C_5 
REMARK    2  A    between atoms: C_5  and  C_6 
REMARK    3  A    between atoms: C_6  and  C_9 
REMARK    4  A    between atoms: C_12  and  O_13 
REMARK    5  A    between atoms: O_13  and  C_14 
REMARK    6  A    between atoms: C_14  and  C_15 
REMARK       I    between atoms: C_15  and  N_17 
REMARK    7  A    between atoms: N_17  and  N_18 
REMARK    8  A    between atoms: C_19  and  C_20 
REMARK    9  A    between atoms: C_24  and  O_25 
REMARK   10  A    between atoms: O_25  and  C_26 
REMARK   11  A    between atoms: C_26  and  C_28 
REMARK   12  A    between atoms: C_31  and  N_32 
ROOT
ATOM      1  C   UNL d   1      30.573 -14.530  -6.710  0.00  0.00     0.261 C 
ATOM      2  O   UNL d   1      30.808 -14.472  -5.502  0.00  0.00    -0.269 OA
ATOM      3  N   UNL d   1      29.314 -14.862  -7.232  0.00  0.00    -0.246 N 
ATOM      4  H   UNL d   1      29.124 -14.885  -8.227  0.00  0.00     0.192 HD
ENDROOT
BRANCH   3   5
ATOM      5  N   UNL d   1      28.299 -15.134  -6.342  0.00  0.00    -0.184 NA
ATOM      6  C   UNL d   1      27.594 -14.159  -5.859  0.00  0.00     0.150 C 
BRANCH   6   7
ATOM      7  C   UNL d   1      26.540 -14.404  -4.832  0.00  0.00    -0.014 A 
ATOM      8  C   UNL d   1      25.516 -13.500  -4.563  0.00  0.00     0.013 A 
ATOM      9  C   UNL d   1      24.706 -13.690  -3.430  0.00  0.00     0.004 A 
ATOM     10  C   UNL d   1      24.883 -14.808  -2.595  0.00  0.00     0.037 A 
ATOM     11  C   UNL d   1      25.889 -15.732  -2.893  0.00  0.00     0.080 A 
ATOM     12  C   UNL d   1      26.686 -15.526  -4.022  0.00  0.00     0.050 A 
BRANCH  11  13
ATOM     13  O   UNL d   1      26.089 -16.825  -1.997  0.00  0.00    -0.275 OA
BRANCH  13  14
ATOM     14  C   UNL d   1      25.566 -16.774  -0.703  0.00  0.00     0.298 C 
ATOM     15  O   UNL d   1      26.084 -16.356   0.312  0.00  0.00    -0.259 OA
BRANCH  14  16
ATOM     16  C   UNL d   1      24.193 -17.284  -0.570  0.00  0.00     0.040 A 
ATOM     17  C   UNL d   1      24.057 -18.683  -0.479  0.00  0.00     0.020 A 
ATOM     18  C   UNL d   1      22.811 -19.284  -0.639  0.00  0.00     0.037 A 
ATOM     19  C   UNL d   1      21.687 -18.471  -0.803  0.00  0.00     0.102 A 
ATOM     20  C   UNL d   1      21.817 -17.073  -0.895  0.00  0.00     0.037 A 
ATOM     21  C   UNL d   1      23.080 -16.476  -0.785  0.00  0.00     0.020 A 
BRANCH  19  22
ATOM     22  N   UNL d   1      20.352 -19.084  -0.814  0.00  0.00    -0.116 N 
ATOM     23  O   UNL d   1      19.370 -18.329  -0.766  0.00  0.00    -0.532 OA
ATOM     24  O   UNL d   1      20.289 -20.317  -0.910  0.00  0.00    -0.532 OA
ENDBRANCH  19  22
ENDBRANCH  14  16
ENDBRANCH  13  14
ENDBRANCH  11  13
ENDBRANCH   6   7
ENDBRANCH   3   5
BRANCH   1  25
ATOM     25  C   UNL d   1      31.669 -14.256  -7.753  0.00  0.00     0.280 C 
BRANCH  25  26
ATOM     26  O   UNL d   1      31.295 -13.121  -8.542  0.00  0.00    -0.342 OA
BRANCH  26  27
ATOM     27  C   UNL d   1      30.307 -12.314  -8.062  0.00  0.00     0.069 A 
ATOM     28  C   UNL d   1      29.098 -12.357  -8.758  0.00  0.00     0.037 A 
ATOM     29  C   UNL d   1      28.048 -11.521  -8.393  0.00  0.00     0.011 A 
ATOM     30  C   UNL d   1      28.146 -10.706  -7.256  0.00  0.00    -0.050 A 
ATOM     31  C   UNL d   1      29.364 -10.685  -6.561  0.00  0.00     0.011 A 
ATOM     32  C   UNL d   1      30.434 -11.473  -6.964  0.00  0.00     0.037 A 
BRANCH  30  33
ATOM     33  C   UNL d   1      26.960  -9.890  -6.723  0.00  0.00    -0.020 C 
ATOM     34  C   UNL d   1      25.761 -10.828  -6.501  0.00  0.00     0.020 C 
ATOM     35  C   UNL d   1      26.570  -8.872  -7.813  0.00  0.00     0.020 C 
BRANCH  33  36
ATOM     36  C   UNL d   1      27.435  -9.200  -5.385  0.00  0.00     0.022 C 
BRANCH  36  37
ATOM     37  C   UNL d   1      27.051  -9.846  -4.015  0.00  0.00    -0.050 C 
ATOM     38  C   UNL d   1      27.740  -9.084  -2.868  0.00  0.00     0.014 C 
ATOM     39  C   UNL d   1      27.528 -11.297  -3.898  0.00  0.00     0.014 C 
ATOM     40  C   UNL d   1      25.546  -9.761  -3.731  0.00  0.00     0.014 C 
ENDBRANCH  36  37
ENDBRANCH  33  36
ENDBRANCH  30  33
ENDBRANCH  26  27
ENDBRANCH  25  26
ENDBRANCH   1  25
TORSDOF 12
ENDMDL
MODEL 8
REMARK VINA RESULT:    -8.029      2.520      3.925
REMARK INTER + INTRA:         -14.997
REMARK INTER:                 -11.609
REMARK INTRA:                  -3.388
REMARK CONF_INDEPENDENT:        3.580
REMARK UNBOUND:                -3.388
REMARK  12 active torsions:
REMARK  status: ('A' for Active; 'I' for Inactive)
REMARK    1  A    between atoms: C_2  and  C_5 
REMARK    2  A    between atoms: C_5  and  C_6 
REMARK    3  A    between atoms: C_6  and  C_9 
REMARK    4  A    between atoms: C_12  and  O_13 
REMARK    5  A    between atoms: O_13  and  C_14 
REMARK    6  A    between atoms: C_14  and  C_15 
REMARK       I    between atoms: C_15  and  N_17 
REMARK    7  A    between atoms: N_17  and  N_18 
REMARK    8  A    between atoms: C_19  and  C_20 
REMARK    9  A    between atoms: C_24  and  O_25 
REMARK   10  A    between atoms: O_25  and  C_26 
REMARK   11  A    between atoms: C_26  and  C_28 
REMARK   12  A    between atoms: C_31  and  N_32 
ROOT
ATOM      1  C   UNL d   1      30.626 -14.748  -6.751  0.00  0.00     0.261 C 
ATOM      2  O   UNL d   1      30.612 -13.711  -6.086  0.00  0.00    -0.269 OA
ATOM      3  N   UNL d   1      29.504 -15.575  -6.907  0.00  0.00    -0.246 N 
ATOM      4  H   UNL d   1      29.519 -16.414  -7.474  0.00  0.00     0.192 HD
ENDROOT
BRANCH   3   5
ATOM      5  N   UNL d   1      28.335 -15.200  -6.281  0.00  0.00    -0.184 NA
ATOM      6  C   UNL d   1      28.193 -15.416  -5.011  0.00  0.00     0.150 C 
BRANCH   6   7
ATOM      7  C   UNL d   1      26.912 -15.098  -4.314  0.00  0.00    -0.014 A 
ATOM      8  C   UNL d   1      25.909 -14.321  -4.886  0.00  0.00     0.013 A 
ATOM      9  C   UNL d   1      24.843 -13.871  -4.087  0.00  0.00     0.004 A 
ATOM     10  C   UNL d   1      24.751 -14.239  -2.733  0.00  0.00     0.037 A 
ATOM     11  C   UNL d   1      25.744 -15.051  -2.175  0.00  0.00     0.080 A 
ATOM     12  C   UNL d   1      26.796 -15.486  -2.984  0.00  0.00     0.050 A 
BRANCH  11  13
ATOM     13  O   UNL d   1      25.661 -15.359  -0.784  0.00  0.00    -0.275 OA
BRANCH  13  14
ATOM     14  C   UNL d   1      25.606 -16.690  -0.364  0.00  0.00     0.298 C 
ATOM     15  O   UNL d   1      26.445 -17.337   0.229  0.00  0.00    -0.259 OA
BRANCH  14  16
ATOM     16  C   UNL d   1      24.348 -17.386  -0.675  0.00  0.00     0.040 A 
ATOM     17  C   UNL d   1      23.220 -16.567  -0.880  0.00  0.00     0.020 A 
ATOM     18  C   UNL d   1      21.941 -17.116  -0.895  0.00  0.00     0.037 A 
ATOM     19  C   UNL d   1      21.802 -18.502  -0.790  0.00  0.00     0.102 A 
ATOM     20  C   UNL d   1      22.925 -19.325  -0.585  0.00  0.00     0.037 A 
ATOM     21  C   UNL d   1      24.205 -18.761  -0.519  0.00  0.00     0.020 A 
BRANCH  19  22
ATOM     22  N   UNL d   1      20.474 -19.106  -0.961  0.00  0.00    -0.116 N 
ATOM     23  O   UNL d   1      19.645 -18.943  -0.055  0.00  0.00    -0.532 OA
ATOM     24  O   UNL d   1      20.251 -19.709  -2.020  0.00  0.00    -0.532 OA
ENDBRANCH  19  22
ENDBRANCH  14  16
ENDBRANCH  13  14
ENDBRANCH  11  13
ENDBRANCH   6   7
ENDBRANCH   3   5
BRANCH   1  25
ATOM     25  C   UNL d   1      31.905 -15.229  -7.457  0.00  0.00     0.280 C 
BRANCH  25  26
ATOM     26  O   UNL d   1      32.359 -16.437  -6.837  0.00  0.00    -0.342 OA
BRANCH  26  27
ATOM     27  C   UNL d   1      32.068 -16.620  -5.518  0.00  0.00     0.069 A 
ATOM     28  C   UNL d   1      31.056 -17.541  -5.243  0.00  0.00     0.037 A 
ATOM     29  C   UNL d   1      30.635 -17.751  -3.934  0.00  0.00     0.011 A 
ATOM     30  C   UNL d   1      31.293 -17.129  -2.864  0.00  0.00    -0.050 A 
ATOM     31  C   UNL d   1      32.316 -16.217  -3.158  0.00  0.00     0.011 A 
ATOM     32  C   UNL d   1      32.694 -15.960  -4.469  0.00  0.00     0.037 A 
BRANCH  30  33
ATOM     33  C   UNL d   1      30.969 -17.453  -1.398  0.00  0.00    -0.020 C 
ATOM     34  C   UNL d   1      32.168 -17.062  -0.518  0.00  0.00     0.020 C 
ATOM     35  C   UNL d   1      30.780 -18.979  -1.292  0.00  0.00     0.020 C 
BRANCH  33  36
ATOM     36  C   UNL d   1      29.664 -16.648  -1.023  0.00  0.00     0.022 C 
BRANCH  36  37
ATOM     37  C   UNL d   1      29.799 -15.207  -0.432  0.00  0.00    -0.050 C 
ATOM     38  C   UNL d   1      28.401 -14.598  -0.221  0.00  0.00     0.014 C 
ATOM     39  C   UNL d   1      30.532 -14.253  -1.380  0.00  0.00     0.014 C 
ATOM     40  C   UNL d   1      30.472 -15.202   0.946  0.00  0.00     0.014 C 
ENDBRANCH  36  37
ENDBRANCH  33  36
ENDBRANCH  30  33
ENDBRANCH  26  27
ENDBRANCH  25  26
ENDBRANCH   1  25
TORSDOF 12
ENDMDL
MODEL 9
REMARK VINA RESULT:    -7.567      5.773      8.619
REMARK INTER + INTRA:         -14.979
REMARK INTER:                 -11.147
REMARK INTRA:                  -3.832
REMARK CONF_INDEPENDENT:        3.580
REMARK UNBOUND:                -3.832
REMARK  12 active torsions:
REMARK  status: ('A' for Active; 'I' for Inactive)
REMARK    1  A    between atoms: C_2  and  C_5 
REMARK    2  A    between atoms: C_5  and  C_6 
REMARK    3  A    between atoms: C_6  and  C_9 
REMARK    4  A    between atoms: C_12  and  O_13 
REMARK    5  A    between atoms: O_13  and  C_14 
REMARK    6  A    between atoms: C_14  and  C_15 
REMARK       I    between atoms: C_15  and  N_17 
REMARK    7  A    between atoms: N_17  and  N_18 
REMARK    8  A    between atoms: C_19  and  C_20 
REMARK    9  A    between atoms: C_24  and  O_25 
REMARK   10  A    between atoms: O_25  and  C_26 
REMARK   11  A    between atoms: C_26  and  C_28 
REMARK   12  A    between atoms: C_31  and  N_32 
ROOT
ATOM      1  C   UNL d   1      26.865 -10.568  -4.693  0.00  0.00     0.261 C 
ATOM      2  O   UNL d   1      27.821  -9.866  -4.357  0.00  0.00    -0.269 OA
ATOM      3  N   UNL d   1      25.625 -10.540  -4.040  0.00  0.00    -0.246 N 
ATOM      4  H   UNL d   1      24.838 -11.104  -4.338  0.00  0.00     0.192 HD
ENDROOT
BRANCH   3   5
ATOM      5  N   UNL d   1      25.479  -9.683  -2.971  0.00  0.00    -0.184 NA
ATOM      6  C   UNL d   1      25.603  -8.406  -3.154  0.00  0.00     0.150 C 
BRANCH   6   7
ATOM      7  C   UNL d   1      25.532  -7.452  -2.008  0.00  0.00    -0.014 A 
ATOM      8  C   UNL d   1      25.802  -6.092  -2.135  0.00  0.00     0.013 A 
ATOM      9  C   UNL d   1      25.945  -5.305  -0.979  0.00  0.00     0.004 A 
ATOM     10  C   UNL d   1      25.768  -5.863   0.300  0.00  0.00     0.037 A 
ATOM     11  C   UNL d   1      25.461  -7.223   0.418  0.00  0.00     0.080 A 
ATOM     12  C   UNL d   1      25.325  -7.989  -0.742  0.00  0.00     0.050 A 
BRANCH  11  13
ATOM     13  O   UNL d   1      25.348  -7.779   1.728  0.00  0.00    -0.275 OA
BRANCH  13  14
ATOM     14  C   UNL d   1      26.454  -8.382   2.329  0.00  0.00     0.298 C 
ATOM     15  O   UNL d   1      27.031  -8.068   3.350  0.00  0.00    -0.259 OA
BRANCH  14  16
ATOM     16  C   UNL d   1      26.971  -9.567   1.628  0.00  0.00     0.040 A 
ATOM     17  C   UNL d   1      27.803  -9.318   0.519  0.00  0.00     0.020 A 
ATOM     18  C   UNL d   1      28.110 -10.337  -0.378  0.00  0.00     0.037 A 
ATOM     19  C   UNL d   1      27.650 -11.630  -0.112  0.00  0.00     0.102 A 
ATOM     20  C   UNL d   1      26.818 -11.884   0.994  0.00  0.00     0.037 A 
ATOM     21  C   UNL d   1      26.471 -10.844   1.865  0.00  0.00     0.020 A 
BRANCH  19  22
ATOM     22  N   UNL d   1      28.096 -12.740  -0.963  0.00  0.00    -0.116 N 
ATOM     23  O   UNL d   1      28.577 -12.462  -2.070  0.00  0.00    -0.532 OA
ATOM     24  O   UNL d   1      28.000 -13.887  -0.505  0.00  0.00    -0.532 OA
ENDBRANCH  19  22
ENDBRANCH  14  16
ENDBRANCH  13  14
ENDBRANCH  11  13
ENDBRANCH   6   7
ENDBRANCH   3   5
BRANCH   1  25
ATOM     25  C   UNL d   1      26.973 -11.557  -5.866  0.00  0.00     0.280 C 
BRANCH  25  26
ATOM     26  O   UNL d   1      25.913 -12.515  -5.772  0.00  0.00    -0.342 OA
BRANCH  26  27
ATOM     27  C   UNL d   1      25.967 -13.422  -4.756  0.00  0.00     0.069 A 
ATOM     28  C   UNL d   1      24.838 -13.486  -3.940  0.00  0.00     0.037 A 
ATOM     29  C   UNL d   1      24.817 -14.329  -2.833  0.00  0.00     0.011 A 
ATOM     30  C   UNL d   1      25.882 -15.207  -2.585  0.00  0.00    -0.050 A 
ATOM     31  C   UNL d   1      27.004 -15.139  -3.424  0.00  0.00     0.011 A 
ATOM     32  C   UNL d   1      27.049 -14.252  -4.491  0.00  0.00     0.037 A 
BRANCH  30  33
ATOM     33  C   UNL d   1      25.834 -16.266  -1.474  0.00  0.00    -0.020 C 
ATOM     34  C   UNL d   1      25.534 -15.576  -0.132  0.00  0.00     0.020 C 
ATOM     35  C   UNL d   1      27.235 -16.901  -1.377  0.00  0.00     0.020 C 
BRANCH  33  36
ATOM     36  C   UNL d   1      24.717 -17.307  -1.873  0.00  0.00     0.022 C 
BRANCH  36  37
ATOM     37  C   UNL d   1      23.663 -17.744  -0.806  0.00  0.00    -0.050 C 
ATOM     38  C   UNL d   1      22.862 -18.950  -1.328  0.00  0.00     0.014 C 
ATOM     39  C   UNL d   1      22.630 -16.649  -0.521  0.00  0.00     0.014 C 
ATOM     40  C   UNL d   1      24.315 -18.206   0.502  0.00  0.00     0.014 C 
ENDBRANCH  36  37
ENDBRANCH  33  36
ENDBRANCH  30  33
ENDBRANCH  26  27
ENDBRANCH  25  26
ENDBRANCH   1  25
TORSDOF 12
ENDMDL
