MODEL 1
REMARK VINA RESULT:   -10.882      0.000      0.000
REMARK INTER + INTRA:         -14.458
REMARK INTER:                 -13.268
REMARK INTRA:                  -1.190
REMARK CONF_INDEPENDENT:        2.386
REMARK UNBOUND:                -1.190
REMARK  8 active torsions:
REMARK  status: ('A' for Active; 'I' for Inactive)
REMARK    1  A    between atoms: C_6  and  C_7 
REMARK       I    between atoms: C_7  and  N_9 
REMARK    2  A    between atoms: N_9  and  C_10 
REMARK    3  A    between atoms: C_13  and  N_14 
REMARK       I    between atoms: N_14  and  C_15 
REMARK    4  A    between atoms: C_15  and  C_17 
REMARK    5  A    between atoms: C_17  and  N_18 
REMARK    6  A    between atoms: N_18  and  C_19 
REMARK    7  A    between atoms: C_22  and  N_23 
REMARK       I    between atoms: N_23  and  C_24 
REMARK    8  A    between atoms: C_24  and  C_26 
ROOT
ATOM      1  N   UNL d   1      26.462 -15.298  -2.344  0.00  0.00    -0.326 N 
ATOM      2  C   UNL d   1      26.192 -14.602  -3.527  0.00  0.00     0.239 C 
ATOM      3  O   UNL d   1      25.119 -14.613  -4.138  0.00  0.00    -0.271 OA
ATOM      4  H   UNL d   1      27.401 -15.270  -1.965  0.00  0.00     0.169 HD
ENDROOT
BRANCH   1   5
ATOM      5  C   UNL d   1      25.520 -16.146  -1.684  0.00  0.00     0.034 A 
ATOM      6  C   UNL d   1      25.915 -17.334  -1.049  0.00  0.00     0.032 A 
ATOM      7  C   UNL d   1      24.947 -18.211  -0.493  0.00  0.00     0.032 A 
ATOM      8  C   UNL d   1      23.584 -17.896  -0.555  0.00  0.00     0.035 A 
ATOM      9  C   UNL d   1      23.209 -16.700  -1.140  0.00  0.00     0.032 A 
ATOM     10  C   UNL d   1      24.161 -15.842  -1.672  0.00  0.00     0.032 A 
BRANCH   8  11
ATOM     11  N   UNL d   1      22.595 -18.726   0.019  0.00  0.00    -0.323 N 
ATOM     12  C   UNL d   1      21.249 -18.655  -0.334  0.00  0.00     0.256 C 
ATOM     13  O   UNL d   1      20.819 -17.969  -1.270  0.00  0.00    -0.267 OA
ATOM     14  H   UNL d   1      22.920 -19.424   0.670  0.00  0.00     0.169 HD
BRANCH  12  15
ATOM     15  C   UNL d   1      20.258 -19.494   0.410  0.00  0.00     0.032 A 
ATOM     16  C   UNL d   1      19.178 -20.041  -0.308  0.00  0.00     0.017 A 
ATOM     17  C   UNL d   1      18.214 -20.825   0.331  0.00  0.00     0.002 A 
ATOM     18  C   UNL d   1      18.322 -21.078   1.696  0.00  0.00     0.007 A 
ATOM     19  C   UNL d   1      19.389 -20.548   2.427  0.00  0.00    -0.061 A 
ATOM     20  C   UNL d   1      19.530 -20.825   3.894  0.00  0.00     0.048 C 
ATOM     21  C   UNL d   1      20.350 -19.752   1.781  0.00  0.00     0.023 A 
ENDBRANCH  12  15
ENDBRANCH   8  11
ENDBRANCH   1   5
BRANCH   2  22
ATOM     22  C   UNL d   1      27.333 -13.770  -4.128  0.00  0.00     0.223 C 
BRANCH  22  23
ATOM     23  N   UNL d   1      28.607 -14.451  -3.825  0.00  0.00    -0.381 N 
ATOM     24  H   UNL d   1      29.212 -13.913  -3.194  0.00  0.00     0.160 HD
BRANCH  23  25
ATOM     25  C   UNL d   1      29.259 -15.282  -4.710  0.00  0.00     0.028 A 
ATOM     26  C   UNL d   1      29.540 -16.609  -4.349  0.00  0.00     0.031 A 
ATOM     27  C   UNL d   1      30.169 -17.509  -5.241  0.00  0.00     0.032 A 
ATOM     28  C   UNL d   1      30.496 -17.097  -6.535  0.00  0.00     0.034 A 
ATOM     29  C   UNL d   1      30.259 -15.758  -6.854  0.00  0.00     0.032 A 
ATOM     30  C   UNL d   1      29.649 -14.872  -5.971  0.00  0.00     0.031 A 
BRANCH  28  31
ATOM     31  N   UNL d   1      31.013 -18.017  -7.496  0.00  0.00    -0.327 N 
ATOM     32  C   UNL d   1      30.778 -19.389  -7.460  0.00  0.00     0.225 C 
ATOM     33  O   UNL d   1      30.056 -19.955  -6.638  0.00  0.00    -0.273 OA
ATOM     34  H   UNL d   1      31.647 -17.645  -8.195  0.00  0.00     0.169 HD
BRANCH  32  35
ATOM     35  C   UNL d   1      31.456 -20.251  -8.522  0.00  0.00     0.070 C 
ATOM     36  C   UNL d   1      30.948 -19.941  -9.923  0.00  0.00     0.019 C 
ATOM     37  C   UNL d   1      32.970 -19.965  -8.469  0.00  0.00     0.019 C 
ENDBRANCH  32  35
ENDBRANCH  28  31
ENDBRANCH  23  25
ENDBRANCH  22  23
ENDBRANCH   2  22
TORSDOF 8
ENDMDL
MODEL 2
REMARK VINA RESULT:   -10.751      7.768     11.076
REMARK INTER + INTRA:         -14.520
REMARK INTER:                 -13.138
REMARK INTRA:                  -1.382
REMARK CONF_INDEPENDENT:        2.386
REMARK UNBOUND:                -1.382
REMARK  8 active torsions:
REMARK  status: ('A' for Active; 'I' for Inactive)
REMARK    1  A    between atoms: C_6  and  C_7 
REMARK       I    between atoms: C_7  and  N_9 
REMARK    2  A    between atoms: N_9  and  C_10 
REMARK    3  A    between atoms: C_13  and  N_14 
REMARK       I    between atoms: N_14  and  C_15 
REMARK    4  A    between atoms: C_15  and  C_17 
REMARK    5  A    between atoms: C_17  and  N_18 
REMARK    6  A    between atoms: N_18  and  C_19 
REMARK    7  A    between atoms: C_22  and  N_23 
REMARK       I    between atoms: N_23  and  C_24 
REMARK    8  A    between atoms: C_24  and  C_26 
ROOT
ATOM      1  N   UNL d   1      28.117 -14.478   1.556  0.00  0.00    -0.326 N 
ATOM      2  C   UNL d   1      27.232 -13.721   0.781  0.00  0.00     0.239 C 
ATOM      3  O   UNL d   1      26.526 -12.796   1.193  0.00  0.00    -0.271 OA
ATOM      4  H   UNL d   1      28.598 -15.259   1.126  0.00  0.00     0.169 HD
ENDROOT
BRANCH   1   5
ATOM      5  C   UNL d   1      28.308 -14.291   2.960  0.00  0.00     0.034 A 
ATOM      6  C   UNL d   1      29.583 -14.346   3.545  0.00  0.00     0.032 A 
ATOM      7  C   UNL d   1      29.733 -14.262   4.955  0.00  0.00     0.032 A 
ATOM      8  C   UNL d   1      28.615 -14.107   5.781  0.00  0.00     0.035 A 
ATOM      9  C   UNL d   1      27.368 -14.004   5.191  0.00  0.00     0.032 A 
ATOM     10  C   UNL d   1      27.227 -14.076   3.813  0.00  0.00     0.032 A 
BRANCH   8  11
ATOM     11  N   UNL d   1      28.729 -13.983   7.185  0.00  0.00    -0.323 N 
ATOM     12  C   UNL d   1      28.591 -12.767   7.851  0.00  0.00     0.256 C 
ATOM     13  O   UNL d   1      28.221 -11.721   7.302  0.00  0.00    -0.267 OA
ATOM     14  H   UNL d   1      28.864 -14.840   7.699  0.00  0.00     0.169 HD
BRANCH  12  15
ATOM     15  C   UNL d   1      28.841 -12.714   9.324  0.00  0.00     0.032 A 
ATOM     16  C   UNL d   1      28.210 -13.670  10.142  0.00  0.00     0.017 A 
ATOM     17  C   UNL d   1      28.397 -13.668  11.526  0.00  0.00     0.002 A 
ATOM     18  C   UNL d   1      29.223 -12.713  12.111  0.00  0.00     0.007 A 
ATOM     19  C   UNL d   1      29.863 -11.756  11.318  0.00  0.00    -0.061 A 
ATOM     20  C   UNL d   1      30.771 -10.731  11.930  0.00  0.00     0.048 C 
ATOM     21  C   UNL d   1      29.665 -11.758   9.926  0.00  0.00     0.023 A 
ENDBRANCH  12  15
ENDBRANCH   8  11
ENDBRANCH   1   5
BRANCH   2  22
ATOM     22  C   UNL d   1      27.116 -14.084  -0.706  0.00  0.00     0.223 C 
BRANCH  22  23
ATOM     23  N   UNL d   1      27.172 -15.554  -0.826  0.00  0.00    -0.381 N 
ATOM     24  H   UNL d   1      27.835 -15.875  -1.540  0.00  0.00     0.160 HD
BRANCH  23  25
ATOM     25  C   UNL d   1      26.093 -16.381  -0.600  0.00  0.00     0.028 A 
ATOM     26  C   UNL d   1      24.953 -16.283  -1.412  0.00  0.00     0.031 A 
ATOM     27  C   UNL d   1      23.839 -17.140  -1.244  0.00  0.00     0.032 A 
ATOM     28  C   UNL d   1      23.869 -18.141  -0.270  0.00  0.00     0.034 A 
ATOM     29  C   UNL d   1      24.989 -18.183   0.564  0.00  0.00     0.032 A 
ATOM     30  C   UNL d   1      26.079 -17.334   0.401  0.00  0.00     0.031 A 
BRANCH  28  31
ATOM     31  N   UNL d   1      22.816 -19.100  -0.162  0.00  0.00    -0.327 N 
ATOM     32  C   UNL d   1      21.484 -18.824  -0.456  0.00  0.00     0.225 C 
ATOM     33  O   UNL d   1      21.072 -17.750  -0.897  0.00  0.00    -0.273 OA
ATOM     34  H   UNL d   1      23.057 -20.005   0.224  0.00  0.00     0.169 HD
BRANCH  32  35
ATOM     35  C   UNL d   1      20.464 -19.936  -0.227  0.00  0.00     0.070 C 
ATOM     36  C   UNL d   1      20.198 -20.175   1.252  0.00  0.00     0.019 C 
ATOM     37  C   UNL d   1      19.144 -19.515  -0.906  0.00  0.00     0.019 C 
ENDBRANCH  32  35
ENDBRANCH  28  31
ENDBRANCH  23  25
ENDBRANCH  22  23
ENDBRANCH   2  22
TORSDOF 8
ENDMDL
MODEL 3
REMARK VINA RESULT:   -10.682      7.588     10.883
REMARK INTER + INTRA:         -14.349
REMARK INTER:                 -13.068
REMARK INTRA:                  -1.281
REMARK CONF_INDEPENDENT:        2.386
REMARK UNBOUND:                -1.281
REMARK  8 active torsions:
REMARK  status: ('A' for Active; 'I' for Inactive)
REMARK    1  A    between atoms: C_6  and  C_7 
REMARK       I    between atoms: C_7  and  N_9 
REMARK    2  A    between atoms: N_9  and  C_10 
REMARK    3  A    between atoms: C_13  and  N_14 
REMARK       I    between atoms: N_14  and  C_15 
REMARK    4  A    between atoms: C_15  and  C_17 
REMARK    5  A    between atoms: C_17  and  N_18 
REMARK    6  A    between atoms: N_18  and  C_19 
REMARK    7  A    between atoms: C_22  and  N_23 
REMARK       I    between atoms: N_23  and  C_24 
REMARK    8  A    between atoms: C_24  and  C_26 
ROOT
ATOM      1  N   UNL d   1      27.988 -13.893   1.461  0.00  0.00    -0.326 N 
ATOM      2  C   UNL d   1      27.661 -15.004   0.676  0.00  0.00     0.239 C 
ATOM      3  O   UNL d   1      27.492 -16.154   1.093  0.00  0.00    -0.271 OA
ATOM      4  H   UNL d   1      28.169 -13.008   1.003  0.00  0.00     0.169 HD
ENDROOT
BRANCH   1   5
ATOM      5  C   UNL d   1      28.196 -13.948   2.874  0.00  0.00     0.034 A 
ATOM      6  C   UNL d   1      29.479 -14.089   3.427  0.00  0.00     0.032 A 
ATOM      7  C   UNL d   1      29.647 -14.246   4.828  0.00  0.00     0.032 A 
ATOM      8  C   UNL d   1      28.537 -14.247   5.681  0.00  0.00     0.035 A 
ATOM      9  C   UNL d   1      27.282 -14.057   5.131  0.00  0.00     0.032 A 
ATOM     10  C   UNL d   1      27.124 -13.893   3.762  0.00  0.00     0.032 A 
BRANCH   8  11
ATOM     11  N   UNL d   1      28.668 -14.364   7.084  0.00  0.00    -0.323 N 
ATOM     12  C   UNL d   1      28.532 -13.281   7.949  0.00  0.00     0.256 C 
ATOM     13  O   UNL d   1      28.149 -12.159   7.592  0.00  0.00    -0.267 OA
ATOM     14  H   UNL d   1      28.815 -15.295   7.442  0.00  0.00     0.169 HD
BRANCH  12  15
ATOM     15  C   UNL d   1      28.800 -13.479   9.407  0.00  0.00     0.032 A 
ATOM     16  C   UNL d   1      28.180 -12.609  10.323  0.00  0.00     0.017 A 
ATOM     17  C   UNL d   1      28.397 -12.736  11.697  0.00  0.00     0.002 A 
ATOM     18  C   UNL d   1      29.235 -13.740  12.174  0.00  0.00     0.007 A 
ATOM     19  C   UNL d   1      29.859 -14.618  11.283  0.00  0.00    -0.061 A 
ATOM     20  C   UNL d   1      30.750 -15.716  11.781  0.00  0.00     0.048 C 
ATOM     21  C   UNL d   1      29.643 -14.479   9.901  0.00  0.00     0.023 A 
ENDBRANCH  12  15
ENDBRANCH   8  11
ENDBRANCH   1   5
BRANCH   2  22
ATOM     22  C   UNL d   1      27.517 -14.777  -0.835  0.00  0.00     0.223 C 
BRANCH  22  23
ATOM     23  N   UNL d   1      26.969 -16.010  -1.434  0.00  0.00    -0.381 N 
ATOM     24  H   UNL d   1      27.264 -16.151  -2.407  0.00  0.00     0.160 HD
BRANCH  23  25
ATOM     25  C   UNL d   1      25.742 -16.541  -1.101  0.00  0.00     0.028 A 
ATOM     26  C   UNL d   1      25.662 -17.827  -0.545  0.00  0.00     0.031 A 
ATOM     27  C   UNL d   1      24.429 -18.395  -0.148  0.00  0.00     0.032 A 
ATOM     28  C   UNL d   1      23.248 -17.658  -0.273  0.00  0.00     0.034 A 
ATOM     29  C   UNL d   1      23.343 -16.405  -0.881  0.00  0.00     0.032 A 
ATOM     30  C   UNL d   1      24.557 -15.852  -1.277  0.00  0.00     0.031 A 
BRANCH  28  31
ATOM     31  N   UNL d   1      22.009 -18.155   0.235  0.00  0.00    -0.327 N 
ATOM     32  C   UNL d   1      21.123 -18.931  -0.506  0.00  0.00     0.225 C 
ATOM     33  O   UNL d   1      21.329 -19.326  -1.654  0.00  0.00    -0.273 OA
ATOM     34  H   UNL d   1      21.740 -17.853   1.165  0.00  0.00     0.169 HD
BRANCH  32  35
ATOM     35  C   UNL d   1      19.806 -19.329   0.157  0.00  0.00     0.070 C 
ATOM     36  C   UNL d   1      18.786 -19.836  -0.853  0.00  0.00     0.019 C 
ATOM     37  C   UNL d   1      20.107 -20.456   1.166  0.00  0.00     0.019 C 
ENDBRANCH  32  35
ENDBRANCH  28  31
ENDBRANCH  23  25
ENDBRANCH  22  23
ENDBRANCH   2  22
TORSDOF 8
ENDMDL
MODEL 4
REMARK VINA RESULT:   -10.588      3.970      6.931
REMARK INTER + INTRA:         -14.268
REMARK INTER:                 -12.974
REMARK INTRA:                  -1.294
REMARK CONF_INDEPENDENT:        2.386
REMARK UNBOUND:                -1.294
REMARK  8 active torsions:
REMARK  status: ('A' for Active; 'I' for Inactive)
REMARK    1  A    between atoms: C_6  and  C_7 
REMARK       I    between atoms: C_7  and  N_9 
REMARK    2  A    between atoms: N_9  and  C_10 
REMARK    3  A    between atoms: C_13  and  N_14 
REMARK       I    between atoms: N_14  and  C_15 
REMARK    4  A    between atoms: C_15  and  C_17 
REMARK    5  A    between atoms: C_17  and  N_18 
REMARK    6  A    between atoms: N_18  and  C_19 
REMARK    7  A    between atoms: C_22  and  N_23 
REMARK       I    between atoms: N_23  and  C_24 
REMARK    8  A    between atoms: C_24  and  C_26 
ROOT
ATOM      1  N   UNL d   1      26.752 -15.546  -2.131  0.00  0.00    -0.326 N 
ATOM      2  C   UNL d   1      26.603 -14.616  -3.164  0.00  0.00     0.239 C 
ATOM      3  O   UNL d   1      25.554 -14.377  -3.771  0.00  0.00    -0.271 OA
ATOM      4  H   UNL d   1      27.677 -15.708  -1.749  0.00  0.00     0.169 HD
ENDROOT
BRANCH   1   5
ATOM      5  C   UNL d   1      25.695 -16.376  -1.645  0.00  0.00     0.034 A 
ATOM      6  C   UNL d   1      24.345 -16.049  -1.853  0.00  0.00     0.032 A 
ATOM      7  C   UNL d   1      23.315 -16.834  -1.270  0.00  0.00     0.032 A 
ATOM      8  C   UNL d   1      23.629 -17.954  -0.492  0.00  0.00     0.035 A 
ATOM      9  C   UNL d   1      24.961 -18.295  -0.334  0.00  0.00     0.032 A 
ATOM     10  C   UNL d   1      25.963 -17.532  -0.915  0.00  0.00     0.032 A 
BRANCH   8  11
ATOM     11  N   UNL d   1      22.631 -18.779   0.074  0.00  0.00    -0.323 N 
ATOM     12  C   UNL d   1      21.277 -18.643  -0.226  0.00  0.00     0.256 C 
ATOM     13  O   UNL d   1      20.840 -17.892  -1.107  0.00  0.00    -0.267 OA
ATOM     14  H   UNL d   1      22.954 -19.522   0.675  0.00  0.00     0.169 HD
BRANCH  12  15
ATOM     15  C   UNL d   1      20.283 -19.486   0.508  0.00  0.00     0.032 A 
ATOM     16  C   UNL d   1      19.210 -20.035  -0.219  0.00  0.00     0.017 A 
ATOM     17  C   UNL d   1      18.244 -20.823   0.410  0.00  0.00     0.002 A 
ATOM     18  C   UNL d   1      18.341 -21.078   1.775  0.00  0.00     0.007 A 
ATOM     19  C   UNL d   1      19.401 -20.546   2.517  0.00  0.00    -0.061 A 
ATOM     20  C   UNL d   1      19.530 -20.825   3.984  0.00  0.00     0.048 C 
ATOM     21  C   UNL d   1      20.365 -19.746   1.880  0.00  0.00     0.023 A 
ENDBRANCH  12  15
ENDBRANCH   8  11
ENDBRANCH   1   5
BRANCH   2  22
ATOM     22  C   UNL d   1      27.854 -13.837  -3.594  0.00  0.00     0.223 C 
BRANCH  22  23
ATOM     23  N   UNL d   1      28.270 -12.978  -2.468  0.00  0.00    -0.381 N 
ATOM     24  H   UNL d   1      28.996 -12.300  -2.725  0.00  0.00     0.160 HD
BRANCH  23  25
ATOM     25  C   UNL d   1      28.281 -13.393  -1.154  0.00  0.00     0.028 A 
ATOM     26  C   UNL d   1      29.394 -14.077  -0.643  0.00  0.00     0.031 A 
ATOM     27  C   UNL d   1      29.467 -14.484   0.710  0.00  0.00     0.032 A 
ATOM     28  C   UNL d   1      28.426 -14.175   1.589  0.00  0.00     0.034 A 
ATOM     29  C   UNL d   1      27.303 -13.545   1.047  0.00  0.00     0.032 A 
ATOM     30  C   UNL d   1      27.232 -13.154  -0.286  0.00  0.00     0.031 A 
BRANCH  28  31
ATOM     31  N   UNL d   1      28.527 -14.459   2.984  0.00  0.00    -0.327 N 
ATOM     32  C   UNL d   1      27.908 -13.704   3.976  0.00  0.00     0.225 C 
ATOM     33  O   UNL d   1      27.159 -12.748   3.764  0.00  0.00    -0.273 OA
ATOM     34  H   UNL d   1      29.150 -15.211   3.256  0.00  0.00     0.169 HD
BRANCH  32  35
ATOM     35  C   UNL d   1      28.167 -14.094   5.429  0.00  0.00     0.070 C 
ATOM     36  C   UNL d   1      29.582 -14.614   5.640  0.00  0.00     0.019 C 
ATOM     37  C   UNL d   1      27.965 -12.838   6.300  0.00  0.00     0.019 C 
ENDBRANCH  32  35
ENDBRANCH  28  31
ENDBRANCH  23  25
ENDBRANCH  22  23
ENDBRANCH   2  22
TORSDOF 8
ENDMDL
MODEL 5
REMARK VINA RESULT:   -10.396      3.684      7.028
REMARK INTER + INTRA:         -14.084
REMARK INTER:                 -12.782
REMARK INTRA:                  -1.302
REMARK CONF_INDEPENDENT:        2.386
REMARK UNBOUND:                -1.302
REMARK  8 active torsions:
REMARK  status: ('A' for Active; 'I' for Inactive)
REMARK    1  A    between atoms: C_6  and  C_7 
REMARK       I    between atoms: C_7  and  N_9 
REMARK    2  A    between atoms: N_9  and  C_10 
REMARK    3  A    between atoms: C_13  and  N_14 
REMARK       I    between atoms: N_14  and  C_15 
REMARK    4  A    between atoms: C_15  and  C_17 
REMARK    5  A    between atoms: C_17  and  N_18 
REMARK    6  A    between atoms: N_18  and  C_19 
REMARK    7  A    between atoms: C_22  and  N_23 
REMARK       I    between atoms: N_23  and  C_24 
REMARK    8  A    between atoms: C_24  and  C_26 
ROOT
ATOM      1  N   UNL d   1      26.576 -15.366  -2.605  0.00  0.00    -0.326 N 
ATOM      2  C   UNL d   1      26.468 -15.161  -3.985  0.00  0.00     0.239 C 
ATOM      3  O   UNL d   1      25.547 -15.565  -4.701  0.00  0.00    -0.271 OA
ATOM      4  H   UNL d   1      27.411 -15.046  -2.128  0.00  0.00     0.169 HD
ENDROOT
BRANCH   1   5
ATOM      5  C   UNL d   1      25.627 -16.102  -1.831  0.00  0.00     0.034 A 
ATOM      6  C   UNL d   1      25.992 -17.253  -1.115  0.00  0.00     0.032 A 
ATOM      7  C   UNL d   1      25.010 -18.025  -0.441  0.00  0.00     0.032 A 
ATOM      8  C   UNL d   1      23.664 -17.641  -0.466  0.00  0.00     0.035 A 
ATOM      9  C   UNL d   1      23.322 -16.478  -1.132  0.00  0.00     0.032 A 
ATOM     10  C   UNL d   1      24.288 -15.721  -1.781  0.00  0.00     0.032 A 
BRANCH   8  11
ATOM     11  N   UNL d   1      22.664 -18.363   0.225  0.00  0.00    -0.323 N 
ATOM     12  C   UNL d   1      21.556 -18.918  -0.412  0.00  0.00     0.256 C 
ATOM     13  O   UNL d   1      21.415 -18.953  -1.642  0.00  0.00    -0.267 OA
ATOM     14  H   UNL d   1      22.819 -18.509   1.210  0.00  0.00     0.169 HD
BRANCH  12  15
ATOM     15  C   UNL d   1      20.492 -19.566   0.416  0.00  0.00     0.032 A 
ATOM     16  C   UNL d   1      20.592 -19.477   1.817  0.00  0.00     0.017 A 
ATOM     17  C   UNL d   1      19.636 -20.069   2.645  0.00  0.00     0.002 A 
ATOM     18  C   UNL d   1      18.562 -20.754   2.083  0.00  0.00     0.007 A 
ATOM     19  C   UNL d   1      18.441 -20.852   0.693  0.00  0.00    -0.061 A 
ATOM     20  C   UNL d   1      17.282 -21.571   0.070  0.00  0.00     0.048 C 
ATOM     21  C   UNL d   1      19.411 -20.262  -0.135  0.00  0.00     0.023 A 
ENDBRANCH  12  15
ENDBRANCH   8  11
ENDBRANCH   1   5
BRANCH   2  22
ATOM     22  C   UNL d   1      27.601 -14.384  -4.669  0.00  0.00     0.223 C 
BRANCH  22  23
ATOM     23  N   UNL d   1      27.847 -13.152  -3.894  0.00  0.00    -0.381 N 
ATOM     24  H   UNL d   1      28.198 -13.335  -2.947  0.00  0.00     0.160 HD
BRANCH  23  25
ATOM     25  C   UNL d   1      27.114 -11.995  -4.044  0.00  0.00     0.028 A 
ATOM     26  C   UNL d   1      26.811 -11.518  -5.329  0.00  0.00     0.031 A 
ATOM     27  C   UNL d   1      26.025 -10.359  -5.530  0.00  0.00     0.032 A 
ATOM     28  C   UNL d   1      25.497  -9.674  -4.433  0.00  0.00     0.034 A 
ATOM     29  C   UNL d   1      25.858 -10.132  -3.164  0.00  0.00     0.032 A 
ATOM     30  C   UNL d   1      26.638 -11.268  -2.970  0.00  0.00     0.031 A 
BRANCH  28  31
ATOM     31  N   UNL d   1      24.598  -8.579  -4.608  0.00  0.00    -0.327 N 
ATOM     32  C   UNL d   1      24.427  -7.902  -5.812  0.00  0.00     0.225 C 
ATOM     33  O   UNL d   1      24.981  -8.203  -6.871  0.00  0.00    -0.273 OA
ATOM     34  H   UNL d   1      24.121  -8.239  -3.781  0.00  0.00     0.169 HD
BRANCH  32  35
ATOM     35  C   UNL d   1      23.476  -6.707  -5.824  0.00  0.00     0.070 C 
ATOM     36  C   UNL d   1      23.055  -6.322  -7.235  0.00  0.00     0.019 C 
ATOM     37  C   UNL d   1      22.219  -7.094  -5.020  0.00  0.00     0.019 C 
ENDBRANCH  32  35
ENDBRANCH  28  31
ENDBRANCH  23  25
ENDBRANCH  22  23
ENDBRANCH   2  22
TORSDOF 8
ENDMDL
MODEL 6
REMARK VINA RESULT:   -10.318      7.118     10.760
REMARK INTER + INTRA:         -13.942
REMARK INTER:                 -12.705
REMARK INTRA:                  -1.237
REMARK CONF_INDEPENDENT:        2.386
REMARK UNBOUND:                -1.237
REMARK  8 active torsions:
REMARK  status: ('A' for Active; 'I' for Inactive)
REMARK    1  A    between atoms: C_6  and  C_7 
REMARK       I    between atoms: C_7  and  N_9 
REMARK    2  A    between atoms: N_9  and  C_10 
REMARK    3  A    between atoms: C_13  and  N_14 
REMARK       I    between atoms: N_14  and  C_15 
REMARK    4  A    between atoms: C_15  and  C_17 
REMARK    5  A    between atoms: C_17  and  N_18 
REMARK    6  A    between atoms: N_18  and  C_19 
REMARK    7  A    between atoms: C_22  and  N_23 
REMARK       I    between atoms: N_23  and  C_24 
REMARK    8  A    between atoms: C_24  and  C_26 
ROOT
ATOM      1  N   UNL d   1      27.158 -13.518   0.905  0.00  0.00    -0.326 N 
ATOM      2  C   UNL d   1      27.231 -14.480  -0.107  0.00  0.00     0.239 C 
ATOM      3  O   UNL d   1      27.731 -15.603   0.004  0.00  0.00    -0.271 OA
ATOM      4  H   UNL d   1      26.785 -12.602   0.683  0.00  0.00     0.169 HD
ENDROOT
BRANCH   1   5
ATOM      5  C   UNL d   1      27.681 -13.703   2.222  0.00  0.00     0.034 A 
ATOM      6  C   UNL d   1      29.050 -13.921   2.449  0.00  0.00     0.032 A 
ATOM      7  C   UNL d   1      29.527 -14.207   3.755  0.00  0.00     0.032 A 
ATOM      8  C   UNL d   1      28.643 -14.261   4.839  0.00  0.00     0.035 A 
ATOM      9  C   UNL d   1      27.304 -13.997   4.612  0.00  0.00     0.032 A 
ATOM     10  C   UNL d   1      26.845 -13.707   3.336  0.00  0.00     0.032 A 
BRANCH   8  11
ATOM     11  N   UNL d   1      29.087 -14.507   6.158  0.00  0.00    -0.323 N 
ATOM     12  C   UNL d   1      28.900 -13.602   7.201  0.00  0.00     0.256 C 
ATOM     13  O   UNL d   1      28.215 -12.575   7.106  0.00  0.00    -0.267 OA
ATOM     14  H   UNL d   1      29.506 -15.409   6.328  0.00  0.00     0.169 HD
BRANCH  12  15
ATOM     15  C   UNL d   1      29.505 -13.898   8.537  0.00  0.00     0.032 A 
ATOM     16  C   UNL d   1      30.860 -14.273   8.586  0.00  0.00     0.017 A 
ATOM     17  C   UNL d   1      31.480 -14.571   9.801  0.00  0.00     0.002 A 
ATOM     18  C   UNL d   1      30.754 -14.492  10.986  0.00  0.00     0.007 A 
ATOM     19  C   UNL d   1      29.406 -14.117  10.961  0.00  0.00    -0.061 A 
ATOM     20  C   UNL d   1      28.614 -14.010  12.229  0.00  0.00     0.048 C 
ATOM     21  C   UNL d   1      28.785 -13.827   9.734  0.00  0.00     0.023 A 
ENDBRANCH  12  15
ENDBRANCH   8  11
ENDBRANCH   1   5
BRANCH   2  22
ATOM     22  C   UNL d   1      26.658 -14.099  -1.480  0.00  0.00     0.223 C 
BRANCH  22  23
ATOM     23  N   UNL d   1      26.175 -15.331  -2.133  0.00  0.00    -0.381 N 
ATOM     24  H   UNL d   1      26.108 -15.246  -3.154  0.00  0.00     0.160 HD
BRANCH  23  25
ATOM     25  C   UNL d   1      25.287 -16.208  -1.549  0.00  0.00     0.028 A 
ATOM     26  C   UNL d   1      23.928 -15.870  -1.451  0.00  0.00     0.031 A 
ATOM     27  C   UNL d   1      22.975 -16.757  -0.899  0.00  0.00     0.032 A 
ATOM     28  C   UNL d   1      23.370 -18.024  -0.462  0.00  0.00     0.034 A 
ATOM     29  C   UNL d   1      24.734 -18.318  -0.516  0.00  0.00     0.032 A 
ATOM     30  C   UNL d   1      25.670 -17.439  -1.053  0.00  0.00     0.031 A 
BRANCH  28  31
ATOM     31  N   UNL d   1      22.412 -18.986  -0.019  0.00  0.00    -0.327 N 
ATOM     32  C   UNL d   1      21.059 -18.937  -0.343  0.00  0.00     0.225 C 
ATOM     33  O   UNL d   1      20.546 -18.102  -1.090  0.00  0.00    -0.273 OA
ATOM     34  H   UNL d   1      22.737 -19.694   0.628  0.00  0.00     0.169 HD
BRANCH  32  35
ATOM     35  C   UNL d   1      20.148 -20.002   0.263  0.00  0.00     0.070 C 
ATOM     36  C   UNL d   1      19.867 -19.746   1.737  0.00  0.00     0.019 C 
ATOM     37  C   UNL d   1      18.812 -19.976  -0.507  0.00  0.00     0.019 C 
ENDBRANCH  32  35
ENDBRANCH  28  31
ENDBRANCH  23  25
ENDBRANCH  22  23
ENDBRANCH   2  22
TORSDOF 8
ENDMDL
MODEL 7
REMARK VINA RESULT:   -10.079      3.702      7.290
REMARK INTER + INTRA:         -13.810
REMARK INTER:                 -12.466
REMARK INTRA:                  -1.344
REMARK CONF_INDEPENDENT:        2.386
REMARK UNBOUND:                -1.344
REMARK  8 active torsions:
REMARK  status: ('A' for Active; 'I' for Inactive)
REMARK    1  A    between atoms: C_6  and  C_7 
REMARK       I    between atoms: C_7  and  N_9 
REMARK    2  A    between atoms: N_9  and  C_10 
REMARK    3  A    between atoms: C_13  and  N_14 
REMARK       I    between atoms: N_14  and  C_15 
REMARK    4  A    between atoms: C_15  and  C_17 
REMARK    5  A    between atoms: C_17  and  N_18 
REMARK    6  A    between atoms: N_18  and  C_19 
REMARK    7  A    between atoms: C_22  and  N_23 
REMARK       I    between atoms: N_23  and  C_24 
REMARK    8  A    between atoms: C_24  and  C_26 
ROOT
ATOM      1  N   UNL d   1      26.716 -15.535  -2.513  0.00  0.00    -0.326 N 
ATOM      2  C   UNL d   1      26.471 -14.986  -3.776  0.00  0.00     0.239 C 
ATOM      3  O   UNL d   1      25.397 -15.031  -4.383  0.00  0.00    -0.271 OA
ATOM      4  H   UNL d   1      27.657 -15.498  -2.138  0.00  0.00     0.169 HD
ENDROOT
BRANCH   1   5
ATOM      5  C   UNL d   1      25.743 -16.253  -1.752  0.00  0.00     0.034 A 
ATOM      6  C   UNL d   1      26.081 -17.399  -1.014  0.00  0.00     0.032 A 
ATOM      7  C   UNL d   1      25.075 -18.153  -0.354  0.00  0.00     0.032 A 
ATOM      8  C   UNL d   1      23.734 -17.757  -0.414  0.00  0.00     0.035 A 
ATOM      9  C   UNL d   1      23.419 -16.599  -1.102  0.00  0.00     0.032 A 
ATOM     10  C   UNL d   1      24.406 -15.860  -1.737  0.00  0.00     0.032 A 
BRANCH   8  11
ATOM     11  N   UNL d   1      22.712 -18.461   0.261  0.00  0.00    -0.323 N 
ATOM     12  C   UNL d   1      21.584 -18.963  -0.386  0.00  0.00     0.256 C 
ATOM     13  O   UNL d   1      21.440 -18.965  -1.615  0.00  0.00    -0.267 OA
ATOM     14  H   UNL d   1      22.863 -18.636   1.243  0.00  0.00     0.169 HD
BRANCH  12  15
ATOM     15  C   UNL d   1      20.501 -19.595   0.430  0.00  0.00     0.032 A 
ATOM     16  C   UNL d   1      20.577 -19.494   1.832  0.00  0.00     0.017 A 
ATOM     17  C   UNL d   1      19.602 -20.070   2.648  0.00  0.00     0.002 A 
ATOM     18  C   UNL d   1      18.532 -20.751   2.073  0.00  0.00     0.007 A 
ATOM     19  C   UNL d   1      18.434 -20.861   0.683  0.00  0.00    -0.061 A 
ATOM     20  C   UNL d   1      17.280 -21.575   0.046  0.00  0.00     0.048 C 
ATOM     21  C   UNL d   1      19.424 -20.286  -0.134  0.00  0.00     0.023 A 
ENDBRANCH  12  15
ENDBRANCH   8  11
ENDBRANCH   1   5
BRANCH   2  22
ATOM     22  C   UNL d   1      27.644 -14.284  -4.475  0.00  0.00     0.223 C 
BRANCH  22  23
ATOM     23  N   UNL d   1      27.108 -13.132  -5.226  0.00  0.00    -0.381 N 
ATOM     24  H   UNL d   1      27.549 -13.009  -6.144  0.00  0.00     0.160 HD
BRANCH  23  25
ATOM     25  C   UNL d   1      26.643 -11.981  -4.629  0.00  0.00     0.028 A 
ATOM     26  C   UNL d   1      26.916 -11.733  -3.275  0.00  0.00     0.031 A 
ATOM     27  C   UNL d   1      26.496 -10.545  -2.632  0.00  0.00     0.032 A 
ATOM     28  C   UNL d   1      25.817  -9.561  -3.356  0.00  0.00     0.034 A 
ATOM     29  C   UNL d   1      25.506  -9.853  -4.686  0.00  0.00     0.032 A 
ATOM     30  C   UNL d   1      25.915 -11.026  -5.313  0.00  0.00     0.031 A 
BRANCH  28  31
ATOM     31  N   UNL d   1      25.494  -8.301  -2.769  0.00  0.00    -0.327 N 
ATOM     32  C   UNL d   1      26.426  -7.470  -2.154  0.00  0.00     0.225 C 
ATOM     33  O   UNL d   1      27.637  -7.695  -2.099  0.00  0.00    -0.273 OA
ATOM     34  H   UNL d   1      24.513  -8.046  -2.739  0.00  0.00     0.169 HD
BRANCH  32  35
ATOM     35  C   UNL d   1      25.914  -6.183  -1.512  0.00  0.00     0.070 C 
ATOM     36  C   UNL d   1      24.746  -5.583  -2.283  0.00  0.00     0.019 C 
ATOM     37  C   UNL d   1      25.443  -6.522  -0.083  0.00  0.00     0.019 C 
ENDBRANCH  32  35
ENDBRANCH  28  31
ENDBRANCH  23  25
ENDBRANCH  22  23
ENDBRANCH   2  22
TORSDOF 8
ENDMDL
MODEL 8
REMARK VINA RESULT:    -9.783      1.676      2.124
REMARK INTER + INTRA:         -13.855
REMARK INTER:                 -12.169
REMARK INTRA:                  -1.685
REMARK CONF_INDEPENDENT:        2.386
REMARK UNBOUND:                -1.685
REMARK  8 active torsions:
REMARK  status: ('A' for Active; 'I' for Inactive)
REMARK    1  A    between atoms: C_6  and  C_7 
REMARK       I    between atoms: C_7  and  N_9 
REMARK    2  A    between atoms: N_9  and  C_10 
REMARK    3  A    between atoms: C_13  and  N_14 
REMARK       I    between atoms: N_14  and  C_15 
REMARK    4  A    between atoms: C_15  and  C_17 
REMARK    5  A    between atoms: C_17  and  N_18 
REMARK    6  A    between atoms: N_18  and  C_19 
REMARK    7  A    between atoms: C_22  and  N_23 
REMARK       I    between atoms: N_23  and  C_24 
REMARK    8  A    between atoms: C_24  and  C_26 
ROOT
ATOM      1  N   UNL d   1      26.273 -15.039  -2.348  0.00  0.00    -0.326 N 
ATOM      2  C   UNL d   1      26.116 -14.585  -3.661  0.00  0.00     0.239 C 
ATOM      3  O   UNL d   1      25.179 -14.872  -4.413  0.00  0.00    -0.271 OA
ATOM      4  H   UNL d   1      27.117 -14.792  -1.843  0.00  0.00     0.169 HD
ENDROOT
BRANCH   1   5
ATOM      5  C   UNL d   1      25.365 -15.930  -1.697  0.00  0.00     0.034 A 
ATOM      6  C   UNL d   1      25.788 -17.163  -1.174  0.00  0.00     0.032 A 
ATOM      7  C   UNL d   1      24.847 -18.075  -0.628  0.00  0.00     0.032 A 
ATOM      8  C   UNL d   1      23.485 -17.752  -0.586  0.00  0.00     0.035 A 
ATOM      9  C   UNL d   1      23.086 -16.514  -1.059  0.00  0.00     0.032 A 
ATOM     10  C   UNL d   1      24.011 -15.623  -1.582  0.00  0.00     0.032 A 
BRANCH   8  11
ATOM     11  N   UNL d   1      22.525 -18.619  -0.016  0.00  0.00    -0.323 N 
ATOM     12  C   UNL d   1      21.174 -18.576  -0.352  0.00  0.00     0.256 C 
ATOM     13  O   UNL d   1      20.714 -17.882  -1.269  0.00  0.00    -0.267 OA
ATOM     14  H   UNL d   1      22.877 -19.320   0.617  0.00  0.00     0.169 HD
BRANCH  12  15
ATOM     15  C   UNL d   1      20.214 -19.454   0.387  0.00  0.00     0.032 A 
ATOM     16  C   UNL d   1      19.157 -20.040  -0.334  0.00  0.00     0.017 A 
ATOM     17  C   UNL d   1      18.224 -20.863   0.299  0.00  0.00     0.002 A 
ATOM     18  C   UNL d   1      18.338 -21.116   1.664  0.00  0.00     0.007 A 
ATOM     19  C   UNL d   1      19.382 -20.547   2.399  0.00  0.00    -0.061 A 
ATOM     20  C   UNL d   1      19.531 -20.824   3.865  0.00  0.00     0.048 C 
ATOM     21  C   UNL d   1      20.314 -19.713   1.758  0.00  0.00     0.023 A 
ENDBRANCH  12  15
ENDBRANCH   8  11
ENDBRANCH   1   5
BRANCH   2  22
ATOM     22  C   UNL d   1      27.210 -13.665  -4.221  0.00  0.00     0.223 C 
BRANCH  22  23
ATOM     23  N   UNL d   1      27.345 -13.939  -5.665  0.00  0.00    -0.381 N 
ATOM     24  H   UNL d   1      26.494 -14.335  -6.082  0.00  0.00     0.160 HD
BRANCH  23  25
ATOM     25  C   UNL d   1      28.529 -14.308  -6.266  0.00  0.00     0.028 A 
ATOM     26  C   UNL d   1      29.251 -13.375  -7.026  0.00  0.00     0.031 A 
ATOM     27  C   UNL d   1      30.491 -13.697  -7.625  0.00  0.00     0.032 A 
ATOM     28  C   UNL d   1      31.049 -14.964  -7.437  0.00  0.00     0.034 A 
ATOM     29  C   UNL d   1      30.289 -15.894  -6.726  0.00  0.00     0.032 A 
ATOM     30  C   UNL d   1      29.064 -15.576  -6.145  0.00  0.00     0.031 A 
BRANCH  28  31
ATOM     31  N   UNL d   1      32.356 -15.276  -7.921  0.00  0.00    -0.327 N 
ATOM     32  C   UNL d   1      32.762 -16.555  -8.289  0.00  0.00     0.225 C 
ATOM     33  O   UNL d   1      32.030 -17.547  -8.298  0.00  0.00    -0.273 OA
ATOM     34  H   UNL d   1      33.038 -14.525  -7.918  0.00  0.00     0.169 HD
BRANCH  32  35
ATOM     35  C   UNL d   1      34.214 -16.740  -8.724  0.00  0.00     0.070 C 
ATOM     36  C   UNL d   1      34.398 -17.971  -9.600  0.00  0.00     0.019 C 
ATOM     37  C   UNL d   1      34.629 -15.492  -9.529  0.00  0.00     0.019 C 
ENDBRANCH  32  35
ENDBRANCH  28  31
ENDBRANCH  23  25
ENDBRANCH  22  23
ENDBRANCH   2  22
TORSDOF 8
ENDMDL
MODEL 9
REMARK VINA RESULT:    -9.517      7.804     11.588
REMARK INTER + INTRA:         -13.553
REMARK INTER:                 -11.903
REMARK INTRA:                  -1.650
REMARK CONF_INDEPENDENT:        2.386
REMARK UNBOUND:                -1.650
REMARK  8 active torsions:
REMARK  status: ('A' for Active; 'I' for Inactive)
REMARK    1  A    between atoms: C_6  and  C_7 
REMARK       I    between atoms: C_7  and  N_9 
REMARK    2  A    between atoms: N_9  and  C_10 
REMARK    3  A    between atoms: C_13  and  N_14 
REMARK       I    between atoms: N_14  and  C_15 
REMARK    4  A    between atoms: C_15  and  C_17 
REMARK    5  A    between atoms: C_17  and  N_18 
REMARK    6  A    between atoms: N_18  and  C_19 
REMARK    7  A    between atoms: C_22  and  N_23 
REMARK       I    between atoms: N_23  and  C_24 
REMARK    8  A    between atoms: C_24  and  C_26 
ROOT
ATOM      1  N   UNL d   1      28.616 -15.012   1.490  0.00  0.00    -0.326 N 
ATOM      2  C   UNL d   1      27.703 -14.519   0.552  0.00  0.00     0.239 C 
ATOM      3  O   UNL d   1      27.065 -13.467   0.655  0.00  0.00    -0.271 OA
ATOM      4  H   UNL d   1      29.034 -15.922   1.334  0.00  0.00     0.169 HD
ENDROOT
BRANCH   1   5
ATOM      5  C   UNL d   1      28.923 -14.360   2.724  0.00  0.00     0.034 A 
ATOM      6  C   UNL d   1      30.021 -13.494   2.849  0.00  0.00     0.032 A 
ATOM      7  C   UNL d   1      30.364 -12.943   4.112  0.00  0.00     0.032 A 
ATOM      8  C   UNL d   1      29.604 -13.242   5.248  0.00  0.00     0.035 A 
ATOM      9  C   UNL d   1      28.495 -14.057   5.105  0.00  0.00     0.032 A 
ATOM     10  C   UNL d   1      28.158 -14.584   3.867  0.00  0.00     0.032 A 
BRANCH   8  11
ATOM     11  N   UNL d   1      29.894 -12.683   6.514  0.00  0.00    -0.323 N 
ATOM     12  C   UNL d   1      29.098 -11.708   7.111  0.00  0.00     0.256 C 
ATOM     13  O   UNL d   1      28.002 -11.345   6.662  0.00  0.00    -0.267 OA
ATOM     14  H   UNL d   1      30.689 -13.068   7.000  0.00  0.00     0.169 HD
BRANCH  12  15
ATOM     15  C   UNL d   1      29.546 -11.093   8.399  0.00  0.00     0.032 A 
ATOM     16  C   UNL d   1      29.809  -9.711   8.421  0.00  0.00     0.017 A 
ATOM     17  C   UNL d   1      30.239  -9.080   9.591  0.00  0.00     0.002 A 
ATOM     18  C   UNL d   1      30.405  -9.822  10.757  0.00  0.00     0.007 A 
ATOM     19  C   UNL d   1      30.145 -11.196  10.759  0.00  0.00    -0.061 A 
ATOM     20  C   UNL d   1      30.301 -12.008  12.009  0.00  0.00     0.048 C 
ATOM     21  C   UNL d   1      29.721 -11.828   9.576  0.00  0.00     0.023 A 
ENDBRANCH  12  15
ENDBRANCH   8  11
ENDBRANCH   1   5
BRANCH   2  22
ATOM     22  C   UNL d   1      27.458 -15.369  -0.702  0.00  0.00     0.223 C 
BRANCH  22  23
ATOM     23  N   UNL d   1      26.037 -15.235  -1.078  0.00  0.00    -0.381 N 
ATOM     24  H   UNL d   1      25.686 -14.275  -0.991  0.00  0.00     0.160 HD
BRANCH  23  25
ATOM     25  C   UNL d   1      25.102 -16.230  -0.895  0.00  0.00     0.028 A 
ATOM     26  C   UNL d   1      25.490 -17.471  -0.366  0.00  0.00     0.031 A 
ATOM     27  C   UNL d   1      24.557 -18.505  -0.122  0.00  0.00     0.032 A 
ATOM     28  C   UNL d   1      23.199 -18.296  -0.376  0.00  0.00     0.034 A 
ATOM     29  C   UNL d   1      22.842 -17.077  -0.955  0.00  0.00     0.032 A 
ATOM     30  C   UNL d   1      23.764 -16.064  -1.202  0.00  0.00     0.031 A 
BRANCH  28  31
ATOM     31  N   UNL d   1      22.221 -19.273  -0.021  0.00  0.00    -0.327 N 
ATOM     32  C   UNL d   1      20.862 -19.142  -0.289  0.00  0.00     0.225 C 
ATOM     33  O   UNL d   1      20.357 -18.206  -0.911  0.00  0.00    -0.273 OA
ATOM     34  H   UNL d   1      22.541 -20.066   0.524  0.00  0.00     0.169 HD
BRANCH  32  35
ATOM     35  C   UNL d   1      19.931 -20.244   0.214  0.00  0.00     0.070 C 
ATOM     36  C   UNL d   1      19.685 -20.146   1.713  0.00  0.00     0.019 C 
ATOM     37  C   UNL d   1      18.583 -20.096  -0.520  0.00  0.00     0.019 C 
ENDBRANCH  32  35
ENDBRANCH  28  31
ENDBRANCH  23  25
ENDBRANCH  22  23
ENDBRANCH   2  22
TORSDOF 8
ENDMDL
