MODEL 1
REMARK VINA RESULT:    -7.995      0.000      0.000
REMARK INTER + INTRA:         -17.217
REMARK INTER:                 -11.575
REMARK INTRA:                  -5.643
REMARK CONF_INDEPENDENT:        3.580
REMARK UNBOUND:                -5.643
REMARK  12 active torsions:
REMARK  status: ('A' for Active; 'I' for Inactive)
REMARK    1  A    between atoms: C_3  and  C_2 
REMARK    2  A    between atoms: C_3  and  C_33 
REMARK    3  A    between atoms: C_3  and  C_4 
REMARK       I    between atoms: C_4  and  N_6 
REMARK    4  A    between atoms: N_6  and  C_7 
REMARK    5  A    between atoms: C_14  and  N_6 
REMARK    6  A    between atoms: C_7  and  C_8 
REMARK    7  A    between atoms: C_14  and  C_24 
REMARK    8  A    between atoms: C_14  and  C_15 
REMARK       I    between atoms: C_15  and  N_17 
REMARK    9  A    between atoms: N_17  and  C_18 
REMARK   10  A    between atoms: C_25  and  O_26 
REMARK   11  A    between atoms: C_28  and  O_29 
REMARK   12  A    between atoms: C_31  and  O_32 
ROOT
ATOM      1  C   UNL d   1      27.251 -13.585  -3.326  0.00  0.00     0.218 C 
ENDROOT
BRANCH   1   2
ATOM      2  C   UNL d   1      27.101 -12.810  -4.674  0.00  0.00     0.040 C 
ATOM      3  C   UNL d   1      27.851 -12.972  -5.860  0.00  0.00     0.080 C 
ATOM      4  C   UNL d   1      27.724 -12.199  -6.995  0.00  0.00     0.073 C 
ATOM      5  C   UNL d   1      26.666 -11.358  -7.102  0.00  0.00     0.071 C 
ATOM      6  C   UNL d   1      25.796 -11.215  -6.035  0.00  0.00     0.073 C 
ATOM      7  C   UNL d   1      26.031 -11.904  -4.825  0.00  0.00     0.080 C 
BRANCH   3   8
ATOM      8  O   UNL d   1      28.757 -13.911  -6.224  0.00  0.00    -0.360 OA
ATOM      9  H   UNL d   1      28.346 -14.763  -6.340  0.00  0.00     0.217 HD
ENDBRANCH   3   8
BRANCH   5  10
ATOM     10  O   UNL d   1      26.464 -10.737  -8.291  0.00  0.00    -0.361 OA
ATOM     11  H   UNL d   1      25.542 -10.414  -8.288  0.00  0.00     0.217 HD
ENDBRANCH   5  10
BRANCH   7  12
ATOM     12  O   UNL d   1      25.154 -11.716  -3.791  0.00  0.00    -0.360 OA
ATOM     13  H   UNL d   1      24.405 -12.332  -3.889  0.00  0.00     0.217 HD
ENDBRANCH   7  12
ENDBRANCH   1   2
BRANCH   1  14
ATOM     14  C   UNL d   1      25.970 -14.451  -3.085  0.00  0.00     0.245 C 
ATOM     15  O   UNL d   1      24.921 -14.447  -3.760  0.00  0.00    -0.271 OA
ATOM     16  N   UNL d   1      26.129 -15.203  -1.970  0.00  0.00    -0.354 N 
ATOM     17  H   UNL d   1      27.022 -15.093  -1.565  0.00  0.00     0.162 HD
BRANCH  16  18
ATOM     18  C   UNL d   1      25.210 -15.950  -1.159  0.00  0.00     0.084 C 
ATOM     19  C   UNL d   1      23.737 -15.962  -1.645  0.00  0.00     0.025 C 
ATOM     20  C   UNL d   1      22.887 -16.826  -0.749  0.00  0.00     0.002 C 
ATOM     21  C   UNL d   1      23.518 -18.197  -0.705  0.00  0.00     0.000 C 
ATOM     22  C   UNL d   1      24.941 -18.150  -0.147  0.00  0.00     0.002 C 
ATOM     23  C   UNL d   1      25.833 -17.293  -0.998  0.00  0.00     0.025 C 
ENDBRANCH  16  18
ENDBRANCH   1  14
BRANCH   1  24
ATOM     24  N   UNL d   1      28.509 -14.481  -3.154  0.00  0.00    -0.328 N 
ATOM     25  C   UNL d   1      28.597 -15.610  -3.984  0.00  0.00     0.229 C 
ATOM     26  O   UNL d   1      27.703 -15.900  -4.786  0.00  0.00    -0.273 OA
BRANCH  25  27
ATOM     27  C   UNL d   1      29.827 -16.535  -3.884  0.00  0.00     0.110 C 
BRANCH  27  28
ATOM     28  C   UNL d   1      30.196 -17.310  -5.165  0.00  0.00    -0.045 C 
ATOM     29  C   UNL d   1      30.404 -18.701  -5.210  0.00  0.00     0.008 C 
ATOM     30  C   UNL d   1      31.232 -19.254  -6.179  0.00  0.00     0.001 C 
ATOM     31  C   UNL d   1      31.507 -18.525  -7.322  0.00  0.00     0.000 C 
ATOM     32  C   UNL d   1      31.054 -17.213  -7.426  0.00  0.00     0.001 C 
ATOM     33  C   UNL d   1      30.441 -16.595  -6.339  0.00  0.00     0.008 C 
ENDBRANCH  27  28
BRANCH  27  34
ATOM     34  C   UNL d   1      30.085 -17.268  -2.518  0.00  0.00     0.014 C 
ATOM     35  C   UNL d   1      29.272 -17.450  -1.269  0.00  0.00     0.006 C 
ENDBRANCH  27  34
ENDBRANCH  25  27
BRANCH  24  36
ATOM     36  C   UNL d   1      29.519 -14.258  -2.071  0.00  0.00     0.192 C 
BRANCH  36  37
ATOM     37  C   UNL d   1      28.928 -14.102  -0.725  0.00  0.00     0.071 A 
ATOM     38  C   UNL d   1      29.382 -14.629   0.434  0.00  0.00     0.037 A 
ATOM     39  C   UNL d   1      28.479 -14.407   1.460  0.00  0.00     0.035 A 
ATOM     40  C   UNL d   1      27.506 -13.654   0.879  0.00  0.00     0.049 A 
ATOM     41  C   UNL d   1      26.281 -13.173   1.511  0.00  0.00     0.076 C 
ATOM     42  O   UNL d   1      27.755 -13.447  -0.460  0.00  0.00    -0.318 OA
ENDBRANCH  36  37
ENDBRANCH  24  36
ENDBRANCH   1  24
TORSDOF 12
ENDMDL
MODEL 2
REMARK VINA RESULT:    -7.993      2.365      7.574
REMARK INTER + INTRA:         -16.992
REMARK INTER:                 -11.573
REMARK INTRA:                  -5.419
REMARK CONF_INDEPENDENT:        3.580
REMARK UNBOUND:                -5.419
REMARK  12 active torsions:
REMARK  status: ('A' for Active; 'I' for Inactive)
REMARK    1  A    between atoms: C_3  and  C_2 
REMARK    2  A    between atoms: C_3  and  C_33 
REMARK    3  A    between atoms: C_3  and  C_4 
REMARK       I    between atoms: C_4  and  N_6 
REMARK    4  A    between atoms: N_6  and  C_7 
REMARK    5  A    between atoms: C_14  and  N_6 
REMARK    6  A    between atoms: C_7  and  C_8 
REMARK    7  A    between atoms: C_14  and  C_24 
REMARK    8  A    between atoms: C_14  and  C_15 
REMARK       I    between atoms: C_15  and  N_17 
REMARK    9  A    between atoms: N_17  and  C_18 
REMARK   10  A    between atoms: C_25  and  O_26 
REMARK   11  A    between atoms: C_28  and  O_29 
REMARK   12  A    between atoms: C_31  and  O_32 
ROOT
ATOM      1  C   UNL d   1      26.506 -15.732  -1.472  0.00  0.00     0.218 C 
ENDROOT
BRANCH   1   2
ATOM      2  C   UNL d   1      25.240 -16.521  -1.007  0.00  0.00     0.040 C 
ATOM      3  C   UNL d   1      23.883 -16.200  -1.231  0.00  0.00     0.080 C 
ATOM      4  C   UNL d   1      22.804 -16.895  -0.725  0.00  0.00     0.073 C 
ATOM      5  C   UNL d   1      23.015 -18.104  -0.149  0.00  0.00     0.071 C 
ATOM      6  C   UNL d   1      24.309 -18.569   0.011  0.00  0.00     0.073 C 
ATOM      7  C   UNL d   1      25.407 -17.772  -0.379  0.00  0.00     0.080 C 
BRANCH   3   8
ATOM      8  O   UNL d   1      23.304 -15.262  -2.019  0.00  0.00    -0.360 OA
ATOM      9  H   UNL d   1      23.895 -14.977  -2.711  0.00  0.00     0.217 HD
ENDBRANCH   3   8
BRANCH   5  10
ATOM     10  O   UNL d   1      21.930 -18.847   0.187  0.00  0.00    -0.361 OA
ATOM     11  H   UNL d   1      22.264 -19.648   0.635  0.00  0.00     0.217 HD
ENDBRANCH   5  10
BRANCH   7  12
ATOM     12  O   UNL d   1      26.668 -18.266  -0.183  0.00  0.00    -0.360 OA
ATOM     13  H   UNL d   1      27.168 -17.653   0.385  0.00  0.00     0.217 HD
ENDBRANCH   7  12
ENDBRANCH   1   2
BRANCH   1  14
ATOM     14  C   UNL d   1      26.363 -15.382  -2.990  0.00  0.00     0.245 C 
ATOM     15  O   UNL d   1      25.306 -15.263  -3.639  0.00  0.00    -0.271 OA
ATOM     16  N   UNL d   1      27.591 -15.269  -3.551  0.00  0.00    -0.354 N 
ATOM     17  H   UNL d   1      28.318 -15.381  -2.893  0.00  0.00     0.162 HD
BRANCH  16  18
ATOM     18  C   UNL d   1      28.041 -15.229  -4.913  0.00  0.00     0.084 C 
ATOM     19  C   UNL d   1      28.022 -13.833  -5.589  0.00  0.00     0.025 C 
ATOM     20  C   UNL d   1      28.573 -13.911  -6.989  0.00  0.00     0.002 C 
ATOM     21  C   UNL d   1      29.952 -14.519  -6.904  0.00  0.00     0.000 C 
ATOM     22  C   UNL d   1      29.917 -15.925  -6.304  0.00  0.00     0.002 C 
ATOM     23  C   UNL d   1      29.366 -15.909  -4.907  0.00  0.00     0.025 C 
ENDBRANCH  16  18
ENDBRANCH   1  14
BRANCH   1  24
ATOM     24  N   UNL d   1      26.872 -14.443  -0.686  0.00  0.00    -0.328 N 
ATOM     25  C   UNL d   1      27.128 -14.592   0.686  0.00  0.00     0.229 C 
ATOM     26  O   UNL d   1      27.031 -15.686   1.251  0.00  0.00    -0.273 OA
BRANCH  25  27
ATOM     27  C   UNL d   1      27.518 -13.359   1.526  0.00  0.00     0.110 C 
BRANCH  27  28
ATOM     28  C   UNL d   1      28.211 -13.650   2.873  0.00  0.00    -0.045 C 
ATOM     29  C   UNL d   1      29.607 -13.698   3.045  0.00  0.00     0.008 C 
ATOM     30  C   UNL d   1      30.161 -14.468   4.061  0.00  0.00     0.001 C 
ATOM     31  C   UNL d   1      29.369 -14.835   5.132  0.00  0.00     0.000 C 
ATOM     32  C   UNL d   1      28.009 -14.537   5.116  0.00  0.00     0.001 C 
ATOM     33  C   UNL d   1      27.426 -13.987   3.977  0.00  0.00     0.008 C 
ENDBRANCH  27  28
BRANCH  27  34
ATOM     34  C   UNL d   1      26.567 -12.109   1.480  0.00  0.00     0.014 C 
ATOM     35  C   UNL d   1      26.632 -10.734   2.077  0.00  0.00     0.006 C 
ENDBRANCH  27  34
ENDBRANCH  25  27
BRANCH  24  36
ATOM     36  C   UNL d   1      26.823 -13.079  -1.303  0.00  0.00     0.192 C 
BRANCH  36  37
ATOM     37  C   UNL d   1      28.074 -12.685  -1.985  0.00  0.00     0.071 A 
ATOM     38  C   UNL d   1      28.340 -11.506  -2.588  0.00  0.00     0.037 A 
ATOM     39  C   UNL d   1      29.550 -11.562  -3.262  0.00  0.00     0.035 A 
ATOM     40  C   UNL d   1      30.029 -12.800  -2.963  0.00  0.00     0.049 A 
ATOM     41  C   UNL d   1      31.268 -13.396  -3.455  0.00  0.00     0.076 C 
ATOM     42  O   UNL d   1      29.148 -13.512  -2.178  0.00  0.00    -0.318 OA
ENDBRANCH  36  37
ENDBRANCH  24  36
ENDBRANCH   1  24
TORSDOF 12
ENDMDL
MODEL 3
REMARK VINA RESULT:    -7.496      2.424      7.632
REMARK INTER + INTRA:         -16.836
REMARK INTER:                 -11.075
REMARK INTRA:                  -5.761
REMARK CONF_INDEPENDENT:        3.580
REMARK UNBOUND:                -5.761
REMARK  12 active torsions:
REMARK  status: ('A' for Active; 'I' for Inactive)
REMARK    1  A    between atoms: C_3  and  C_2 
REMARK    2  A    between atoms: C_3  and  C_33 
REMARK    3  A    between atoms: C_3  and  C_4 
REMARK       I    between atoms: C_4  and  N_6 
REMARK    4  A    between atoms: N_6  and  C_7 
REMARK    5  A    between atoms: C_14  and  N_6 
REMARK    6  A    between atoms: C_7  and  C_8 
REMARK    7  A    between atoms: C_14  and  C_24 
REMARK    8  A    between atoms: C_14  and  C_15 
REMARK       I    between atoms: C_15  and  N_17 
REMARK    9  A    between atoms: N_17  and  C_18 
REMARK   10  A    between atoms: C_25  and  O_26 
REMARK   11  A    between atoms: C_28  and  O_29 
REMARK   12  A    between atoms: C_31  and  O_32 
ROOT
ATOM      1  C   UNL d   1      27.699 -16.044  -0.967  0.00  0.00     0.218 C 
ENDROOT
BRANCH   1   2
ATOM      2  C   UNL d   1      26.294 -16.668  -0.682  0.00  0.00     0.040 C 
ATOM      3  C   UNL d   1      25.032 -16.207  -1.118  0.00  0.00     0.080 C 
ATOM      4  C   UNL d   1      23.817 -16.756  -0.765  0.00  0.00     0.073 C 
ATOM      5  C   UNL d   1      23.798 -17.958  -0.137  0.00  0.00     0.071 C 
ATOM      6  C   UNL d   1      24.991 -18.557   0.229  0.00  0.00     0.073 C 
ATOM      7  C   UNL d   1      26.220 -17.904  -0.008  0.00  0.00     0.080 C 
BRANCH   3   8
ATOM      8  O   UNL d   1      24.690 -15.243  -2.006  0.00  0.00    -0.360 OA
ATOM      9  H   UNL d   1      25.178 -14.439  -1.851  0.00  0.00     0.217 HD
ENDBRANCH   3   8
BRANCH   5  10
ATOM     10  O   UNL d   1      22.597 -18.561   0.047  0.00  0.00    -0.361 OA
ATOM     11  H   UNL d   1      22.755 -19.338   0.617  0.00  0.00     0.217 HD
ENDBRANCH   5  10
BRANCH   7  12
ATOM     12  O   UNL d   1      27.372 -18.527   0.389  0.00  0.00    -0.360 OA
ATOM     13  H   UNL d   1      28.137 -17.981   0.131  0.00  0.00     0.217 HD
ENDBRANCH   7  12
ENDBRANCH   1   2
BRANCH   1  14
ATOM     14  C   UNL d   1      27.702 -15.424  -2.404  0.00  0.00     0.245 C 
ATOM     15  O   UNL d   1      26.934 -14.548  -2.847  0.00  0.00    -0.271 OA
ATOM     16  N   UNL d   1      28.655 -16.022  -3.157  0.00  0.00    -0.354 N 
ATOM     17  H   UNL d   1      29.180 -16.684  -2.647  0.00  0.00     0.162 HD
BRANCH  16  18
ATOM     18  C   UNL d   1      28.914 -16.038  -4.569  0.00  0.00     0.084 C 
ATOM     19  C   UNL d   1      28.883 -14.658  -5.277  0.00  0.00     0.025 C 
ATOM     20  C   UNL d   1      29.229 -14.800  -6.737  0.00  0.00     0.002 C 
ATOM     21  C   UNL d   1      30.569 -15.490  -6.823  0.00  0.00     0.000 C 
ATOM     22  C   UNL d   1      30.536 -16.879  -6.183  0.00  0.00     0.002 C 
ATOM     23  C   UNL d   1      30.185 -16.799  -4.725  0.00  0.00     0.025 C 
ENDBRANCH  16  18
ENDBRANCH   1  14
BRANCH   1  24
ATOM     24  N   UNL d   1      28.230 -14.990   0.043  0.00  0.00    -0.328 N 
ATOM     25  C   UNL d   1      27.380 -13.911   0.334  0.00  0.00     0.229 C 
ATOM     26  O   UNL d   1      26.280 -13.784  -0.213  0.00  0.00    -0.273 OA
BRANCH  25  27
ATOM     27  C   UNL d   1      27.833 -12.837   1.343  0.00  0.00     0.110 C 
BRANCH  27  28
ATOM     28  C   UNL d   1      28.109 -13.331   2.778  0.00  0.00    -0.045 C 
ATOM     29  C   UNL d   1      29.398 -13.530   3.307  0.00  0.00     0.008 C 
ATOM     30  C   UNL d   1      29.601 -14.450   4.329  0.00  0.00     0.001 C 
ATOM     31  C   UNL d   1      28.522 -14.849   5.096  0.00  0.00     0.000 C 
ATOM     32  C   UNL d   1      27.241 -14.420   4.757  0.00  0.00     0.001 C 
ATOM     33  C   UNL d   1      27.030 -13.702   3.583  0.00  0.00     0.008 C 
ENDBRANCH  27  28
BRANCH  27  34
ATOM     34  C   UNL d   1      27.227 -11.394   1.200  0.00  0.00     0.014 C 
ATOM     35  C   UNL d   1      26.660 -10.406   2.176  0.00  0.00     0.006 C 
ENDBRANCH  27  34
ENDBRANCH  25  27
BRANCH  24  36
ATOM     36  C   UNL d   1      29.626 -15.021   0.583  0.00  0.00     0.192 C 
BRANCH  36  37
ATOM     37  C   UNL d   1      30.490 -16.041  -0.049  0.00  0.00     0.071 A 
ATOM     38  C   UNL d   1      31.833 -16.002  -0.190  0.00  0.00     0.037 A 
ATOM     39  C   UNL d   1      32.274 -17.052  -0.978  0.00  0.00     0.035 A 
ATOM     40  C   UNL d   1      31.143 -17.765  -1.230  0.00  0.00     0.049 A 
ATOM     41  C   UNL d   1      31.033 -18.962  -2.059  0.00  0.00     0.076 C 
ATOM     42  O   UNL d   1      30.032 -17.172  -0.670  0.00  0.00    -0.318 OA
ENDBRANCH  36  37
ENDBRANCH  24  36
ENDBRANCH   1  24
TORSDOF 12
ENDMDL
MODEL 4
REMARK VINA RESULT:    -7.460      1.548      2.698
REMARK INTER + INTRA:         -16.970
REMARK INTER:                 -11.040
REMARK INTRA:                  -5.930
REMARK CONF_INDEPENDENT:        3.580
REMARK UNBOUND:                -5.930
REMARK  12 active torsions:
REMARK  status: ('A' for Active; 'I' for Inactive)
REMARK    1  A    between atoms: C_3  and  C_2 
REMARK    2  A    between atoms: C_3  and  C_33 
REMARK    3  A    between atoms: C_3  and  C_4 
REMARK       I    between atoms: C_4  and  N_6 
REMARK    4  A    between atoms: N_6  and  C_7 
REMARK    5  A    between atoms: C_14  and  N_6 
REMARK    6  A    between atoms: C_7  and  C_8 
REMARK    7  A    between atoms: C_14  and  C_24 
REMARK    8  A    between atoms: C_14  and  C_15 
REMARK       I    between atoms: C_15  and  N_17 
REMARK    9  A    between atoms: N_17  and  C_18 
REMARK   10  A    between atoms: C_25  and  O_26 
REMARK   11  A    between atoms: C_28  and  O_29 
REMARK   12  A    between atoms: C_31  and  O_32 
ROOT
ATOM      1  C   UNL d   1      27.243 -13.760  -3.048  0.00  0.00     0.218 C 
ENDROOT
BRANCH   1   2
ATOM      2  C   UNL d   1      26.703 -12.323  -3.343  0.00  0.00     0.040 C 
ATOM      3  C   UNL d   1      25.908 -11.897  -4.430  0.00  0.00     0.080 C 
ATOM      4  C   UNL d   1      25.530 -10.595  -4.680  0.00  0.00     0.073 C 
ATOM      5  C   UNL d   1      25.728  -9.658  -3.719  0.00  0.00     0.071 C 
ATOM      6  C   UNL d   1      26.395 -10.003  -2.557  0.00  0.00     0.073 C 
ATOM      7  C   UNL d   1      26.908 -11.307  -2.387  0.00  0.00     0.080 C 
BRANCH   3   8
ATOM      8  O   UNL d   1      25.265 -12.597  -5.395  0.00  0.00    -0.360 OA
ATOM      9  H   UNL d   1      25.199 -13.520  -5.169  0.00  0.00     0.217 HD
ENDBRANCH   3   8
BRANCH   5  10
ATOM     10  O   UNL d   1      25.197  -8.425  -3.914  0.00  0.00    -0.361 OA
ATOM     11  H   UNL d   1      24.317  -8.427  -3.489  0.00  0.00     0.217 HD
ENDBRANCH   5  10
BRANCH   7  12
ATOM     12  O   UNL d   1      27.577 -11.595  -1.228  0.00  0.00    -0.360 OA
ATOM     13  H   UNL d   1      27.992 -12.473  -1.307  0.00  0.00     0.217 HD
ENDBRANCH   7  12
ENDBRANCH   1   2
BRANCH   1  14
ATOM     14  C   UNL d   1      26.066 -14.784  -3.168  0.00  0.00     0.245 C 
ATOM     15  O   UNL d   1      25.088 -14.721  -3.938  0.00  0.00    -0.271 OA
ATOM     16  N   UNL d   1      26.221 -15.767  -2.249  0.00  0.00    -0.354 N 
ATOM     17  H   UNL d   1      27.054 -15.671  -1.729  0.00  0.00     0.162 HD
BRANCH  16  18
ATOM     18  C   UNL d   1      25.338 -16.781  -1.747  0.00  0.00     0.084 C 
ATOM     19  C   UNL d   1      25.862 -17.592  -0.533  0.00  0.00     0.025 C 
ATOM     20  C   UNL d   1      24.825 -18.578  -0.062  0.00  0.00     0.002 C 
ATOM     21  C   UNL d   1      23.560 -17.805   0.230  0.00  0.00     0.000 C 
ATOM     22  C   UNL d   1      23.034 -17.085  -1.011  0.00  0.00     0.002 C 
ATOM     23  C   UNL d   1      24.034 -16.093  -1.532  0.00  0.00     0.025 C 
ENDBRANCH  16  18
ENDBRANCH   1  14
BRANCH   1  24
ATOM     24  N   UNL d   1      28.441 -14.261  -3.901  0.00  0.00    -0.328 N 
ATOM     25  C   UNL d   1      28.166 -14.606  -5.233  0.00  0.00     0.229 C 
ATOM     26  O   UNL d   1      27.023 -14.549  -5.698  0.00  0.00    -0.273 OA
BRANCH  25  27
ATOM     27  C   UNL d   1      29.311 -15.092  -6.145  0.00  0.00     0.110 C 
BRANCH  27  28
ATOM     28  C   UNL d   1      29.824 -16.522  -5.881  0.00  0.00    -0.045 C 
ATOM     29  C   UNL d   1      29.656 -17.206  -4.663  0.00  0.00     0.008 C 
ATOM     30  C   UNL d   1      30.556 -18.195  -4.285  0.00  0.00     0.001 C 
ATOM     31  C   UNL d   1      31.343 -18.791  -5.252  0.00  0.00     0.000 C 
ATOM     32  C   UNL d   1      31.311 -18.308  -6.558  0.00  0.00     0.001 C 
ATOM     33  C   UNL d   1      30.590 -17.156  -6.862  0.00  0.00     0.008 C 
ENDBRANCH  27  28
BRANCH  27  34
ATOM     34  C   UNL d   1      30.378 -14.036  -6.611  0.00  0.00     0.014 C 
ATOM     35  C   UNL d   1      31.822 -13.805  -6.277  0.00  0.00     0.006 C 
ENDBRANCH  27  34
ENDBRANCH  25  27
BRANCH  24  36
ATOM     36  C   UNL d   1      29.798 -14.511  -3.319  0.00  0.00     0.192 C 
BRANCH  36  37
ATOM     37  C   UNL d   1      29.774 -14.914  -1.896  0.00  0.00     0.071 A 
ATOM     38  C   UNL d   1      30.633 -15.745  -1.268  0.00  0.00     0.037 A 
ATOM     39  C   UNL d   1      30.199 -16.017   0.019  0.00  0.00     0.035 A 
ATOM     40  C   UNL d   1      29.087 -15.245   0.156  0.00  0.00     0.049 A 
ATOM     41  C   UNL d   1      28.208 -15.182   1.319  0.00  0.00     0.076 C 
ATOM     42  O   UNL d   1      28.803 -14.553  -1.001  0.00  0.00    -0.318 OA
ENDBRANCH  36  37
ENDBRANCH  24  36
ENDBRANCH   1  24
TORSDOF 12
ENDMDL
MODEL 5
REMARK VINA RESULT:    -7.266      2.704      6.261
REMARK INTER + INTRA:         -16.867
REMARK INTER:                 -10.845
REMARK INTRA:                  -6.022
REMARK CONF_INDEPENDENT:        3.580
REMARK UNBOUND:                -6.022
REMARK  12 active torsions:
REMARK  status: ('A' for Active; 'I' for Inactive)
REMARK    1  A    between atoms: C_3  and  C_2 
REMARK    2  A    between atoms: C_3  and  C_33 
REMARK    3  A    between atoms: C_3  and  C_4 
REMARK       I    between atoms: C_4  and  N_6 
REMARK    4  A    between atoms: N_6  and  C_7 
REMARK    5  A    between atoms: C_14  and  N_6 
REMARK    6  A    between atoms: C_7  and  C_8 
REMARK    7  A    between atoms: C_14  and  C_24 
REMARK    8  A    between atoms: C_14  and  C_15 
REMARK       I    between atoms: C_15  and  N_17 
REMARK    9  A    between atoms: N_17  and  C_18 
REMARK   10  A    between atoms: C_25  and  O_26 
REMARK   11  A    between atoms: C_28  and  O_29 
REMARK   12  A    between atoms: C_31  and  O_32 
ROOT
ATOM      1  C   UNL d   1      27.991 -14.574   1.272  0.00  0.00     0.218 C 
ENDROOT
BRANCH   1   2
ATOM      2  C   UNL d   1      28.862 -13.958   2.414  0.00  0.00     0.040 C 
ATOM      3  C   UNL d   1      29.739 -12.854   2.340  0.00  0.00     0.080 C 
ATOM      4  C   UNL d   1      30.545 -12.406   3.366  0.00  0.00     0.073 C 
ATOM      5  C   UNL d   1      30.349 -12.894   4.616  0.00  0.00     0.071 C 
ATOM      6  C   UNL d   1      29.421 -13.900   4.818  0.00  0.00     0.073 C 
ATOM      7  C   UNL d   1      28.714 -14.450   3.727  0.00  0.00     0.080 C 
BRANCH   3   8
ATOM      8  O   UNL d   1      29.948 -11.941   1.361  0.00  0.00    -0.360 OA
ATOM      9  H   UNL d   1      29.403 -12.118   0.599  0.00  0.00     0.217 HD
ENDBRANCH   3   8
BRANCH   5  10
ATOM     10  O   UNL d   1      31.031 -12.319   5.638  0.00  0.00    -0.361 OA
ATOM     11  H   UNL d   1      31.830 -12.860   5.784  0.00  0.00     0.217 HD
ENDBRANCH   5  10
BRANCH   7  12
ATOM     12  O   UNL d   1      27.820 -15.456   3.974  0.00  0.00    -0.360 OA
ATOM     13  H   UNL d   1      28.291 -16.309   3.980  0.00  0.00     0.217 HD
ENDBRANCH   7  12
ENDBRANCH   1   2
BRANCH   1  14
ATOM     14  C   UNL d   1      27.383 -13.418   0.410  0.00  0.00     0.245 C 
ATOM     15  O   UNL d   1      27.183 -12.240   0.764  0.00  0.00    -0.271 OA
ATOM     16  N   UNL d   1      27.037 -13.892  -0.811  0.00  0.00    -0.354 N 
ATOM     17  H   UNL d   1      27.275 -14.843  -0.929  0.00  0.00     0.162 HD
BRANCH  16  18
ATOM     18  C   UNL d   1      26.223 -13.362  -1.868  0.00  0.00     0.084 C 
ATOM     19  C   UNL d   1      26.821 -12.156  -2.639  0.00  0.00     0.025 C 
ATOM     20  C   UNL d   1      25.905 -11.732  -3.758  0.00  0.00     0.002 C 
ATOM     21  C   UNL d   1      25.659 -12.941  -4.629  0.00  0.00     0.000 C 
ATOM     22  C   UNL d   1      24.997 -14.078  -3.849  0.00  0.00     0.002 C 
ATOM     23  C   UNL d   1      25.864 -14.536  -2.712  0.00  0.00     0.025 C 
ENDBRANCH  16  18
ENDBRANCH   1  14
BRANCH   1  24
ATOM     24  N   UNL d   1      28.673 -15.605   0.331  0.00  0.00    -0.328 N 
ATOM     25  C   UNL d   1      29.662 -15.112  -0.534  0.00  0.00     0.229 C 
ATOM     26  O   UNL d   1      29.952 -13.912  -0.574  0.00  0.00    -0.273 OA
BRANCH  25  27
ATOM     27  C   UNL d   1      30.396 -16.081  -1.483  0.00  0.00     0.110 C 
BRANCH  27  28
ATOM     28  C   UNL d   1      29.823 -16.195  -2.910  0.00  0.00    -0.045 C 
ATOM     29  C   UNL d   1      30.182 -17.202  -3.824  0.00  0.00     0.008 C 
ATOM     30  C   UNL d   1      30.093 -16.971  -5.191  0.00  0.00     0.001 C 
ATOM     31  C   UNL d   1      29.280 -15.950  -5.647  0.00  0.00     0.000 C 
ATOM     32  C   UNL d   1      28.667 -15.099  -4.732  0.00  0.00     0.001 C 
ATOM     33  C   UNL d   1      28.970 -15.193  -3.376  0.00  0.00     0.008 C 
ENDBRANCH  27  28
BRANCH  27  34
ATOM     34  C   UNL d   1      31.010 -17.389  -0.864  0.00  0.00     0.014 C 
ATOM     35  C   UNL d   1      30.780 -18.853  -1.097  0.00  0.00     0.006 C 
ENDBRANCH  27  34
ENDBRANCH  25  27
BRANCH  24  36
ATOM     36  C   UNL d   1      28.220 -17.029   0.229  0.00  0.00     0.192 C 
BRANCH  36  37
ATOM     37  C   UNL d   1      26.753 -17.184   0.129  0.00  0.00     0.071 A 
ATOM     38  C   UNL d   1      26.004 -18.203   0.605  0.00  0.00     0.037 A 
ATOM     39  C   UNL d   1      24.691 -18.088   0.179  0.00  0.00     0.035 A 
ATOM     40  C   UNL d   1      24.674 -16.910  -0.503  0.00  0.00     0.049 A 
ATOM     41  C   UNL d   1      23.535 -16.325  -1.203  0.00  0.00     0.076 C 
ATOM     42  O   UNL d   1      25.924 -16.330  -0.548  0.00  0.00    -0.318 OA
ENDBRANCH  36  37
ENDBRANCH  24  36
ENDBRANCH   1  24
TORSDOF 12
ENDMDL
MODEL 6
REMARK VINA RESULT:    -6.955      2.388      6.066
REMARK INTER + INTRA:         -16.888
REMARK INTER:                 -10.535
REMARK INTRA:                  -6.353
REMARK CONF_INDEPENDENT:        3.580
REMARK UNBOUND:                -6.353
REMARK  12 active torsions:
REMARK  status: ('A' for Active; 'I' for Inactive)
REMARK    1  A    between atoms: C_3  and  C_2 
REMARK    2  A    between atoms: C_3  and  C_33 
REMARK    3  A    between atoms: C_3  and  C_4 
REMARK       I    between atoms: C_4  and  N_6 
REMARK    4  A    between atoms: N_6  and  C_7 
REMARK    5  A    between atoms: C_14  and  N_6 
REMARK    6  A    between atoms: C_7  and  C_8 
REMARK    7  A    between atoms: C_14  and  C_24 
REMARK    8  A    between atoms: C_14  and  C_15 
REMARK       I    between atoms: C_15  and  N_17 
REMARK    9  A    between atoms: N_17  and  C_18 
REMARK   10  A    between atoms: C_25  and  O_26 
REMARK   11  A    between atoms: C_28  and  O_29 
REMARK   12  A    between atoms: C_31  and  O_32 
ROOT
ATOM      1  C   UNL d   1      29.354 -16.028  -0.477  0.00  0.00     0.218 C 
ENDROOT
BRANCH   1   2
ATOM      2  C   UNL d   1      30.536 -15.713   0.496  0.00  0.00     0.040 C 
ATOM      3  C   UNL d   1      30.707 -14.580   1.321  0.00  0.00     0.080 C 
ATOM      4  C   UNL d   1      31.815 -14.320   2.099  0.00  0.00     0.073 C 
ATOM      5  C   UNL d   1      32.731 -15.301   2.286  0.00  0.00     0.071 C 
ATOM      6  C   UNL d   1      32.592 -16.503   1.612  0.00  0.00     0.073 C 
ATOM      7  C   UNL d   1      31.530 -16.693   0.702  0.00  0.00     0.080 C 
BRANCH   3   8
ATOM      8  O   UNL d   1      29.864 -13.566   1.633  0.00  0.00    -0.360 OA
ATOM      9  H   UNL d   1      28.955 -13.814   1.492  0.00  0.00     0.217 HD
ENDBRANCH   3   8
BRANCH   5  10
ATOM     10  O   UNL d   1      33.721 -15.086   3.188  0.00  0.00    -0.361 OA
ATOM     11  H   UNL d   1      33.302 -14.697   3.980  0.00  0.00     0.217 HD
ENDBRANCH   5  10
BRANCH   7  12
ATOM     12  O   UNL d   1      31.444 -17.890   0.046  0.00  0.00    -0.360 OA
ATOM     13  H   UNL d   1      30.792 -18.457   0.496  0.00  0.00     0.217 HD
ENDBRANCH   7  12
ENDBRANCH   1   2
BRANCH   1  14
ATOM     14  C   UNL d   1      28.004 -15.935   0.310  0.00  0.00     0.245 C 
ATOM     15  O   UNL d   1      27.851 -15.632   1.509  0.00  0.00    -0.271 OA
ATOM     16  N   UNL d   1      26.978 -16.292  -0.499  0.00  0.00    -0.354 N 
ATOM     17  H   UNL d   1      27.274 -16.490  -1.420  0.00  0.00     0.162 HD
BRANCH  16  18
ATOM     18  C   UNL d   1      25.608 -16.635  -0.243  0.00  0.00     0.084 C 
ATOM     19  C   UNL d   1      24.569 -16.042  -1.230  0.00  0.00     0.025 C 
ATOM     20  C   UNL d   1      23.181 -16.522  -0.895  0.00  0.00     0.002 C 
ATOM     21  C   UNL d   1      23.209 -18.032  -0.887  0.00  0.00     0.000 C 
ATOM     22  C   UNL d   1      24.189 -18.576   0.154  0.00  0.00     0.002 C 
ATOM     23  C   UNL d   1      25.592 -18.120  -0.126  0.00  0.00     0.025 C 
ENDBRANCH  16  18
ENDBRANCH   1  14
BRANCH   1  24
ATOM     24  N   UNL d   1      29.248 -15.176  -1.771  0.00  0.00    -0.328 N 
ATOM     25  C   UNL d   1      28.888 -15.854  -2.945  0.00  0.00     0.229 C 
ATOM     26  O   UNL d   1      28.701 -17.075  -2.960  0.00  0.00    -0.273 OA
BRANCH  25  27
ATOM     27  C   UNL d   1      28.743 -15.069  -4.265  0.00  0.00     0.110 C 
BRANCH  27  28
ATOM     28  C   UNL d   1      27.436 -14.267  -4.434  0.00  0.00    -0.045 C 
ATOM     29  C   UNL d   1      27.383 -12.938  -4.894  0.00  0.00     0.008 C 
ATOM     30  C   UNL d   1      26.330 -12.110  -4.523  0.00  0.00     0.001 C 
ATOM     31  C   UNL d   1      25.155 -12.682  -4.070  0.00  0.00     0.000 C 
ATOM     32  C   UNL d   1      25.090 -14.059  -3.878  0.00  0.00     0.001 C 
ATOM     33  C   UNL d   1      26.234 -14.841  -4.017  0.00  0.00     0.008 C 
ENDBRANCH  27  28
BRANCH  27  34
ATOM     34  C   UNL d   1      29.354 -15.702  -5.567  0.00  0.00     0.014 C 
ATOM     35  C   UNL d   1      30.323 -16.820  -5.820  0.00  0.00     0.006 C 
ENDBRANCH  27  34
ENDBRANCH  25  27
BRANCH  24  36
ATOM     36  C   UNL d   1      29.642 -13.732  -1.822  0.00  0.00     0.192 C 
BRANCH  36  37
ATOM     37  C   UNL d   1      28.765 -12.844  -1.028  0.00  0.00     0.071 A 
ATOM     38  C   UNL d   1      28.839 -11.499  -0.927  0.00  0.00     0.037 A 
ATOM     39  C   UNL d   1      27.959 -11.030   0.034  0.00  0.00     0.035 A 
ATOM     40  C   UNL d   1      27.299 -12.148   0.442  0.00  0.00     0.049 A 
ATOM     41  C   UNL d   1      26.280 -12.227   1.484  0.00  0.00     0.076 C 
ATOM     42  O   UNL d   1      27.769 -13.276  -0.195  0.00  0.00    -0.318 OA
ENDBRANCH  36  37
ENDBRANCH  24  36
ENDBRANCH   1  24
TORSDOF 12
ENDMDL
MODEL 7
REMARK VINA RESULT:    -6.870      1.195      2.353
REMARK INTER + INTRA:         -16.800
REMARK INTER:                 -10.449
REMARK INTRA:                  -6.351
REMARK CONF_INDEPENDENT:        3.580
REMARK UNBOUND:                -6.351
REMARK  12 active torsions:
REMARK  status: ('A' for Active; 'I' for Inactive)
REMARK    1  A    between atoms: C_3  and  C_2 
REMARK    2  A    between atoms: C_3  and  C_33 
REMARK    3  A    between atoms: C_3  and  C_4 
REMARK       I    between atoms: C_4  and  N_6 
REMARK    4  A    between atoms: N_6  and  C_7 
REMARK    5  A    between atoms: C_14  and  N_6 
REMARK    6  A    between atoms: C_7  and  C_8 
REMARK    7  A    between atoms: C_14  and  C_24 
REMARK    8  A    between atoms: C_14  and  C_15 
REMARK       I    between atoms: C_15  and  N_17 
REMARK    9  A    between atoms: N_17  and  C_18 
REMARK   10  A    between atoms: C_25  and  O_26 
REMARK   11  A    between atoms: C_28  and  O_29 
REMARK   12  A    between atoms: C_31  and  O_32 
ROOT
ATOM      1  C   UNL d   1      27.260 -13.342  -4.064  0.00  0.00     0.218 C 
ENDROOT
BRANCH   1   2
ATOM      2  C   UNL d   1      27.057 -12.410  -5.302  0.00  0.00     0.040 C 
ATOM      3  C   UNL d   1      27.708 -12.470  -6.554  0.00  0.00     0.080 C 
ATOM      4  C   UNL d   1      27.544 -11.567  -7.582  0.00  0.00     0.073 C 
ATOM      5  C   UNL d   1      26.531 -10.668  -7.511  0.00  0.00     0.071 C 
ATOM      6  C   UNL d   1      25.752 -10.606  -6.369  0.00  0.00     0.073 C 
ATOM      7  C   UNL d   1      26.034 -11.440  -5.266  0.00  0.00     0.080 C 
BRANCH   3   8
ATOM      8  O   UNL d   1      28.529 -13.405  -7.091  0.00  0.00    -0.360 OA
ATOM      9  H   UNL d   1      28.106 -14.258  -7.128  0.00  0.00     0.217 HD
ENDBRANCH   3   8
BRANCH   5  10
ATOM     10  O   UNL d   1      26.280  -9.904  -8.603  0.00  0.00    -0.361 OA
ATOM     11  H   UNL d   1      25.904 -10.497  -9.282  0.00  0.00     0.217 HD
ENDBRANCH   5  10
BRANCH   7  12
ATOM     12  O   UNL d   1      25.247 -11.330  -4.151  0.00  0.00    -0.360 OA
ATOM     13  H   UNL d   1      24.495 -11.944  -4.228  0.00  0.00     0.217 HD
ENDBRANCH   7  12
ENDBRANCH   1   2
BRANCH   1  14
ATOM     14  C   UNL d   1      26.003 -14.260  -3.901  0.00  0.00     0.245 C 
ATOM     15  O   UNL d   1      24.869 -14.075  -4.384  0.00  0.00    -0.271 OA
ATOM     16  N   UNL d   1      26.300 -15.302  -3.089  0.00  0.00    -0.354 N 
ATOM     17  H   UNL d   1      27.245 -15.302  -2.805  0.00  0.00     0.162 HD
BRANCH  16  18
ATOM     18  C   UNL d   1      25.488 -16.267  -2.404  0.00  0.00     0.084 C 
ATOM     19  C   UNL d   1      26.191 -17.058  -1.270  0.00  0.00     0.025 C 
ATOM     20  C   UNL d   1      25.223 -17.991  -0.590  0.00  0.00     0.002 C 
ATOM     21  C   UNL d   1      24.053 -17.165  -0.112  0.00  0.00     0.000 C 
ATOM     22  C   UNL d   1      23.340 -16.465  -1.270  0.00  0.00     0.002 C 
ATOM     23  C   UNL d   1      24.263 -15.526  -1.992  0.00  0.00     0.025 C 
ENDBRANCH  16  18
ENDBRANCH   1  14
BRANCH   1  24
ATOM     24  N   UNL d   1      28.539 -14.224  -4.037  0.00  0.00    -0.328 N 
ATOM     25  C   UNL d   1      28.576 -15.309  -4.926  0.00  0.00     0.229 C 
ATOM     26  O   UNL d   1      27.626 -15.575  -5.668  0.00  0.00    -0.273 OA
BRANCH  25  27
ATOM     27  C   UNL d   1      29.823 -16.216  -4.969  0.00  0.00     0.110 C 
BRANCH  27  28
ATOM     28  C   UNL d   1      30.056 -17.104  -3.730  0.00  0.00    -0.045 C 
ATOM     29  C   UNL d   1      29.248 -17.075  -2.578  0.00  0.00     0.008 C 
ATOM     30  C   UNL d   1      29.774 -17.442  -1.345  0.00  0.00     0.001 C 
ATOM     31  C   UNL d   1      30.919 -18.216  -1.308  0.00  0.00     0.000 C 
ATOM     32  C   UNL d   1      31.591 -18.507  -2.492  0.00  0.00     0.001 C 
ATOM     33  C   UNL d   1      31.187 -17.921  -3.689  0.00  0.00     0.008 C 
ENDBRANCH  27  28
BRANCH  27  34
ATOM     34  C   UNL d   1      31.106 -15.666  -5.693  0.00  0.00     0.014 C 
ATOM     35  C   UNL d   1      32.282 -14.852  -5.241  0.00  0.00     0.006 C 
ENDBRANCH  27  34
ENDBRANCH  25  27
BRANCH  24  36
ATOM     36  C   UNL d   1      29.629 -14.036  -3.027  0.00  0.00     0.192 C 
BRANCH  36  37
ATOM     37  C   UNL d   1      29.153 -14.031  -1.627  0.00  0.00     0.071 A 
ATOM     38  C   UNL d   1      29.887 -14.244  -0.513  0.00  0.00     0.037 A 
ATOM     39  C   UNL d   1      29.070 -14.327   0.603  0.00  0.00     0.035 A 
ATOM     40  C   UNL d   1      27.827 -14.071   0.114  0.00  0.00     0.049 A 
ATOM     41  C   UNL d   1      26.577 -14.075   0.868  0.00  0.00     0.076 C 
ATOM     42  O   UNL d   1      27.845 -13.881  -1.250  0.00  0.00    -0.318 OA
ENDBRANCH  36  37
ENDBRANCH  24  36
ENDBRANCH   1  24
TORSDOF 12
ENDMDL
MODEL 8
REMARK VINA RESULT:    -6.410      1.835      5.557
REMARK INTER + INTRA:         -17.126
REMARK INTER:                  -9.989
REMARK INTRA:                  -7.137
REMARK CONF_INDEPENDENT:        3.580
REMARK UNBOUND:                -7.137
REMARK  12 active torsions:
REMARK  status: ('A' for Active; 'I' for Inactive)
REMARK    1  A    between atoms: C_3  and  C_2 
REMARK    2  A    between atoms: C_3  and  C_33 
REMARK    3  A    between atoms: C_3  and  C_4 
REMARK       I    between atoms: C_4  and  N_6 
REMARK    4  A    between atoms: N_6  and  C_7 
REMARK    5  A    between atoms: C_14  and  N_6 
REMARK    6  A    between atoms: C_7  and  C_8 
REMARK    7  A    between atoms: C_14  and  C_24 
REMARK    8  A    between atoms: C_14  and  C_15 
REMARK       I    between atoms: C_15  and  N_17 
REMARK    9  A    between atoms: N_17  and  C_18 
REMARK   10  A    between atoms: C_25  and  O_26 
REMARK   11  A    between atoms: C_28  and  O_29 
REMARK   12  A    between atoms: C_31  and  O_32 
ROOT
ATOM      1  C   UNL d   1      27.576 -14.289  -4.525  0.00  0.00     0.218 C 
ENDROOT
BRANCH   1   2
ATOM      2  C   UNL d   1      28.693 -15.264  -5.019  0.00  0.00     0.040 C 
ATOM      3  C   UNL d   1      29.300 -16.324  -4.309  0.00  0.00     0.080 C 
ATOM      4  C   UNL d   1      30.341 -17.101  -4.771  0.00  0.00     0.073 C 
ATOM      5  C   UNL d   1      30.690 -17.020  -6.079  0.00  0.00     0.071 C 
ATOM      6  C   UNL d   1      30.068 -16.091  -6.896  0.00  0.00     0.073 C 
ATOM      7  C   UNL d   1      29.110 -15.201  -6.365  0.00  0.00     0.080 C 
BRANCH   3   8
ATOM      8  O   UNL d   1      28.993 -16.894  -3.119  0.00  0.00    -0.360 OA
ATOM      9  H   UNL d   1      28.938 -16.242  -2.425  0.00  0.00     0.217 HD
ENDBRANCH   3   8
BRANCH   5  10
ATOM     10  O   UNL d   1      31.596 -17.911  -6.553  0.00  0.00    -0.361 OA
ATOM     11  H   UNL d   1      32.290 -17.997  -5.871  0.00  0.00     0.217 HD
ENDBRANCH   5  10
BRANCH   7  12
ATOM     12  O   UNL d   1      28.536 -14.288  -7.206  0.00  0.00    -0.360 OA
ATOM     13  H   UNL d   1      28.848 -14.449  -8.115  0.00  0.00     0.217 HD
ENDBRANCH   7  12
ENDBRANCH   1   2
BRANCH   1  14
ATOM     14  C   UNL d   1      26.373 -15.124  -3.974  0.00  0.00     0.245 C 
ATOM     15  O   UNL d   1      25.271 -15.312  -4.526  0.00  0.00    -0.271 OA
ATOM     16  N   UNL d   1      26.672 -15.598  -2.741  0.00  0.00    -0.354 N 
ATOM     17  H   UNL d   1      27.590 -15.367  -2.460  0.00  0.00     0.162 HD
BRANCH  16  18
ATOM     18  C   UNL d   1      25.873 -16.175  -1.697  0.00  0.00     0.084 C 
ATOM     19  C   UNL d   1      24.700 -17.075  -2.166  0.00  0.00     0.025 C 
ATOM     20  C   UNL d   1      23.979 -17.669  -0.984  0.00  0.00     0.002 C 
ATOM     21  C   UNL d   1      25.000 -18.399  -0.145  0.00  0.00     0.000 C 
ATOM     22  C   UNL d   1      26.096 -17.461   0.361  0.00  0.00     0.002 C 
ATOM     23  C   UNL d   1      26.845 -16.831  -0.778  0.00  0.00     0.025 C 
ENDBRANCH  16  18
ENDBRANCH   1  14
BRANCH   1  24
ATOM     24  N   UNL d   1      27.976 -13.219  -3.473  0.00  0.00    -0.328 N 
ATOM     25  C   UNL d   1      26.942 -12.418  -2.964  0.00  0.00     0.229 C 
ATOM     26  O   UNL d   1      25.777 -12.530  -3.359  0.00  0.00    -0.273 OA
BRANCH  25  27
ATOM     27  C   UNL d   1      27.262 -11.348  -1.900  0.00  0.00     0.110 C 
BRANCH  27  28
ATOM     28  C   UNL d   1      27.382 -11.853  -0.448  0.00  0.00    -0.045 C 
ATOM     29  C   UNL d   1      28.178 -11.237   0.535  0.00  0.00     0.008 C 
ATOM     30  C   UNL d   1      28.681 -11.982   1.596  0.00  0.00     0.001 C 
ATOM     31  C   UNL d   1      28.079 -13.184   1.916  0.00  0.00     0.000 C 
ATOM     32  C   UNL d   1      27.067 -13.685   1.101  0.00  0.00     0.001 C 
ATOM     33  C   UNL d   1      26.750 -13.046  -0.095  0.00  0.00     0.008 C 
ENDBRANCH  27  28
BRANCH  27  34
ATOM     34  C   UNL d   1      26.655  -9.912  -2.099  0.00  0.00     0.014 C 
ATOM     35  C   UNL d   1      25.864  -9.263  -3.197  0.00  0.00     0.006 C 
ENDBRANCH  27  34
ENDBRANCH  25  27
BRANCH  24  36
ATOM     36  C   UNL d   1      29.401 -12.938  -3.108  0.00  0.00     0.192 C 
BRANCH  36  37
ATOM     37  C   UNL d   1      29.890 -13.723  -1.955  0.00  0.00     0.071 A 
ATOM     38  C   UNL d   1      30.968 -13.461  -1.184  0.00  0.00     0.037 A 
ATOM     39  C   UNL d   1      31.209 -14.505  -0.307  0.00  0.00     0.035 A 
ATOM     40  C   UNL d   1      30.177 -15.363  -0.532  0.00  0.00     0.049 A 
ATOM     41  C   UNL d   1      29.966 -16.659   0.105  0.00  0.00     0.076 C 
ATOM     42  O   UNL d   1      29.348 -14.909  -1.535  0.00  0.00    -0.318 OA
ENDBRANCH  36  37
ENDBRANCH  24  36
ENDBRANCH   1  24
TORSDOF 12
ENDMDL
MODEL 9
REMARK VINA RESULT:    -6.275      1.751      5.042
REMARK INTER + INTRA:         -16.865
REMARK INTER:                  -9.854
REMARK INTRA:                  -7.011
REMARK CONF_INDEPENDENT:        3.580
REMARK UNBOUND:                -7.011
REMARK  12 active torsions:
REMARK  status: ('A' for Active; 'I' for Inactive)
REMARK    1  A    between atoms: C_3  and  C_2 
REMARK    2  A    between atoms: C_3  and  C_33 
REMARK    3  A    between atoms: C_3  and  C_4 
REMARK       I    between atoms: C_4  and  N_6 
REMARK    4  A    between atoms: N_6  and  C_7 
REMARK    5  A    between atoms: C_14  and  N_6 
REMARK    6  A    between atoms: C_7  and  C_8 
REMARK    7  A    between atoms: C_14  and  C_24 
REMARK    8  A    between atoms: C_14  and  C_15 
REMARK       I    between atoms: C_15  and  N_17 
REMARK    9  A    between atoms: N_17  and  C_18 
REMARK   10  A    between atoms: C_25  and  O_26 
REMARK   11  A    between atoms: C_28  and  O_29 
REMARK   12  A    between atoms: C_31  and  O_32 
ROOT
ATOM      1  C   UNL d   1      26.557 -13.389  -4.982  0.00  0.00     0.218 C 
ENDROOT
BRANCH   1   2
ATOM      2  C   UNL d   1      27.126 -11.960  -5.259  0.00  0.00     0.040 C 
ATOM      3  C   UNL d   1      28.399 -11.450  -4.923  0.00  0.00     0.080 C 
ATOM      4  C   UNL d   1      28.816 -10.151  -5.122  0.00  0.00     0.073 C 
ATOM      5  C   UNL d   1      28.061  -9.330  -5.893  0.00  0.00     0.071 C 
ATOM      6  C   UNL d   1      26.843  -9.777  -6.376  0.00  0.00     0.073 C 
ATOM      7  C   UNL d   1      26.366 -11.060  -6.034  0.00  0.00     0.080 C 
BRANCH   3   8
ATOM      8  O   UNL d   1      29.510 -12.062  -4.444  0.00  0.00    -0.360 OA
ATOM      9  H   UNL d   1      29.338 -12.488  -3.608  0.00  0.00     0.217 HD
ENDBRANCH   3   8
BRANCH   5  10
ATOM     10  O   UNL d   1      28.569  -8.115  -6.218  0.00  0.00    -0.361 OA
ATOM     11  H   UNL d   1      28.353  -7.512  -5.481  0.00  0.00     0.217 HD
ENDBRANCH   5  10
BRANCH   7  12
ATOM     12  O   UNL d   1      25.147 -11.450  -6.519  0.00  0.00    -0.360 OA
ATOM     13  H   UNL d   1      24.542 -11.616  -5.774  0.00  0.00     0.217 HD
ENDBRANCH   7  12
ENDBRANCH   1   2
BRANCH   1  14
ATOM     14  C   UNL d   1      27.561 -14.457  -5.530  0.00  0.00     0.245 C 
ATOM     15  O   UNL d   1      27.406 -15.199  -6.520  0.00  0.00    -0.271 OA
ATOM     16  N   UNL d   1      28.651 -14.514  -4.727  0.00  0.00    -0.354 N 
ATOM     17  H   UNL d   1      28.617 -13.850  -3.997  0.00  0.00     0.162 HD
BRANCH  16  18
ATOM     18  C   UNL d   1      29.721 -15.462  -4.602  0.00  0.00     0.084 C 
ATOM     19  C   UNL d   1      29.423 -16.703  -3.720  0.00  0.00     0.025 C 
ATOM     20  C   UNL d   1      30.596 -17.649  -3.717  0.00  0.00     0.002 C 
ATOM     21  C   UNL d   1      30.908 -17.993  -5.154  0.00  0.00     0.000 C 
ATOM     22  C   UNL d   1      31.273 -16.752  -5.969  0.00  0.00     0.002 C 
ATOM     23  C   UNL d   1      30.140 -15.766  -5.999  0.00  0.00     0.025 C 
ENDBRANCH  16  18
ENDBRANCH   1  14
BRANCH   1  24
ATOM     24  N   UNL d   1      26.193 -13.741  -3.514  0.00  0.00    -0.328 N 
ATOM     25  C   UNL d   1      25.679 -15.026  -3.281  0.00  0.00     0.229 C 
ATOM     26  O   UNL d   1      25.489 -15.827  -4.202  0.00  0.00    -0.273 OA
BRANCH  25  27
ATOM     27  C   UNL d   1      25.315 -15.452  -1.844  0.00  0.00     0.110 C 
BRANCH  27  28
ATOM     28  C   UNL d   1      26.503 -15.727  -0.900  0.00  0.00    -0.045 C 
ATOM     29  C   UNL d   1      26.776 -14.978   0.259  0.00  0.00     0.008 C 
ATOM     30  C   UNL d   1      28.076 -14.887   0.744  0.00  0.00     0.001 C 
ATOM     31  C   UNL d   1      29.002 -15.839   0.361  0.00  0.00     0.000 C 
ATOM     32  C   UNL d   1      28.655 -16.792  -0.593  0.00  0.00     0.001 C 
ATOM     33  C   UNL d   1      27.430 -16.711  -1.250  0.00  0.00     0.008 C 
ENDBRANCH  27  28
BRANCH  27  34
ATOM     34  C   UNL d   1      24.036 -16.343  -1.645  0.00  0.00     0.014 C 
ATOM     35  C   UNL d   1      23.754 -17.591  -0.862  0.00  0.00     0.006 C 
ENDBRANCH  27  34
ENDBRANCH  25  27
BRANCH  24  36
ATOM     36  C   UNL d   1      26.243 -12.734  -2.406  0.00  0.00     0.192 C 
BRANCH  36  37
ATOM     37  C   UNL d   1      27.581 -12.584  -1.794  0.00  0.00     0.071 A 
ATOM     38  C   UNL d   1      27.996 -11.599  -0.967  0.00  0.00     0.037 A 
ATOM     39  C   UNL d   1      29.357 -11.699  -0.731  0.00  0.00     0.035 A 
ATOM     40  C   UNL d   1      29.717 -12.835  -1.386  0.00  0.00     0.049 A 
ATOM     41  C   UNL d   1      31.064 -13.388  -1.497  0.00  0.00     0.076 C 
ATOM     42  O   UNL d   1      28.648 -13.403  -2.045  0.00  0.00    -0.318 OA
ENDBRANCH  36  37
ENDBRANCH  24  36
ENDBRANCH   1  24
TORSDOF 12
ENDMDL
