MODEL 1
REMARK VINA RESULT:    -9.143      0.000      0.000
REMARK INTER + INTRA:         -15.929
REMARK INTER:                 -13.319
REMARK INTRA:                  -2.610
REMARK CONF_INDEPENDENT:        4.176
REMARK UNBOUND:                -2.610
REMARK  14 active torsions:
REMARK  status: ('A' for Active; 'I' for Inactive)
REMARK    1  A    between atoms: C_2  and  N_3 
REMARK       I    between atoms: N_3  and  C_4 
REMARK    2  A    between atoms: N_3  and  C_32 
REMARK    3  A    between atoms: C_4  and  C_6 
REMARK    4  A    between atoms: C_9  and  N_10 
REMARK    5  A    between atoms: N_10  and  C_11 
REMARK    6  A    between atoms: C_11  and  N_13 
REMARK       I    between atoms: N_13  and  C_14 
REMARK    7  A    between atoms: C_14  and  C_16 
REMARK    8  A    between atoms: C_16  and  C_17 
REMARK    9  A    between atoms: C_17  and  C_18 
REMARK   10  A    between atoms: C_18  and  O_20 
REMARK   11  A    between atoms: O_20  and  C_21 
REMARK   12  A    between atoms: C_21  and  C_22 
REMARK   13  A    between atoms: C_22  and  C_23 
REMARK   14  A    between atoms: C_23  and  C_24 
ROOT
ATOM      1  C   UNL d   1      28.128 -15.239   0.769  0.00  0.00     0.178 C 
ATOM      2  S   UNL d   1      28.173 -13.806   1.671  0.00  0.00    -0.040 SA
ENDROOT
BRANCH   1   3
ATOM      3  N   UNL d   1      29.287 -15.977   0.349  0.00  0.00    -0.333 N 
ATOM      4  H   UNL d   1      30.077 -16.060   0.982  0.00  0.00     0.168 HD
BRANCH   3   5
ATOM      5  C   UNL d   1      29.528 -16.547  -0.990  0.00  0.00     0.034 C 
ATOM      6  C   UNL d   1      30.273 -17.717  -1.228  0.00  0.00     0.030 C 
ATOM      7  C   UNL d   1      30.648 -18.084  -2.568  0.00  0.00     0.019 C 
ATOM      8  C   UNL d   1      30.159 -17.379  -3.682  0.00  0.00     0.032 C 
ATOM      9  C   UNL d   1      29.197 -16.437  -3.451  0.00  0.00     0.019 C 
ATOM     10  C   UNL d   1      29.008 -15.975  -2.151  0.00  0.00     0.030 C 
BRANCH   8  11
ATOM     11  C   UNL d   1      30.562 -17.611  -5.092  0.00  0.00     0.258 C 
ATOM     12  N   UNL d   1      30.726 -18.928  -5.632  0.00  0.00    -0.314 N 
ATOM     13  O   UNL d   1      30.742 -16.568  -5.726  0.00  0.00    -0.267 OA
BRANCH  12  14
ATOM     14  C   UNL d   1      30.355 -20.255  -5.031  0.00  0.00     0.128 C 
ATOM     15  C   UNL d   1      31.432 -21.227  -4.604  0.00  0.00     0.027 C 
ENDBRANCH  12  14
BRANCH  12  16
ATOM     16  C   UNL d   1      31.244 -19.026  -6.992  0.00  0.00     0.037 A 
ATOM     17  C   UNL d   1      32.180 -18.102  -7.480  0.00  0.00     0.029 A 
ATOM     18  C   UNL d   1      32.554 -18.090  -8.831  0.00  0.00     0.002 A 
ATOM     19  C   UNL d   1      32.055 -19.049  -9.705  0.00  0.00     0.000 A 
ATOM     20  C   UNL d   1      31.175 -20.014  -9.230  0.00  0.00     0.002 A 
ATOM     21  C   UNL d   1      30.781 -20.007  -7.886  0.00  0.00     0.029 A 
ENDBRANCH  12  16
ENDBRANCH   8  11
ENDBRANCH   3   5
ENDBRANCH   1   3
BRANCH   1  22
ATOM     22  N   UNL d   1      26.862 -15.792   0.418  0.00  0.00    -0.304 N 
ATOM     23  C   UNL d   1      26.132 -15.378  -0.724  0.00  0.00     0.224 C 
ATOM     24  O   UNL d   1      26.546 -14.579  -1.568  0.00  0.00    -0.273 OA
ATOM     25  H   UNL d   1      26.436 -16.480   1.023  0.00  0.00     0.171 HD
BRANCH  23  26
ATOM     26  C   UNL d   1      24.757 -15.934  -1.014  0.00  0.00     0.113 C 
BRANCH  26  27
ATOM     27  C   UNL d   1      24.915 -17.450  -1.386  0.00  0.00     0.120 C 
BRANCH  27  28
ATOM     28  C   UNL d   1      25.145 -18.309  -0.182  0.00  0.00     0.259 C 
ATOM     29  O   UNL d   1      26.252 -18.422   0.365  0.00  0.00    -0.265 OA
BRANCH  28  30
ATOM     30  O   UNL d   1      24.014 -18.945   0.239  0.00  0.00    -0.321 OA
BRANCH  30  31
ATOM     31  C   UNL d   1      23.129 -19.318  -0.838  0.00  0.00     0.179 C 
BRANCH  31  32
ATOM     32  C   UNL d   1      21.900 -18.415  -0.880  0.00  0.00     0.031 C 
BRANCH  32  33
ATOM     33  C   UNL d   1      20.634 -19.197  -1.275  0.00  0.00     0.041 C 
BRANCH  33  34
ATOM     34  C   UNL d   1      19.896 -19.624  -0.031  0.00  0.00    -0.058 A 
ATOM     35  C   UNL d   1      20.419 -19.348   1.239  0.00  0.00     0.007 A 
ATOM     36  C   UNL d   1      19.892 -19.981   2.366  0.00  0.00     0.001 A 
ATOM     37  C   UNL d   1      18.784 -20.818   2.243  0.00  0.00     0.000 A 
ATOM     38  C   UNL d   1      18.210 -21.036   0.992  0.00  0.00     0.001 A 
ATOM     39  C   UNL d   1      18.765 -20.446  -0.141  0.00  0.00     0.007 A 
ENDBRANCH  33  34
ENDBRANCH  32  33
ENDBRANCH  31  32
ENDBRANCH  30  31
ENDBRANCH  28  30
ENDBRANCH  27  28
ENDBRANCH  26  27
ENDBRANCH  23  26
ENDBRANCH   1  22
TORSDOF 14
ENDMDL
MODEL 2
REMARK VINA RESULT:    -9.134      5.045      9.996
REMARK INTER + INTRA:         -16.089
REMARK INTER:                 -13.311
REMARK INTRA:                  -2.779
REMARK CONF_INDEPENDENT:        4.176
REMARK UNBOUND:                -2.779
REMARK  14 active torsions:
REMARK  status: ('A' for Active; 'I' for Inactive)
REMARK    1  A    between atoms: C_2  and  N_3 
REMARK       I    between atoms: N_3  and  C_4 
REMARK    2  A    between atoms: N_3  and  C_32 
REMARK    3  A    between atoms: C_4  and  C_6 
REMARK    4  A    between atoms: C_9  and  N_10 
REMARK    5  A    between atoms: N_10  and  C_11 
REMARK    6  A    between atoms: C_11  and  N_13 
REMARK       I    between atoms: N_13  and  C_14 
REMARK    7  A    between atoms: C_14  and  C_16 
REMARK    8  A    between atoms: C_16  and  C_17 
REMARK    9  A    between atoms: C_17  and  C_18 
REMARK   10  A    between atoms: C_18  and  O_20 
REMARK   11  A    between atoms: O_20  and  C_21 
REMARK   12  A    between atoms: C_21  and  C_22 
REMARK   13  A    between atoms: C_22  and  C_23 
REMARK   14  A    between atoms: C_23  and  C_24 
ROOT
ATOM      1  C   UNL d   1      28.508 -14.802  -0.267  0.00  0.00     0.178 C 
ATOM      2  S   UNL d   1      29.820 -15.869  -0.162  0.00  0.00    -0.040 SA
ENDROOT
BRANCH   1   3
ATOM      3  N   UNL d   1      28.363 -13.606   0.516  0.00  0.00    -0.333 N 
ATOM      4  H   UNL d   1      28.311 -12.708   0.043  0.00  0.00     0.168 HD
BRANCH   3   5
ATOM      5  C   UNL d   1      28.405 -13.507   1.987  0.00  0.00     0.034 C 
ATOM      6  C   UNL d   1      29.421 -12.855   2.708  0.00  0.00     0.030 C 
ATOM      7  C   UNL d   1      29.507 -12.992   4.137  0.00  0.00     0.019 C 
ATOM      8  C   UNL d   1      28.502 -13.648   4.869  0.00  0.00     0.032 C 
ATOM      9  C   UNL d   1      27.372 -14.009   4.192  0.00  0.00     0.019 C 
ATOM     10  C   UNL d   1      27.406 -14.043   2.800  0.00  0.00     0.030 C 
BRANCH   8  11
ATOM     11  C   UNL d   1      28.544 -13.931   6.326  0.00  0.00     0.258 C 
ATOM     12  N   UNL d   1      28.604 -12.887   7.305  0.00  0.00    -0.314 N 
ATOM     13  O   UNL d   1      28.529 -15.136   6.590  0.00  0.00    -0.267 OA
BRANCH  12  14
ATOM     14  C   UNL d   1      28.433 -11.404   7.125  0.00  0.00     0.128 C 
ATOM     15  C   UNL d   1      29.609 -10.472   7.315  0.00  0.00     0.027 C 
ENDBRANCH  12  14
BRANCH  12  16
ATOM     16  C   UNL d   1      28.766 -13.293   8.697  0.00  0.00     0.037 A 
ATOM     17  C   UNL d   1      29.487 -14.447   9.036  0.00  0.00     0.029 A 
ATOM     18  C   UNL d   1      29.505 -14.933  10.351  0.00  0.00     0.002 A 
ATOM     19  C   UNL d   1      28.863 -14.232  11.367  0.00  0.00     0.000 A 
ATOM     20  C   UNL d   1      28.196 -13.051  11.065  0.00  0.00     0.002 A 
ATOM     21  C   UNL d   1      28.156 -12.582   9.745  0.00  0.00     0.029 A 
ENDBRANCH  12  16
ENDBRANCH   8  11
ENDBRANCH   3   5
ENDBRANCH   1   3
BRANCH   1  22
ATOM     22  N   UNL d   1      27.477 -15.070  -1.214  0.00  0.00    -0.304 N 
ATOM     23  C   UNL d   1      26.611 -14.066  -1.713  0.00  0.00     0.224 C 
ATOM     24  O   UNL d   1      26.714 -12.863  -1.459  0.00  0.00    -0.273 OA
ATOM     25  H   UNL d   1      27.319 -16.020  -1.520  0.00  0.00     0.171 HD
BRANCH  23  26
ATOM     26  C   UNL d   1      25.480 -14.409  -2.655  0.00  0.00     0.113 C 
BRANCH  26  27
ATOM     27  C   UNL d   1      25.534 -15.951  -2.936  0.00  0.00     0.120 C 
BRANCH  27  28
ATOM     28  C   UNL d   1      25.164 -16.760  -1.732  0.00  0.00     0.259 C 
ATOM     29  O   UNL d   1      25.968 -17.498  -1.143  0.00  0.00    -0.265 OA
BRANCH  28  30
ATOM     30  O   UNL d   1      23.861 -16.597  -1.363  0.00  0.00    -0.321 OA
BRANCH  30  31
ATOM     31  C   UNL d   1      23.516 -17.292  -0.147  0.00  0.00     0.179 C 
BRANCH  31  32
ATOM     32  C   UNL d   1      22.820 -18.616  -0.447  0.00  0.00     0.031 C 
BRANCH  32  33
ATOM     33  C   UNL d   1      21.341 -18.408  -0.819  0.00  0.00     0.041 C 
BRANCH  33  34
ATOM     34  C   UNL d   1      20.479 -19.333   0.004  0.00  0.00    -0.058 A 
ATOM     35  C   UNL d   1      19.398 -20.007  -0.578  0.00  0.00     0.007 A 
ATOM     36  C   UNL d   1      18.444 -20.629   0.229  0.00  0.00     0.001 A 
ATOM     37  C   UNL d   1      18.612 -20.660   1.613  0.00  0.00     0.000 A 
ATOM     38  C   UNL d   1      19.726 -20.057   2.193  0.00  0.00     0.001 A 
ATOM     39  C   UNL d   1      20.654 -19.393   1.394  0.00  0.00     0.007 A 
ENDBRANCH  33  34
ENDBRANCH  32  33
ENDBRANCH  31  32
ENDBRANCH  30  31
ENDBRANCH  28  30
ENDBRANCH  27  28
ENDBRANCH  26  27
ENDBRANCH  23  26
ENDBRANCH   1  22
TORSDOF 14
ENDMDL
MODEL 3
REMARK VINA RESULT:    -9.122      5.005      9.373
REMARK INTER + INTRA:         -16.031
REMARK INTER:                 -13.298
REMARK INTRA:                  -2.734
REMARK CONF_INDEPENDENT:        4.176
REMARK UNBOUND:                -2.734
REMARK  14 active torsions:
REMARK  status: ('A' for Active; 'I' for Inactive)
REMARK    1  A    between atoms: C_2  and  N_3 
REMARK       I    between atoms: N_3  and  C_4 
REMARK    2  A    between atoms: N_3  and  C_32 
REMARK    3  A    between atoms: C_4  and  C_6 
REMARK    4  A    between atoms: C_9  and  N_10 
REMARK    5  A    between atoms: N_10  and  C_11 
REMARK    6  A    between atoms: C_11  and  N_13 
REMARK       I    between atoms: N_13  and  C_14 
REMARK    7  A    between atoms: C_14  and  C_16 
REMARK    8  A    between atoms: C_16  and  C_17 
REMARK    9  A    between atoms: C_17  and  C_18 
REMARK   10  A    between atoms: C_18  and  O_20 
REMARK   11  A    between atoms: O_20  and  C_21 
REMARK   12  A    between atoms: C_21  and  C_22 
REMARK   13  A    between atoms: C_22  and  C_23 
REMARK   14  A    between atoms: C_23  and  C_24 
ROOT
ATOM      1  C   UNL d   1      26.963 -14.771  -1.384  0.00  0.00     0.178 C 
ATOM      2  S   UNL d   1      26.577 -14.728  -3.033  0.00  0.00    -0.040 SA
ENDROOT
BRANCH   1   3
ATOM      3  N   UNL d   1      27.894 -13.885  -0.740  0.00  0.00    -0.333 N 
ATOM      4  H   UNL d   1      28.547 -13.354  -1.309  0.00  0.00     0.168 HD
BRANCH   3   5
ATOM      5  C   UNL d   1      28.107 -13.738   0.712  0.00  0.00     0.034 C 
ATOM      6  C   UNL d   1      29.252 -14.190   1.392  0.00  0.00     0.030 C 
ATOM      7  C   UNL d   1      29.288 -14.209   2.831  0.00  0.00     0.019 C 
ATOM      8  C   UNL d   1      28.253 -13.640   3.594  0.00  0.00     0.032 C 
ATOM      9  C   UNL d   1      27.296 -12.936   2.920  0.00  0.00     0.019 C 
ATOM     10  C   UNL d   1      27.183 -13.105   1.542  0.00  0.00     0.030 C 
BRANCH   8  11
ATOM     11  C   UNL d   1      28.143 -13.697   5.073  0.00  0.00     0.258 C 
ATOM     12  N   UNL d   1      28.832 -12.773   5.925  0.00  0.00    -0.314 N 
ATOM     13  O   UNL d   1      27.418 -14.610   5.475  0.00  0.00    -0.267 OA
BRANCH  12  14
ATOM     14  C   UNL d   1      29.576 -11.518   5.562  0.00  0.00     0.128 C 
ATOM     15  C   UNL d   1      30.862 -11.162   6.272  0.00  0.00     0.027 C 
ENDBRANCH  12  14
BRANCH  12  16
ATOM     16  C   UNL d   1      28.744 -13.006   7.363  0.00  0.00     0.037 A 
ATOM     17  C   UNL d   1      28.155 -12.060   8.215  0.00  0.00     0.029 A 
ATOM     18  C   UNL d   1      28.217 -12.200   9.609  0.00  0.00     0.002 A 
ATOM     19  C   UNL d   1      28.804 -13.326  10.176  0.00  0.00     0.000 A 
ATOM     20  C   UNL d   1      29.338 -14.307   9.348  0.00  0.00     0.002 A 
ATOM     21  C   UNL d   1      29.299 -14.152   7.957  0.00  0.00     0.029 A 
ENDBRANCH  12  16
ENDBRANCH   8  11
ENDBRANCH   3   5
ENDBRANCH   1   3
BRANCH   1  22
ATOM     22  N   UNL d   1      26.310 -15.721  -0.548  0.00  0.00    -0.304 N 
ATOM     23  C   UNL d   1      26.878 -16.977  -0.219  0.00  0.00     0.224 C 
ATOM     24  O   UNL d   1      28.014 -17.336  -0.538  0.00  0.00    -0.273 OA
ATOM     25  H   UNL d   1      25.381 -15.521  -0.201  0.00  0.00     0.171 HD
BRANCH  23  26
ATOM     26  C   UNL d   1      26.114 -17.987   0.606  0.00  0.00     0.113 C 
BRANCH  26  27
ATOM     27  C   UNL d   1      24.967 -18.575  -0.288  0.00  0.00     0.120 C 
BRANCH  27  28
ATOM     28  C   UNL d   1      24.304 -17.525  -1.124  0.00  0.00     0.259 C 
ATOM     29  O   UNL d   1      24.437 -17.460  -2.355  0.00  0.00    -0.265 OA
BRANCH  28  30
ATOM     30  O   UNL d   1      23.548 -16.660  -0.388  0.00  0.00    -0.321 OA
BRANCH  30  31
ATOM     31  C   UNL d   1      22.156 -16.651  -0.763  0.00  0.00     0.179 C 
BRANCH  31  32
ATOM     32  C   UNL d   1      21.611 -18.070  -0.895  0.00  0.00     0.031 C 
BRANCH  32  33
ATOM     33  C   UNL d   1      21.780 -18.868   0.410  0.00  0.00     0.041 C 
BRANCH  33  34
ATOM     34  C   UNL d   1      20.545 -19.698   0.658  0.00  0.00    -0.058 A 
ATOM     35  C   UNL d   1      19.707 -20.064  -0.403  0.00  0.00     0.007 A 
ATOM     36  C   UNL d   1      18.436 -20.578  -0.145  0.00  0.00     0.001 A 
ATOM     37  C   UNL d   1      18.031 -20.817   1.168  0.00  0.00     0.000 A 
ATOM     38  C   UNL d   1      18.891 -20.527   2.226  0.00  0.00     0.001 A 
ATOM     39  C   UNL d   1      20.141 -19.966   1.973  0.00  0.00     0.007 A 
ENDBRANCH  33  34
ENDBRANCH  32  33
ENDBRANCH  31  32
ENDBRANCH  30  31
ENDBRANCH  28  30
ENDBRANCH  27  28
ENDBRANCH  26  27
ENDBRANCH  23  26
ENDBRANCH   1  22
TORSDOF 14
ENDMDL
MODEL 4
REMARK VINA RESULT:    -8.409      4.789      9.833
REMARK INTER + INTRA:         -16.214
REMARK INTER:                 -12.585
REMARK INTRA:                  -3.629
REMARK CONF_INDEPENDENT:        4.176
REMARK UNBOUND:                -3.629
REMARK  14 active torsions:
REMARK  status: ('A' for Active; 'I' for Inactive)
REMARK    1  A    between atoms: C_2  and  N_3 
REMARK       I    between atoms: N_3  and  C_4 
REMARK    2  A    between atoms: N_3  and  C_32 
REMARK    3  A    between atoms: C_4  and  C_6 
REMARK    4  A    between atoms: C_9  and  N_10 
REMARK    5  A    between atoms: N_10  and  C_11 
REMARK    6  A    between atoms: C_11  and  N_13 
REMARK       I    between atoms: N_13  and  C_14 
REMARK    7  A    between atoms: C_14  and  C_16 
REMARK    8  A    between atoms: C_16  and  C_17 
REMARK    9  A    between atoms: C_17  and  C_18 
REMARK   10  A    between atoms: C_18  and  O_20 
REMARK   11  A    between atoms: O_20  and  C_21 
REMARK   12  A    between atoms: C_21  and  C_22 
REMARK   13  A    between atoms: C_22  and  C_23 
REMARK   14  A    between atoms: C_23  and  C_24 
ROOT
ATOM      1  C   UNL d   1      28.204 -13.065  -1.582  0.00  0.00     0.178 C 
ATOM      2  S   UNL d   1      29.824 -13.525  -1.403  0.00  0.00    -0.040 SA
ENDROOT
BRANCH   1   3
ATOM      3  N   UNL d   1      27.406 -12.463  -0.549  0.00  0.00    -0.333 N 
ATOM      4  H   UNL d   1      26.844 -11.646  -0.770  0.00  0.00     0.168 HD
BRANCH   3   5
ATOM      5  C   UNL d   1      27.398 -12.827   0.880  0.00  0.00     0.034 C 
ATOM      6  C   UNL d   1      26.810 -12.045   1.892  0.00  0.00     0.030 C 
ATOM      7  C   UNL d   1      27.035 -12.356   3.279  0.00  0.00     0.019 C 
ATOM      8  C   UNL d   1      27.714 -13.525   3.664  0.00  0.00     0.032 C 
ATOM      9  C   UNL d   1      28.011 -14.426   2.682  0.00  0.00     0.019 C 
ATOM     10  C   UNL d   1      27.962 -14.012   1.353  0.00  0.00     0.030 C 
BRANCH   8  11
ATOM     11  C   UNL d   1      28.086 -13.886   5.056  0.00  0.00     0.258 C 
ATOM     12  N   UNL d   1      28.727 -12.957   5.939  0.00  0.00    -0.314 N 
ATOM     13  O   UNL d   1      27.795 -15.047   5.353  0.00  0.00    -0.267 OA
BRANCH  12  14
ATOM     14  C   UNL d   1      28.954 -11.481   5.765  0.00  0.00     0.128 C 
ATOM     15  C   UNL d   1      29.325 -10.622   6.953  0.00  0.00     0.027 C 
ENDBRANCH  12  14
BRANCH  12  16
ATOM     16  C   UNL d   1      29.153 -13.466   7.238  0.00  0.00     0.037 A 
ATOM     17  C   UNL d   1      28.345 -13.317   8.375  0.00  0.00     0.029 A 
ATOM     18  C   UNL d   1      28.818 -13.653   9.652  0.00  0.00     0.002 A 
ATOM     19  C   UNL d   1      30.082 -14.212   9.807  0.00  0.00     0.000 A 
ATOM     20  C   UNL d   1      30.876 -14.428   8.686  0.00  0.00     0.002 A 
ATOM     21  C   UNL d   1      30.411 -14.067   7.415  0.00  0.00     0.029 A 
ENDBRANCH  12  16
ENDBRANCH   8  11
ENDBRANCH   3   5
ENDBRANCH   1   3
BRANCH   1  22
ATOM     22  N   UNL d   1      27.572 -13.248  -2.846  0.00  0.00    -0.304 N 
ATOM     23  C   UNL d   1      26.582 -12.366  -3.347  0.00  0.00     0.224 C 
ATOM     24  O   UNL d   1      26.235 -11.318  -2.796  0.00  0.00    -0.273 OA
ATOM     25  H   UNL d   1      27.800 -14.061  -3.402  0.00  0.00     0.171 HD
BRANCH  23  26
ATOM     26  C   UNL d   1      25.880 -12.643  -4.656  0.00  0.00     0.113 C 
BRANCH  26  27
ATOM     27  C   UNL d   1      25.283 -14.092  -4.589  0.00  0.00     0.120 C 
BRANCH  27  28
ATOM     28  C   UNL d   1      26.342 -15.147  -4.676  0.00  0.00     0.259 C 
ATOM     29  O   UNL d   1      26.982 -15.377  -5.713  0.00  0.00    -0.265 OA
BRANCH  28  30
ATOM     30  O   UNL d   1      26.521 -15.817  -3.501  0.00  0.00    -0.321 OA
BRANCH  30  31
ATOM     31  C   UNL d   1      25.444 -15.626  -2.562  0.00  0.00     0.179 C 
BRANCH  31  32
ATOM     32  C   UNL d   1      25.964 -15.584  -1.128  0.00  0.00     0.031 C 
BRANCH  32  33
ATOM     33  C   UNL d   1      25.945 -16.977  -0.474  0.00  0.00     0.041 C 
BRANCH  33  34
ATOM     34  C   UNL d   1      24.523 -17.473  -0.383  0.00  0.00    -0.058 A 
ATOM     35  C   UNL d   1      24.249 -18.845  -0.324  0.00  0.00     0.007 A 
ATOM     36  C   UNL d   1      22.948 -19.309  -0.525  0.00  0.00     0.001 A 
ATOM     37  C   UNL d   1      21.902 -18.402  -0.693  0.00  0.00     0.000 A 
ATOM     38  C   UNL d   1      22.156 -17.032  -0.675  0.00  0.00     0.001 A 
ATOM     39  C   UNL d   1      23.461 -16.569  -0.525  0.00  0.00     0.007 A 
ENDBRANCH  33  34
ENDBRANCH  32  33
ENDBRANCH  31  32
ENDBRANCH  30  31
ENDBRANCH  28  30
ENDBRANCH  27  28
ENDBRANCH  26  27
ENDBRANCH  23  26
ENDBRANCH   1  22
TORSDOF 14
ENDMDL
MODEL 5
REMARK VINA RESULT:    -8.144      3.707      8.204
REMARK INTER + INTRA:         -16.189
REMARK INTER:                 -12.320
REMARK INTRA:                  -3.869
REMARK CONF_INDEPENDENT:        4.176
REMARK UNBOUND:                -3.869
REMARK  14 active torsions:
REMARK  status: ('A' for Active; 'I' for Inactive)
REMARK    1  A    between atoms: C_2  and  N_3 
REMARK       I    between atoms: N_3  and  C_4 
REMARK    2  A    between atoms: N_3  and  C_32 
REMARK    3  A    between atoms: C_4  and  C_6 
REMARK    4  A    between atoms: C_9  and  N_10 
REMARK    5  A    between atoms: N_10  and  C_11 
REMARK    6  A    between atoms: C_11  and  N_13 
REMARK       I    between atoms: N_13  and  C_14 
REMARK    7  A    between atoms: C_14  and  C_16 
REMARK    8  A    between atoms: C_16  and  C_17 
REMARK    9  A    between atoms: C_17  and  C_18 
REMARK   10  A    between atoms: C_18  and  O_20 
REMARK   11  A    between atoms: O_20  and  C_21 
REMARK   12  A    between atoms: C_21  and  C_22 
REMARK   13  A    between atoms: C_22  and  C_23 
REMARK   14  A    between atoms: C_23  and  C_24 
ROOT
ATOM      1  C   UNL d   1      29.399 -16.122  -4.998  0.00  0.00     0.178 C 
ATOM      2  S   UNL d   1      30.312 -16.565  -6.355  0.00  0.00    -0.040 SA
ENDROOT
BRANCH   1   3
ATOM      3  N   UNL d   1      29.722 -16.477  -3.644  0.00  0.00    -0.333 N 
ATOM      4  H   UNL d   1      30.351 -17.257  -3.474  0.00  0.00     0.168 HD
BRANCH   3   5
ATOM      5  C   UNL d   1      29.134 -15.903  -2.420  0.00  0.00     0.034 C 
ATOM      6  C   UNL d   1      28.709 -14.567  -2.298  0.00  0.00     0.030 C 
ATOM      7  C   UNL d   1      28.354 -14.027  -1.013  0.00  0.00     0.019 C 
ATOM      8  C   UNL d   1      28.273 -14.847   0.126  0.00  0.00     0.032 C 
ATOM      9  C   UNL d   1      28.390 -16.195  -0.066  0.00  0.00     0.019 C 
ATOM     10  C   UNL d   1      28.924 -16.658  -1.266  0.00  0.00     0.030 C 
BRANCH   8  11
ATOM     11  C   UNL d   1      28.016 -14.375   1.510  0.00  0.00     0.258 C 
ATOM     12  N   UNL d   1      29.055 -14.295   2.494  0.00  0.00    -0.314 N 
ATOM     13  O   UNL d   1      26.837 -14.076   1.713  0.00  0.00    -0.267 OA
BRANCH  12  14
ATOM     14  C   UNL d   1      30.541 -14.441   2.321  0.00  0.00     0.128 C 
ATOM     15  C   UNL d   1      31.180 -14.193   0.973  0.00  0.00     0.027 C 
ENDBRANCH  12  14
BRANCH  12  16
ATOM     16  C   UNL d   1      28.656 -13.935   3.850  0.00  0.00     0.037 A 
ATOM     17  C   UNL d   1      28.185 -12.648   4.149  0.00  0.00     0.029 A 
ATOM     18  C   UNL d   1      27.959 -12.246   5.473  0.00  0.00     0.002 A 
ATOM     19  C   UNL d   1      28.130 -13.148   6.519  0.00  0.00     0.000 A 
ATOM     20  C   UNL d   1      28.535 -14.448   6.240  0.00  0.00     0.002 A 
ATOM     21  C   UNL d   1      28.786 -14.839   4.919  0.00  0.00     0.029 A 
ENDBRANCH  12  16
ENDBRANCH   8  11
ENDBRANCH   3   5
ENDBRANCH   1   3
BRANCH   1  22
ATOM     22  N   UNL d   1      28.241 -15.311  -5.183  0.00  0.00    -0.304 N 
ATOM     23  C   UNL d   1      28.308 -13.944  -5.549  0.00  0.00     0.224 C 
ATOM     24  O   UNL d   1      29.349 -13.346  -5.832  0.00  0.00    -0.273 OA
ATOM     25  H   UNL d   1      27.327 -15.705  -5.007  0.00  0.00     0.171 HD
BRANCH  23  26
ATOM     26  C   UNL d   1      27.058 -13.102  -5.654  0.00  0.00     0.113 C 
BRANCH  26  27
ATOM     27  C   UNL d   1      26.321 -13.153  -4.271  0.00  0.00     0.120 C 
BRANCH  27  28
ATOM     28  C   UNL d   1      25.154 -14.092  -4.283  0.00  0.00     0.259 C 
ATOM     29  O   UNL d   1      23.977 -13.705  -4.259  0.00  0.00    -0.265 OA
BRANCH  28  30
ATOM     30  O   UNL d   1      25.529 -15.403  -4.323  0.00  0.00    -0.321 OA
BRANCH  30  31
ATOM     31  C   UNL d   1      25.839 -15.952  -3.025  0.00  0.00     0.179 C 
BRANCH  31  32
ATOM     32  C   UNL d   1      25.282 -15.074  -1.908  0.00  0.00     0.031 C 
BRANCH  32  33
ATOM     33  C   UNL d   1      25.152 -15.851  -0.586  0.00  0.00     0.041 C 
BRANCH  33  34
ATOM     34  C   UNL d   1      24.150 -16.966  -0.752  0.00  0.00    -0.058 A 
ATOM     35  C   UNL d   1      22.786 -16.682  -0.896  0.00  0.00     0.007 A 
ATOM     36  C   UNL d   1      21.841 -17.702  -0.766  0.00  0.00     0.001 A 
ATOM     37  C   UNL d   1      22.257 -19.020  -0.583  0.00  0.00     0.000 A 
ATOM     38  C   UNL d   1      23.616 -19.320  -0.516  0.00  0.00     0.001 A 
ATOM     39  C   UNL d   1      24.559 -18.297  -0.596  0.00  0.00     0.007 A 
ENDBRANCH  33  34
ENDBRANCH  32  33
ENDBRANCH  31  32
ENDBRANCH  30  31
ENDBRANCH  28  30
ENDBRANCH  27  28
ENDBRANCH  26  27
ENDBRANCH  23  26
ENDBRANCH   1  22
TORSDOF 14
ENDMDL
MODEL 6
REMARK VINA RESULT:    -8.028      4.017      8.486
REMARK INTER + INTRA:         -16.034
REMARK INTER:                 -12.204
REMARK INTRA:                  -3.829
REMARK CONF_INDEPENDENT:        4.176
REMARK UNBOUND:                -3.829
REMARK  14 active torsions:
REMARK  status: ('A' for Active; 'I' for Inactive)
REMARK    1  A    between atoms: C_2  and  N_3 
REMARK       I    between atoms: N_3  and  C_4 
REMARK    2  A    between atoms: N_3  and  C_32 
REMARK    3  A    between atoms: C_4  and  C_6 
REMARK    4  A    between atoms: C_9  and  N_10 
REMARK    5  A    between atoms: N_10  and  C_11 
REMARK    6  A    between atoms: C_11  and  N_13 
REMARK       I    between atoms: N_13  and  C_14 
REMARK    7  A    between atoms: C_14  and  C_16 
REMARK    8  A    between atoms: C_16  and  C_17 
REMARK    9  A    between atoms: C_17  and  C_18 
REMARK   10  A    between atoms: C_18  and  O_20 
REMARK   11  A    between atoms: O_20  and  C_21 
REMARK   12  A    between atoms: C_21  and  C_22 
REMARK   13  A    between atoms: C_22  and  C_23 
REMARK   14  A    between atoms: C_23  and  C_24 
ROOT
ATOM      1  C   UNL d   1      26.638 -12.156  -5.575  0.00  0.00     0.178 C 
ATOM      2  S   UNL d   1      26.280 -11.129  -6.874  0.00  0.00    -0.040 SA
ENDROOT
BRANCH   1   3
ATOM      3  N   UNL d   1      25.803 -12.334  -4.419  0.00  0.00    -0.333 N 
ATOM      4  H   UNL d   1      24.803 -12.178  -4.502  0.00  0.00     0.168 HD
BRANCH   3   5
ATOM      5  C   UNL d   1      26.255 -12.608  -3.042  0.00  0.00     0.034 C 
ATOM      6  C   UNL d   1      26.022 -13.816  -2.360  0.00  0.00     0.030 C 
ATOM      7  C   UNL d   1      26.298 -13.925  -0.952  0.00  0.00     0.019 C 
ATOM      8  C   UNL d   1      26.944 -12.890  -0.253  0.00  0.00     0.032 C 
ATOM      9  C   UNL d   1      27.437 -11.852  -0.990  0.00  0.00     0.019 C 
ATOM     10  C   UNL d   1      26.984 -11.682  -2.296  0.00  0.00     0.030 C 
BRANCH   8  11
ATOM     11  C   UNL d   1      27.182 -12.860   1.213  0.00  0.00     0.258 C 
ATOM     12  N   UNL d   1      28.195 -13.658   1.838  0.00  0.00    -0.314 N 
ATOM     13  O   UNL d   1      26.425 -12.095   1.815  0.00  0.00    -0.267 OA
BRANCH  12  14
ATOM     14  C   UNL d   1      29.293 -14.467   1.205  0.00  0.00     0.128 C 
ATOM     15  C   UNL d   1      30.038 -13.932   0.003  0.00  0.00     0.027 C 
ENDBRANCH  12  14
BRANCH  12  16
ATOM     16  C   UNL d   1      28.250 -13.634   3.296  0.00  0.00     0.037 A 
ATOM     17  C   UNL d   1      28.270 -14.824   4.039  0.00  0.00     0.029 A 
ATOM     18  C   UNL d   1      28.156 -14.810   5.436  0.00  0.00     0.002 A 
ATOM     19  C   UNL d   1      28.093 -13.601   6.123  0.00  0.00     0.000 A 
ATOM     20  C   UNL d   1      28.136 -12.409   5.410  0.00  0.00     0.002 A 
ATOM     21  C   UNL d   1      28.224 -12.426   4.013  0.00  0.00     0.029 A 
ENDBRANCH  12  16
ENDBRANCH   8  11
ENDBRANCH   3   5
ENDBRANCH   1   3
BRANCH   1  22
ATOM     22  N   UNL d   1      27.831 -12.935  -5.622  0.00  0.00    -0.304 N 
ATOM     23  C   UNL d   1      27.825 -14.351  -5.669  0.00  0.00     0.224 C 
ATOM     24  O   UNL d   1      26.809 -15.043  -5.766  0.00  0.00    -0.273 OA
ATOM     25  H   UNL d   1      28.728 -12.471  -5.578  0.00  0.00     0.171 HD
BRANCH  23  26
ATOM     26  C   UNL d   1      29.115 -15.138  -5.636  0.00  0.00     0.113 C 
BRANCH  26  27
ATOM     27  C   UNL d   1      29.028 -16.162  -4.451  0.00  0.00     0.120 C 
BRANCH  27  28
ATOM     28  C   UNL d   1      28.655 -15.504  -3.159  0.00  0.00     0.259 C 
ATOM     29  O   UNL d   1      29.056 -14.376  -2.836  0.00  0.00    -0.265 OA
BRANCH  28  30
ATOM     30  O   UNL d   1      27.838 -16.277  -2.387  0.00  0.00    -0.321 OA
BRANCH  30  31
ATOM     31  C   UNL d   1      28.517 -16.909  -1.283  0.00  0.00     0.179 C 
BRANCH  31  32
ATOM     32  C   UNL d   1      27.546 -17.716  -0.427  0.00  0.00     0.031 C 
BRANCH  32  33
ATOM     33  C   UNL d   1      26.482 -16.817   0.228  0.00  0.00     0.041 C 
BRANCH  33  34
ATOM     34  C   UNL d   1      25.110 -17.239  -0.237  0.00  0.00    -0.058 A 
ATOM     35  C   UNL d   1      24.161 -16.282  -0.616  0.00  0.00     0.007 A 
ATOM     36  C   UNL d   1      22.822 -16.647  -0.770  0.00  0.00     0.001 A 
ATOM     37  C   UNL d   1      22.442 -17.982  -0.639  0.00  0.00     0.000 A 
ATOM     38  C   UNL d   1      23.396 -18.952  -0.338  0.00  0.00     0.001 A 
ATOM     39  C   UNL d   1      24.724 -18.583  -0.134  0.00  0.00     0.007 A 
ENDBRANCH  33  34
ENDBRANCH  32  33
ENDBRANCH  31  32
ENDBRANCH  30  31
ENDBRANCH  28  30
ENDBRANCH  27  28
ENDBRANCH  26  27
ENDBRANCH  23  26
ENDBRANCH   1  22
TORSDOF 14
ENDMDL
MODEL 7
REMARK VINA RESULT:    -7.797      4.850     10.022
REMARK INTER + INTRA:         -16.307
REMARK INTER:                 -11.973
REMARK INTRA:                  -4.335
REMARK CONF_INDEPENDENT:        4.176
REMARK UNBOUND:                -4.335
REMARK  14 active torsions:
REMARK  status: ('A' for Active; 'I' for Inactive)
REMARK    1  A    between atoms: C_2  and  N_3 
REMARK       I    between atoms: N_3  and  C_4 
REMARK    2  A    between atoms: N_3  and  C_32 
REMARK    3  A    between atoms: C_4  and  C_6 
REMARK    4  A    between atoms: C_9  and  N_10 
REMARK    5  A    between atoms: N_10  and  C_11 
REMARK    6  A    between atoms: C_11  and  N_13 
REMARK       I    between atoms: N_13  and  C_14 
REMARK    7  A    between atoms: C_14  and  C_16 
REMARK    8  A    between atoms: C_16  and  C_17 
REMARK    9  A    between atoms: C_17  and  C_18 
REMARK   10  A    between atoms: C_18  and  O_20 
REMARK   11  A    between atoms: O_20  and  C_21 
REMARK   12  A    between atoms: C_21  and  C_22 
REMARK   13  A    between atoms: C_22  and  C_23 
REMARK   14  A    between atoms: C_23  and  C_24 
ROOT
ATOM      1  C   UNL d   1      28.973 -14.680  -1.752  0.00  0.00     0.178 C 
ATOM      2  S   UNL d   1      29.556 -16.200  -1.283  0.00  0.00    -0.040 SA
ENDROOT
BRANCH   1   3
ATOM      3  N   UNL d   1      28.694 -13.597  -0.849  0.00  0.00    -0.333 N 
ATOM      4  H   UNL d   1      28.797 -12.641  -1.176  0.00  0.00     0.168 HD
BRANCH   3   5
ATOM      5  C   UNL d   1      28.380 -13.709   0.587  0.00  0.00     0.034 C 
ATOM      6  C   UNL d   1      27.147 -13.343   1.158  0.00  0.00     0.030 C 
ATOM      7  C   UNL d   1      26.996 -13.274   2.587  0.00  0.00     0.019 C 
ATOM      8  C   UNL d   1      28.014 -13.713   3.451  0.00  0.00     0.032 C 
ATOM      9  C   UNL d   1      29.082 -14.348   2.885  0.00  0.00     0.019 C 
ATOM     10  C   UNL d   1      29.289 -14.220   1.513  0.00  0.00     0.030 C 
BRANCH   8  11
ATOM     11  C   UNL d   1      27.999 -13.592   4.931  0.00  0.00     0.258 C 
ATOM     12  N   UNL d   1      29.047 -12.932   5.653  0.00  0.00    -0.314 N 
ATOM     13  O   UNL d   1      27.013 -14.115   5.454  0.00  0.00    -0.267 OA
BRANCH  12  14
ATOM     14  C   UNL d   1      30.183 -12.098   5.129  0.00  0.00     0.128 C 
ATOM     15  C   UNL d   1      29.906 -10.791   4.422  0.00  0.00     0.027 C 
ENDBRANCH  12  14
BRANCH  12  16
ATOM     16  C   UNL d   1      28.983 -12.985   7.109  0.00  0.00     0.037 A 
ATOM     17  C   UNL d   1      29.502 -14.079   7.818  0.00  0.00     0.029 A 
ATOM     18  C   UNL d   1      29.296 -14.215   9.198  0.00  0.00     0.002 A 
ATOM     19  C   UNL d   1      28.629 -13.222   9.909  0.00  0.00     0.000 A 
ATOM     20  C   UNL d   1      28.162 -12.099   9.237  0.00  0.00     0.002 A 
ATOM     21  C   UNL d   1      28.345 -11.978   7.854  0.00  0.00     0.029 A 
ENDBRANCH  12  16
ENDBRANCH   8  11
ENDBRANCH   3   5
ENDBRANCH   1   3
BRANCH   1  22
ATOM     22  N   UNL d   1      28.768 -14.419  -3.138  0.00  0.00    -0.304 N 
ATOM     23  C   UNL d   1      28.734 -13.109  -3.679  0.00  0.00     0.224 C 
ATOM     24  O   UNL d   1      28.964 -12.081  -3.037  0.00  0.00    -0.273 OA
ATOM     25  H   UNL d   1      28.598 -15.191  -3.769  0.00  0.00     0.171 HD
BRANCH  23  26
ATOM     26  C   UNL d   1      28.433 -12.876  -5.141  0.00  0.00     0.113 C 
BRANCH  26  27
ATOM     27  C   UNL d   1      26.936 -13.268  -5.397  0.00  0.00     0.120 C 
BRANCH  27  28
ATOM     28  C   UNL d   1      26.716 -14.747  -5.324  0.00  0.00     0.259 C 
ATOM     29  O   UNL d   1      27.578 -15.575  -5.656  0.00  0.00    -0.265 OA
BRANCH  28  30
ATOM     30  O   UNL d   1      25.477 -15.076  -4.857  0.00  0.00    -0.321 OA
BRANCH  30  31
ATOM     31  C   UNL d   1      24.799 -13.982  -4.207  0.00  0.00     0.179 C 
BRANCH  31  32
ATOM     32  C   UNL d   1      24.419 -14.343  -2.773  0.00  0.00     0.031 C 
BRANCH  32  33
ATOM     33  C   UNL d   1      25.638 -14.827  -1.967  0.00  0.00     0.041 C 
BRANCH  33  34
ATOM     34  C   UNL d   1      25.265 -16.061  -1.182  0.00  0.00    -0.058 A 
ATOM     35  C   UNL d   1      26.246 -16.803  -0.513  0.00  0.00     0.007 A 
ATOM     36  C   UNL d   1      25.952 -18.080  -0.033  0.00  0.00     0.001 A 
ATOM     37  C   UNL d   1      24.656 -18.583  -0.135  0.00  0.00     0.000 A 
ATOM     38  C   UNL d   1      23.655 -17.818  -0.732  0.00  0.00     0.001 A 
ATOM     39  C   UNL d   1      23.959 -16.564  -1.257  0.00  0.00     0.007 A 
ENDBRANCH  33  34
ENDBRANCH  32  33
ENDBRANCH  31  32
ENDBRANCH  30  31
ENDBRANCH  28  30
ENDBRANCH  27  28
ENDBRANCH  26  27
ENDBRANCH  23  26
ENDBRANCH   1  22
TORSDOF 14
ENDMDL
MODEL 8
REMARK VINA RESULT:    -7.226      4.614     10.318
REMARK INTER + INTRA:         -15.981
REMARK INTER:                 -11.402
REMARK INTRA:                  -4.579
REMARK CONF_INDEPENDENT:        4.176
REMARK UNBOUND:                -4.579
REMARK  14 active torsions:
REMARK  status: ('A' for Active; 'I' for Inactive)
REMARK    1  A    between atoms: C_2  and  N_3 
REMARK       I    between atoms: N_3  and  C_4 
REMARK    2  A    between atoms: N_3  and  C_32 
REMARK    3  A    between atoms: C_4  and  C_6 
REMARK    4  A    between atoms: C_9  and  N_10 
REMARK    5  A    between atoms: N_10  and  C_11 
REMARK    6  A    between atoms: C_11  and  N_13 
REMARK       I    between atoms: N_13  and  C_14 
REMARK    7  A    between atoms: C_14  and  C_16 
REMARK    8  A    between atoms: C_16  and  C_17 
REMARK    9  A    between atoms: C_17  and  C_18 
REMARK   10  A    between atoms: C_18  and  O_20 
REMARK   11  A    between atoms: O_20  and  C_21 
REMARK   12  A    between atoms: C_21  and  C_22 
REMARK   13  A    between atoms: C_22  and  C_23 
REMARK   14  A    between atoms: C_23  and  C_24 
ROOT
ATOM      1  C   UNL d   1      27.126 -12.592  -1.670  0.00  0.00     0.178 C 
ATOM      2  S   UNL d   1      28.073 -11.206  -1.440  0.00  0.00    -0.040 SA
ENDROOT
BRANCH   1   3
ATOM      3  N   UNL d   1      26.685 -13.464  -0.617  0.00  0.00    -0.333 N 
ATOM      4  H   UNL d   1      25.899 -14.085  -0.785  0.00  0.00     0.168 HD
BRANCH   3   5
ATOM      5  C   UNL d   1      27.176 -13.482   0.773  0.00  0.00     0.034 C 
ATOM      6  C   UNL d   1      28.195 -14.332   1.241  0.00  0.00     0.030 C 
ATOM      7  C   UNL d   1      28.463 -14.445   2.650  0.00  0.00     0.019 C 
ATOM      8  C   UNL d   1      27.829 -13.607   3.583  0.00  0.00     0.032 C 
ATOM      9  C   UNL d   1      27.071 -12.584   3.089  0.00  0.00     0.019 C 
ATOM     10  C   UNL d   1      26.677 -12.625   1.754  0.00  0.00     0.030 C 
BRANCH   8  11
ATOM     11  C   UNL d   1      27.957 -13.710   5.059  0.00  0.00     0.258 C 
ATOM     12  N   UNL d   1      28.660 -12.730   5.833  0.00  0.00    -0.314 N 
ATOM     13  O   UNL d   1      27.411 -14.711   5.528  0.00  0.00    -0.267 OA
BRANCH  12  14
ATOM     14  C   UNL d   1      29.191 -11.388   5.413  0.00  0.00     0.128 C 
ATOM     15  C   UNL d   1      28.546 -10.119   5.923  0.00  0.00     0.027 C 
ENDBRANCH  12  14
BRANCH  12  16
ATOM     16  C   UNL d   1      28.823 -13.004   7.257  0.00  0.00     0.037 A 
ATOM     17  C   UNL d   1      29.609 -14.078   7.703  0.00  0.00     0.029 A 
ATOM     18  C   UNL d   1      29.636 -14.447   9.055  0.00  0.00     0.002 A 
ATOM     19  C   UNL d   1      28.935 -13.704   9.999  0.00  0.00     0.000 A 
ATOM     20  C   UNL d   1      28.201 -12.597   9.588  0.00  0.00     0.002 A 
ATOM     21  C   UNL d   1      28.154 -12.247   8.233  0.00  0.00     0.029 A 
ENDBRANCH  12  16
ENDBRANCH   8  11
ENDBRANCH   3   5
ENDBRANCH   1   3
BRANCH   1  22
ATOM     22  N   UNL d   1      26.695 -12.920  -2.988  0.00  0.00    -0.304 N 
ATOM     23  C   UNL d   1      25.529 -13.682  -3.250  0.00  0.00     0.224 C 
ATOM     24  O   UNL d   1      24.730 -14.055  -2.389  0.00  0.00    -0.273 OA
ATOM     25  H   UNL d   1      27.259 -12.639  -3.779  0.00  0.00     0.171 HD
BRANCH  23  26
ATOM     26  C   UNL d   1      25.155 -14.074  -4.661  0.00  0.00     0.113 C 
BRANCH  26  27
ATOM     27  C   UNL d   1      26.053 -15.290  -5.081  0.00  0.00     0.120 C 
BRANCH  27  28
ATOM     28  C   UNL d   1      27.490 -14.903  -5.246  0.00  0.00     0.259 C 
ATOM     29  O   UNL d   1      27.850 -13.749  -5.521  0.00  0.00    -0.265 OA
BRANCH  28  30
ATOM     30  O   UNL d   1      28.345 -15.950  -5.064  0.00  0.00    -0.321 OA
BRANCH  30  31
ATOM     31  C   UNL d   1      29.273 -15.751  -3.979  0.00  0.00     0.179 C 
BRANCH  31  32
ATOM     32  C   UNL d   1      28.925 -16.637  -2.786  0.00  0.00     0.031 C 
BRANCH  32  33
ATOM     33  C   UNL d   1      28.127 -15.866  -1.719  0.00  0.00     0.041 C 
BRANCH  33  34
ATOM     34  C   UNL d   1      27.009 -16.736  -1.200  0.00  0.00    -0.058 A 
ATOM     35  C   UNL d   1      25.742 -16.701  -1.797  0.00  0.00     0.007 A 
ATOM     36  C   UNL d   1      24.648 -17.280  -1.152  0.00  0.00     0.001 A 
ATOM     37  C   UNL d   1      24.829 -17.975   0.043  0.00  0.00     0.000 A 
ATOM     38  C   UNL d   1      26.100 -18.079   0.604  0.00  0.00     0.001 A 
ATOM     39  C   UNL d   1      27.186 -17.459  -0.012  0.00  0.00     0.007 A 
ENDBRANCH  33  34
ENDBRANCH  32  33
ENDBRANCH  31  32
ENDBRANCH  30  31
ENDBRANCH  28  30
ENDBRANCH  27  28
ENDBRANCH  26  27
ENDBRANCH  23  26
ENDBRANCH   1  22
TORSDOF 14
ENDMDL
MODEL 9
REMARK VINA RESULT:    -7.080      4.726     10.074
REMARK INTER + INTRA:         -15.705
REMARK INTER:                 -11.256
REMARK INTRA:                  -4.449
REMARK CONF_INDEPENDENT:        4.176
REMARK UNBOUND:                -4.449
REMARK  14 active torsions:
REMARK  status: ('A' for Active; 'I' for Inactive)
REMARK    1  A    between atoms: C_2  and  N_3 
REMARK       I    between atoms: N_3  and  C_4 
REMARK    2  A    between atoms: N_3  and  C_32 
REMARK    3  A    between atoms: C_4  and  C_6 
REMARK    4  A    between atoms: C_9  and  N_10 
REMARK    5  A    between atoms: N_10  and  C_11 
REMARK    6  A    between atoms: C_11  and  N_13 
REMARK       I    between atoms: N_13  and  C_14 
REMARK    7  A    between atoms: C_14  and  C_16 
REMARK    8  A    between atoms: C_16  and  C_17 
REMARK    9  A    between atoms: C_17  and  C_18 
REMARK   10  A    between atoms: C_18  and  O_20 
REMARK   11  A    between atoms: O_20  and  C_21 
REMARK   12  A    between atoms: C_21  and  C_22 
REMARK   13  A    between atoms: C_22  and  C_23 
REMARK   14  A    between atoms: C_23  and  C_24 
ROOT
ATOM      1  C   UNL d   1      28.103 -12.826  -1.871  0.00  0.00     0.178 C 
ATOM      2  S   UNL d   1      27.815 -11.210  -1.451  0.00  0.00    -0.040 SA
ENDROOT
BRANCH   1   3
ATOM      3  N   UNL d   1      28.161 -13.915  -0.936  0.00  0.00    -0.333 N 
ATOM      4  H   UNL d   1      28.323 -14.857  -1.282  0.00  0.00     0.168 HD
BRANCH   3   5
ATOM      5  C   UNL d   1      27.881 -13.848   0.511  0.00  0.00     0.034 C 
ATOM      6  C   UNL d   1      26.953 -12.969   1.096  0.00  0.00     0.030 C 
ATOM      7  C   UNL d   1      26.898 -12.810   2.525  0.00  0.00     0.019 C 
ATOM      8  C   UNL d   1      27.654 -13.630   3.381  0.00  0.00     0.032 C 
ATOM      9  C   UNL d   1      28.318 -14.680   2.812  0.00  0.00     0.019 C 
ATOM     10  C   UNL d   1      28.510 -14.685   1.433  0.00  0.00     0.030 C 
BRANCH   8  11
ATOM     11  C   UNL d   1      27.747 -13.482   4.855  0.00  0.00     0.258 C 
ATOM     12  N   UNL d   1      28.885 -12.888   5.492  0.00  0.00    -0.314 N 
ATOM     13  O   UNL d   1      26.764 -13.924   5.453  0.00  0.00    -0.267 OA
BRANCH  12  14
ATOM     14  C   UNL d   1      30.040 -12.147   4.877  0.00  0.00     0.128 C 
ATOM     15  C   UNL d   1      29.790 -11.047   3.870  0.00  0.00     0.027 C 
ENDBRANCH  12  14
BRANCH  12  16
ATOM     16  C   UNL d   1      28.915 -12.911   6.950  0.00  0.00     0.037 A 
ATOM     17  C   UNL d   1      29.271 -14.075   7.649  0.00  0.00     0.029 A 
ATOM     18  C   UNL d   1      29.141 -14.153   9.043  0.00  0.00     0.002 A 
ATOM     19  C   UNL d   1      28.722 -13.045   9.772  0.00  0.00     0.000 A 
ATOM     20  C   UNL d   1      28.425 -11.862   9.106  0.00  0.00     0.002 A 
ATOM     21  C   UNL d   1      28.530 -11.794   7.711  0.00  0.00     0.029 A 
ENDBRANCH  12  16
ENDBRANCH   8  11
ENDBRANCH   3   5
ENDBRANCH   1   3
BRANCH   1  22
ATOM     22  N   UNL d   1      28.271 -13.160  -3.246  0.00  0.00    -0.304 N 
ATOM     23  C   UNL d   1      29.014 -14.286  -3.680  0.00  0.00     0.224 C 
ATOM     24  O   UNL d   1      29.507 -15.131  -2.928  0.00  0.00    -0.273 OA
ATOM     25  H   UNL d   1      27.883 -12.553  -3.956  0.00  0.00     0.171 HD
BRANCH  23  26
ATOM     26  C   UNL d   1      29.234 -14.557  -5.150  0.00  0.00     0.113 C 
BRANCH  26  27
ATOM     27  C   UNL d   1      27.999 -13.996  -5.937  0.00  0.00     0.120 C 
BRANCH  27  28
ATOM     28  C   UNL d   1      26.698 -14.434  -5.339  0.00  0.00     0.259 C 
ATOM     29  O   UNL d   1      26.277 -15.598  -5.419  0.00  0.00    -0.265 OA
BRANCH  28  30
ATOM     30  O   UNL d   1      26.039 -13.423  -4.705  0.00  0.00    -0.321 OA
BRANCH  30  31
ATOM     31  C   UNL d   1      24.926 -13.874  -3.905  0.00  0.00     0.179 C 
BRANCH  31  32
ATOM     32  C   UNL d   1      25.404 -14.498  -2.597  0.00  0.00     0.031 C 
BRANCH  32  33
ATOM     33  C   UNL d   1      24.533 -15.699  -2.189  0.00  0.00     0.041 C 
BRANCH  33  34
ATOM     34  C   UNL d   1      25.229 -16.481  -1.102  0.00  0.00    -0.058 A 
ATOM     35  C   UNL d   1      26.627 -16.527  -1.041  0.00  0.00     0.007 A 
ATOM     36  C   UNL d   1      27.262 -17.464  -0.224  0.00  0.00     0.001 A 
ATOM     37  C   UNL d   1      26.507 -18.294   0.604  0.00  0.00     0.000 A 
ATOM     38  C   UNL d   1      25.117 -18.200   0.605  0.00  0.00     0.001 A 
ATOM     39  C   UNL d   1      24.479 -17.300  -0.247  0.00  0.00     0.007 A 
ENDBRANCH  33  34
ENDBRANCH  32  33
ENDBRANCH  31  32
ENDBRANCH  30  31
ENDBRANCH  28  30
ENDBRANCH  27  28
ENDBRANCH  26  27
ENDBRANCH  23  26
ENDBRANCH   1  22
TORSDOF 14
ENDMDL
