MODEL 1
REMARK VINA RESULT:   -30.510      0.000      0.000
REMARK INTER + INTRA:         -35.459
REMARK INTER:                 -32.897
REMARK INTRA:                  -2.562
REMARK CONF_INDEPENDENT:        2.386
REMARK UNBOUND:                -2.562
REMARK  8 active torsions:
REMARK  status: ('A' for Active; 'I' for Inactive)
REMARK    1  A    between atoms: N_1  and  N_2 
REMARK       I    between atoms: N_2  and  C_3 
REMARK    2  A    between atoms: C_3  and  C_5 
REMARK    3  A    between atoms: C_5  and  N_6 
REMARK    4  A    between atoms: N_6  and  C_7 
REMARK    5  A    between atoms: C_7  and  C_8 
REMARK    6  A    between atoms: C_7  and  C_14 
REMARK    7  A    between atoms: C_20  and  N_21 
REMARK       I    between atoms: N_21  and  C_22 
REMARK    8  A    between atoms: C_22  and  C_24 
ROOT
ATOM      1  C   UNL d   1      26.731 -15.909  -0.735  0.00  0.00    -0.003 C 
ATOM      2  C   UNL d   1      26.353 -15.160   0.417  0.00  0.00     0.031 C 
ATOM      3  C   UNL d   1      27.320 -14.614   1.241  0.00  0.00     0.011 C 
ATOM      4 BR   UNL d   1      26.847 -13.275   2.492  0.00  0.00    -0.051 Br
ATOM      5  C   UNL d   1      28.649 -14.968   1.059  0.00  0.00     0.021 C 
ATOM      6  C   UNL d   1      29.032 -15.758  -0.045  0.00  0.00     0.031 C 
ATOM      7  C   UNL d   1      28.114 -16.171  -1.026  0.00  0.00     0.043 C 
ENDROOT
BRANCH   1   8
ATOM      8  C   UNL d   1      25.559 -16.399  -1.588  0.00  0.00     0.146 C 
BRANCH   8   9
ATOM      9  N   UNL d   1      24.497 -16.725  -0.618  0.00  0.00    -0.401 N 
ATOM     10  H   UNL d   1      24.460 -16.199   0.251  0.00  0.00     0.154 HD
BRANCH   9  11
ATOM     11  C   UNL d   1      23.633 -17.887  -0.705  0.00  0.00     0.219 C 
BRANCH  11  12
ATOM     12  C   UNL d   1      22.118 -17.526  -0.871  0.00  0.00     0.248 C 
ATOM     13  N   UNL d   1      21.316 -18.681  -0.985  0.00  0.00    -0.293 N 
ATOM     14  H   UNL d   1      21.754 -19.598  -0.965  0.00  0.00     0.183 HD
ATOM     15  O   UNL d   1      21.648 -16.389  -0.895  0.00  0.00    -0.270 OA
BRANCH  13  16
ATOM     16  N   UNL d   1      19.905 -18.575  -0.949  0.00  0.00    -0.247 NA
ATOM     17  H   UNL d   1      19.478 -19.081  -1.724  0.00  0.00     0.143 HD
ATOM     18  H   UNL d   1      19.658 -17.586  -1.059  0.00  0.00     0.143 HD
ENDBRANCH  13  16
ENDBRANCH  11  12
ENDBRANCH   9  11
ENDBRANCH   8   9
BRANCH   8  19
ATOM     19  C   UNL d   1      25.393 -15.477  -2.861  0.00  0.00    -0.031 C 
ATOM     20  C   UNL d   1      24.460 -14.446  -2.903  0.00  0.00     0.009 C 
ATOM     21  C   UNL d   1      24.466 -13.504  -3.953  0.00  0.00     0.001 C 
ATOM     22  C   UNL d   1      25.471 -13.492  -4.917  0.00  0.00     0.000 C 
ATOM     23  C   UNL d   1      26.318 -14.570  -4.988  0.00  0.00     0.001 C 
ATOM     24  C   UNL d   1      26.207 -15.582  -4.030  0.00  0.00     0.009 C 
ENDBRANCH   8  19
ENDBRANCH   1   8
BRANCH   7  25
ATOM     25  N   UNL d   1      28.663 -16.991  -2.128  0.00  0.00    -0.322 N 
ATOM     26  C   UNL d   1      29.724 -16.681  -2.971  0.00  0.00     0.256 C 
ATOM     27  O   UNL d   1      30.632 -15.904  -2.675  0.00  0.00    -0.267 OA
ATOM     28  H   UNL d   1      28.140 -17.825  -2.347  0.00  0.00     0.169 HD
BRANCH  26  29
ATOM     29  C   UNL d   1      29.976 -17.133  -4.352  0.00  0.00     0.032 C 
ATOM     30  C   UNL d   1      30.282 -18.524  -4.504  0.00  0.00     0.017 C 
ATOM     31  C   UNL d   1      30.666 -19.079  -5.709  0.00  0.00     0.001 C 
ATOM     32  C   UNL d   1      30.750 -18.240  -6.803  0.00  0.00     0.000 C 
ATOM     33  C   UNL d   1      30.583 -16.854  -6.650  0.00  0.00     0.001 C 
ATOM     34  C   UNL d   1      30.175 -16.294  -5.433  0.00  0.00     0.017 C 
ENDBRANCH  26  29
ENDBRANCH   7  25
TORSDOF 8
ENDMDL
MODEL 2
REMARK VINA RESULT:   -28.179      2.476      3.029
REMARK INTER + INTRA:         -33.155
REMARK INTER:                 -30.565
REMARK INTRA:                  -2.590
REMARK CONF_INDEPENDENT:        2.386
REMARK UNBOUND:                -2.590
REMARK  8 active torsions:
REMARK  status: ('A' for Active; 'I' for Inactive)
REMARK    1  A    between atoms: N_1  and  N_2 
REMARK       I    between atoms: N_2  and  C_3 
REMARK    2  A    between atoms: C_3  and  C_5 
REMARK    3  A    between atoms: C_5  and  N_6 
REMARK    4  A    between atoms: N_6  and  C_7 
REMARK    5  A    between atoms: C_7  and  C_8 
REMARK    6  A    between atoms: C_7  and  C_14 
REMARK    7  A    between atoms: C_20  and  N_21 
REMARK       I    between atoms: N_21  and  C_22 
REMARK    8  A    between atoms: C_22  and  C_24 
ROOT
ATOM      1  C   UNL d   1      26.206 -16.226  -1.737  0.00  0.00    -0.003 C 
ATOM      2  C   UNL d   1      26.061 -17.263  -0.771  0.00  0.00     0.031 C 
ATOM      3  C   UNL d   1      27.177 -17.898  -0.257  0.00  0.00     0.011 C 
ATOM      4 BR   UNL d   1      27.028 -18.942   1.314  0.00  0.00    -0.051 Br
ATOM      5  C   UNL d   1      28.418 -17.664  -0.832  0.00  0.00     0.021 C 
ATOM      6  C   UNL d   1      28.568 -16.681  -1.831  0.00  0.00     0.031 C 
ATOM      7  C   UNL d   1      27.501 -15.865  -2.246  0.00  0.00     0.043 C 
ENDROOT
BRANCH   1   8
ATOM      8  C   UNL d   1      24.892 -15.571  -2.170  0.00  0.00     0.146 C 
BRANCH   8   9
ATOM      9  N   UNL d   1      23.936 -15.898  -1.096  0.00  0.00    -0.401 N 
ATOM     10  H   UNL d   1      24.304 -16.241  -0.212  0.00  0.00     0.154 HD
BRANCH   9  11
ATOM     11  C   UNL d   1      22.499 -15.979  -1.271  0.00  0.00     0.219 C 
BRANCH  11  12
ATOM     12  C   UNL d   1      21.892 -17.352  -0.821  0.00  0.00     0.248 C 
ATOM     13  N   UNL d   1      20.562 -17.504  -1.263  0.00  0.00    -0.293 N 
ATOM     14  H   UNL d   1      20.123 -16.758  -1.795  0.00  0.00     0.183 HD
ATOM     15  O   UNL d   1      22.476 -18.216  -0.169  0.00  0.00    -0.270 OA
BRANCH  13  16
ATOM     16  N   UNL d   1      19.905 -18.751  -1.127  0.00  0.00    -0.247 NA
ATOM     17  H   UNL d   1      20.569 -19.498  -0.932  0.00  0.00     0.143 HD
ATOM     18  H   UNL d   1      19.454 -18.971  -2.021  0.00  0.00     0.143 HD
ENDBRANCH  13  16
ENDBRANCH  11  12
ENDBRANCH   9  11
ENDBRANCH   8   9
BRANCH   8  19
ATOM     19  C   UNL d   1      25.172 -14.127  -2.747  0.00  0.00    -0.031 C 
ATOM     20  C   UNL d   1      25.877 -13.172  -2.023  0.00  0.00     0.009 C 
ATOM     21  C   UNL d   1      26.300 -11.969  -2.627  0.00  0.00     0.001 C 
ATOM     22  C   UNL d   1      26.138 -11.742  -3.992  0.00  0.00     0.000 C 
ATOM     23  C   UNL d   1      25.327 -12.592  -4.702  0.00  0.00     0.001 C 
ATOM     24  C   UNL d   1      24.784 -13.705  -4.056  0.00  0.00     0.009 C 
ENDBRANCH   8  19
ENDBRANCH   1   8
BRANCH   7  25
ATOM     25  N   UNL d   1      27.811 -14.874  -3.299  0.00  0.00    -0.322 N 
ATOM     26  C   UNL d   1      27.639 -15.009  -4.672  0.00  0.00     0.256 C 
ATOM     27  O   UNL d   1      26.822 -15.772  -5.190  0.00  0.00    -0.267 OA
ATOM     28  H   UNL d   1      28.293 -14.046  -2.984  0.00  0.00     0.169 HD
BRANCH  26  29
ATOM     29  C   UNL d   1      28.378 -14.359  -5.770  0.00  0.00     0.032 C 
ATOM     30  C   UNL d   1      29.618 -14.978  -6.135  0.00  0.00     0.017 C 
ATOM     31  C   UNL d   1      30.488 -14.426  -7.054  0.00  0.00     0.001 C 
ATOM     32  C   UNL d   1      30.129 -13.226  -7.636  0.00  0.00     0.000 C 
ATOM     33  C   UNL d   1      28.986 -12.537  -7.198  0.00  0.00     0.001 C 
ATOM     34  C   UNL d   1      28.094 -13.106  -6.281  0.00  0.00     0.017 C 
ENDBRANCH  26  29
ENDBRANCH   7  25
TORSDOF 8
ENDMDL
MODEL 3
REMARK VINA RESULT:   -27.727      2.300      4.431
REMARK INTER + INTRA:         -33.182
REMARK INTER:                 -30.113
REMARK INTRA:                  -3.068
REMARK CONF_INDEPENDENT:        2.386
REMARK UNBOUND:                -3.068
REMARK  8 active torsions:
REMARK  status: ('A' for Active; 'I' for Inactive)
REMARK    1  A    between atoms: N_1  and  N_2 
REMARK       I    between atoms: N_2  and  C_3 
REMARK    2  A    between atoms: C_3  and  C_5 
REMARK    3  A    between atoms: C_5  and  N_6 
REMARK    4  A    between atoms: N_6  and  C_7 
REMARK    5  A    between atoms: C_7  and  C_8 
REMARK    6  A    between atoms: C_7  and  C_14 
REMARK    7  A    between atoms: C_20  and  N_21 
REMARK       I    between atoms: N_21  and  C_22 
REMARK    8  A    between atoms: C_22  and  C_24 
ROOT
ATOM      1  C   UNL d   1      26.277 -15.043  -0.253  0.00  0.00    -0.003 C 
ATOM      2  C   UNL d   1      26.898 -15.392   0.980  0.00  0.00     0.031 C 
ATOM      3  C   UNL d   1      27.366 -14.404   1.828  0.00  0.00     0.011 C 
ATOM      4 BR   UNL d   1      27.780 -14.824   3.626  0.00  0.00    -0.051 Br
ATOM      5  C   UNL d   1      27.412 -13.091   1.384  0.00  0.00     0.021 C 
ATOM      6  C   UNL d   1      26.853 -12.739   0.138  0.00  0.00     0.031 C 
ATOM      7  C   UNL d   1      26.184 -13.671  -0.674  0.00  0.00     0.043 C 
ENDROOT
BRANCH   1   8
ATOM      8  C   UNL d   1      25.752 -16.233  -1.060  0.00  0.00     0.146 C 
BRANCH   8   9
ATOM      9  N   UNL d   1      24.342 -16.372  -0.651  0.00  0.00    -0.401 N 
ATOM     10  H   UNL d   1      23.917 -15.617  -0.119  0.00  0.00     0.154 HD
BRANCH   9  11
ATOM     11  C   UNL d   1      23.573 -17.598  -0.754  0.00  0.00     0.219 C 
BRANCH  11  12
ATOM     12  C   UNL d   1      22.031 -17.359  -0.891  0.00  0.00     0.248 C 
ATOM     13  N   UNL d   1      21.319 -18.573  -0.963  0.00  0.00    -0.293 N 
ATOM     14  H   UNL d   1      21.826 -19.454  -0.935  0.00  0.00     0.183 HD
ATOM     15  O   UNL d   1      21.475 -16.262  -0.926  0.00  0.00    -0.270 OA
BRANCH  13  16
ATOM     16  N   UNL d   1      19.905 -18.575  -0.895  0.00  0.00    -0.247 NA
ATOM     17  H   UNL d   1      19.506 -19.249  -1.548  0.00  0.00     0.143 HD
ATOM     18  H   UNL d   1      19.573 -17.647  -1.177  0.00  0.00     0.143 HD
ENDBRANCH  13  16
ENDBRANCH  11  12
ENDBRANCH   9  11
ENDBRANCH   8   9
BRANCH   8  19
ATOM     19  C   UNL d   1      26.275 -16.151  -2.549  0.00  0.00    -0.031 C 
ATOM     20  C   UNL d   1      25.415 -15.915  -3.617  0.00  0.00     0.009 C 
ATOM     21  C   UNL d   1      25.918 -15.636  -4.905  0.00  0.00     0.001 C 
ATOM     22  C   UNL d   1      27.281 -15.465  -5.136  0.00  0.00     0.000 C 
ATOM     23  C   UNL d   1      28.159 -15.828  -4.145  0.00  0.00     0.001 C 
ATOM     24  C   UNL d   1      27.653 -16.252  -2.914  0.00  0.00     0.009 C 
ENDBRANCH   8  19
ENDBRANCH   1   8
BRANCH   7  25
ATOM     25  N   UNL d   1      25.645 -13.154  -1.950  0.00  0.00    -0.322 N 
ATOM     26  C   UNL d   1      26.356 -12.650  -3.032  0.00  0.00     0.256 C 
ATOM     27  O   UNL d   1      27.526 -12.944  -3.282  0.00  0.00    -0.267 OA
ATOM     28  H   UNL d   1      24.640 -13.072  -1.992  0.00  0.00     0.169 HD
BRANCH  26  29
ATOM     29  C   UNL d   1      25.934 -11.664  -4.045  0.00  0.00     0.032 C 
ATOM     30  C   UNL d   1      26.206 -12.019  -5.406  0.00  0.00     0.017 C 
ATOM     31  C   UNL d   1      25.990 -11.156  -6.462  0.00  0.00     0.001 C 
ATOM     32  C   UNL d   1      25.488  -9.902  -6.172  0.00  0.00     0.000 C 
ATOM     33  C   UNL d   1      25.339  -9.487  -4.839  0.00  0.00     0.001 C 
ATOM     34  C   UNL d   1      25.540 -10.368  -3.769  0.00  0.00     0.017 C 
ENDBRANCH  26  29
ENDBRANCH   7  25
TORSDOF 8
ENDMDL
