MODEL 1
REMARK VINA RESULT:    -7.614      0.000      0.000
REMARK INTER + INTRA:         -12.113
REMARK INTER:                 -10.298
REMARK INTRA:                  -1.815
REMARK CONF_INDEPENDENT:        2.685
REMARK UNBOUND:                -1.815
REMARK  9 active torsions:
REMARK  status: ('A' for Active; 'I' for Inactive)
REMARK    1  A    between atoms: C_2  and  C_5 
REMARK    2  A    between atoms: C_10  and  O_11 
REMARK    3  A    between atoms: O_11  and  C_12 
REMARK    4  A    between atoms: C_12  and  C_13 
REMARK       I    between atoms: C_13  and  N_15 
REMARK    5  A    between atoms: N_15  and  N_16 
REMARK       I    between atoms: N_16  and  C_17 
REMARK       I    between atoms: C_17  and  N_19 
REMARK    6  A    between atoms: N_19  and  C_20 
REMARK    7  A    between atoms: C_20  and  C_21 
REMARK    8  A    between atoms: C_21  and  C_22 
REMARK    9  A    between atoms: C_22  and  N_23 
ROOT
ATOM      1  C   UNL d   1      25.164 -14.164  -3.980  0.00  0.00     0.260 C 
ATOM      2  O   UNL d   1      23.953 -14.071  -4.040  0.00  0.00    -0.269 OA
ATOM      3  N   UNL d   1      26.042 -13.268  -4.619  0.00  0.00    -0.264 N 
ATOM      4  H   UNL d   1      27.061 -13.342  -4.635  0.00  0.00     0.190 HD
ENDROOT
BRANCH   3   5
ATOM      5  N   UNL d   1      25.471 -12.198  -5.304  0.00  0.00    -0.249 N 
ATOM      6  C   UNL d   1      26.265 -11.215  -5.858  0.00  0.00     0.334 C 
ATOM      7  O   UNL d   1      27.488 -11.231  -5.834  0.00  0.00    -0.246 OA
ATOM      8  N   UNL d   1      25.534 -10.207  -6.447  0.00  0.00    -0.342 N 
ATOM      9  H   UNL d   1      24.527 -10.276  -6.414  0.00  0.00     0.164 HD
ATOM     10  H   UNL d   1      24.457 -12.186  -5.298  0.00  0.00     0.192 HD
BRANCH   8  11
ATOM     11  C   UNL d   1      26.192  -9.083  -7.092  0.00  0.00     0.126 C 
BRANCH  11  12
ATOM     12  C   UNL d   1      25.826  -7.756  -6.444  0.00  0.00     0.040 C 
BRANCH  12  13
ATOM     13  C   UNL d   1      24.836  -6.927  -7.270  0.00  0.00     0.130 C 
BRANCH  13  14
ATOM     14  N   UNL d   1      23.523  -6.799  -6.593  0.00  0.00    -0.352 N 
ATOM     15  C   UNL d   1      22.426  -6.081  -7.063  0.00  0.00     0.108 A 
ATOM     16  C   UNL d   1      21.433  -6.199  -6.139  0.00  0.00     0.106 A 
ATOM     17  N   UNL d   1      21.950  -6.963  -5.123  0.00  0.00    -0.361 N 
ATOM     18  C   UNL d   1      23.210  -7.325  -5.393  0.00  0.00     0.182 A 
ATOM     19  H   UNL d   1      21.446  -7.218  -4.276  0.00  0.00     0.166 HD
ENDBRANCH  13  14
ENDBRANCH  12  13
ENDBRANCH  11  12
ENDBRANCH   8  11
ENDBRANCH   3   5
BRANCH   1  20
ATOM     20  C   UNL d   1      25.920 -15.221  -3.183  0.00  0.00     0.280 C 
BRANCH  20  21
ATOM     21  O   UNL d   1      25.283 -16.371  -2.615  0.00  0.00    -0.341 OA
BRANCH  21  22
ATOM     22  C   UNL d   1      25.619 -17.019  -1.426  0.00  0.00     0.076 A 
ATOM     23  C   UNL d   1      26.973 -16.905  -1.049  0.00  0.00     0.037 A 
ATOM     24  C   UNL d   1      27.485 -17.488   0.134  0.00  0.00     0.003 A 
ATOM     25  C   UNL d   1      26.658 -18.205   0.981  0.00  0.00     0.001 A 
ATOM     26  C   UNL d   1      25.330 -18.360   0.625  0.00  0.00     0.011 A 
ATOM     27  C   UNL d   1      24.786 -17.729  -0.528  0.00  0.00    -0.017 A 
BRANCH  27  28
ATOM     28  C   UNL d   1      23.293 -17.800  -0.733  0.00  0.00    -0.021 C 
ATOM     29  C   UNL d   1      23.106 -18.951  -1.770  0.00  0.00     0.019 C 
ATOM     30  C   UNL d   1      22.820 -16.309  -0.893  0.00  0.00     0.019 C 
ATOM     31  C   UNL d   1      22.430 -18.256   0.450  0.00  0.00     0.019 C 
ENDBRANCH  27  28
ENDBRANCH  21  22
ENDBRANCH  20  21
ENDBRANCH   1  20
TORSDOF 9
ENDMDL
MODEL 2
REMARK VINA RESULT:    -7.279      5.179      7.785
REMARK INTER + INTRA:         -11.937
REMARK INTER:                  -9.964
REMARK INTRA:                  -1.973
REMARK CONF_INDEPENDENT:        2.685
REMARK UNBOUND:                -1.973
REMARK  9 active torsions:
REMARK  status: ('A' for Active; 'I' for Inactive)
REMARK    1  A    between atoms: C_2  and  C_5 
REMARK    2  A    between atoms: C_10  and  O_11 
REMARK    3  A    between atoms: O_11  and  C_12 
REMARK    4  A    between atoms: C_12  and  C_13 
REMARK       I    between atoms: C_13  and  N_15 
REMARK    5  A    between atoms: N_15  and  N_16 
REMARK       I    between atoms: N_16  and  C_17 
REMARK       I    between atoms: C_17  and  N_19 
REMARK    6  A    between atoms: N_19  and  C_20 
REMARK    7  A    between atoms: C_20  and  C_21 
REMARK    8  A    between atoms: C_21  and  C_22 
REMARK    9  A    between atoms: C_22  and  N_23 
ROOT
ATOM      1  C   UNL d   1      26.167 -15.260  -4.624  0.00  0.00     0.260 C 
ATOM      2  O   UNL d   1      25.591 -15.793  -5.553  0.00  0.00    -0.269 OA
ATOM      3  N   UNL d   1      27.537 -14.936  -4.647  0.00  0.00    -0.264 N 
ATOM      4  H   UNL d   1      28.068 -14.536  -3.870  0.00  0.00     0.190 HD
ENDROOT
BRANCH   3   5
ATOM      5  N   UNL d   1      28.234 -15.199  -5.825  0.00  0.00    -0.249 N 
ATOM      6  C   UNL d   1      29.610 -15.107  -5.861  0.00  0.00     0.334 C 
ATOM      7  O   UNL d   1      30.303 -14.845  -4.888  0.00  0.00    -0.246 OA
ATOM      8  N   UNL d   1      30.127 -15.345  -7.116  0.00  0.00    -0.342 N 
ATOM      9  H   UNL d   1      29.476 -15.548  -7.861  0.00  0.00     0.164 HD
ATOM     10  H   UNL d   1      27.646 -15.393  -6.627  0.00  0.00     0.192 HD
BRANCH   8  11
ATOM     11  C   UNL d   1      31.560 -15.300  -7.356  0.00  0.00     0.126 C 
BRANCH  11  12
ATOM     12  C   UNL d   1      32.167 -16.690  -7.466  0.00  0.00     0.040 C 
BRANCH  12  13
ATOM     13  C   UNL d   1      31.148 -17.771  -7.844  0.00  0.00     0.130 C 
BRANCH  13  14
ATOM     14  N   UNL d   1      30.879 -18.694  -6.715  0.00  0.00    -0.352 N 
ATOM     15  C   UNL d   1      31.034 -18.399  -5.362  0.00  0.00     0.108 A 
ATOM     16  C   UNL d   1      30.705 -19.518  -4.659  0.00  0.00     0.106 A 
ATOM     17  N   UNL d   1      30.380 -20.470  -5.592  0.00  0.00    -0.361 N 
ATOM     18  C   UNL d   1      30.485 -19.977  -6.832  0.00  0.00     0.182 A 
ATOM     19  H   UNL d   1      30.100 -21.424  -5.374  0.00  0.00     0.166 HD
ENDBRANCH  13  14
ENDBRANCH  12  13
ENDBRANCH  11  12
ENDBRANCH   8  11
ENDBRANCH   3   5
BRANCH   1  20
ATOM     20  C   UNL d   1      25.508 -14.825  -3.321  0.00  0.00     0.280 C 
BRANCH  20  21
ATOM     21  O   UNL d   1      24.794 -15.729  -2.470  0.00  0.00    -0.341 OA
BRANCH  21  22
ATOM     22  C   UNL d   1      25.323 -16.524  -1.452  0.00  0.00     0.076 A 
ATOM     23  C   UNL d   1      26.678 -16.279  -1.150  0.00  0.00     0.037 A 
ATOM     24  C   UNL d   1      27.371 -16.984  -0.138  0.00  0.00     0.003 A 
ATOM     25  C   UNL d   1      26.730 -17.956   0.609  0.00  0.00     0.001 A 
ATOM     26  C   UNL d   1      25.408 -18.240   0.319  0.00  0.00     0.011 A 
ATOM     27  C   UNL d   1      24.679 -17.500  -0.654  0.00  0.00    -0.017 A 
BRANCH  27  28
ATOM     28  C   UNL d   1      23.196 -17.754  -0.769  0.00  0.00    -0.021 C 
ATOM     29  C   UNL d   1      23.088 -18.895  -1.827  0.00  0.00     0.019 C 
ATOM     30  C   UNL d   1      22.532 -16.331  -0.854  0.00  0.00     0.019 C 
ATOM     31  C   UNL d   1      22.475 -18.341   0.450  0.00  0.00     0.019 C 
ENDBRANCH  27  28
ENDBRANCH  21  22
ENDBRANCH  20  21
ENDBRANCH   1  20
TORSDOF 9
ENDMDL
MODEL 3
REMARK VINA RESULT:    -7.005      7.261     11.073
REMARK INTER + INTRA:         -11.590
REMARK INTER:                  -9.690
REMARK INTRA:                  -1.900
REMARK CONF_INDEPENDENT:        2.685
REMARK UNBOUND:                -1.900
REMARK  9 active torsions:
REMARK  status: ('A' for Active; 'I' for Inactive)
REMARK    1  A    between atoms: C_2  and  C_5 
REMARK    2  A    between atoms: C_10  and  O_11 
REMARK    3  A    between atoms: O_11  and  C_12 
REMARK    4  A    between atoms: C_12  and  C_13 
REMARK       I    between atoms: C_13  and  N_15 
REMARK    5  A    between atoms: N_15  and  N_16 
REMARK       I    between atoms: N_16  and  C_17 
REMARK       I    between atoms: C_17  and  N_19 
REMARK    6  A    between atoms: N_19  and  C_20 
REMARK    7  A    between atoms: C_20  and  C_21 
REMARK    8  A    between atoms: C_21  and  C_22 
REMARK    9  A    between atoms: C_22  and  N_23 
ROOT
ATOM      1  C   UNL d   1      27.983 -14.869   1.125  0.00  0.00     0.260 C 
ATOM      2  O   UNL d   1      27.193 -14.040   0.716  0.00  0.00    -0.269 OA
ATOM      3  N   UNL d   1      28.554 -14.825   2.412  0.00  0.00    -0.264 N 
ATOM      4  H   UNL d   1      29.258 -15.471   2.773  0.00  0.00     0.190 HD
ENDROOT
BRANCH   3   5
ATOM      5  N   UNL d   1      28.135 -13.801   3.259  0.00  0.00    -0.249 N 
ATOM      6  C   UNL d   1      28.296 -13.911   4.625  0.00  0.00     0.334 C 
ATOM      7  O   UNL d   1      28.841 -14.857   5.175  0.00  0.00    -0.246 OA
ATOM      8  N   UNL d   1      27.776 -12.834   5.310  0.00  0.00    -0.342 N 
ATOM      9  H   UNL d   1      27.339 -12.101   4.772  0.00  0.00     0.164 HD
ATOM     10  H   UNL d   1      27.666 -13.034   2.792  0.00  0.00     0.192 HD
BRANCH   8  11
ATOM     11  C   UNL d   1      27.854 -12.763   6.760  0.00  0.00     0.126 C 
BRANCH  11  12
ATOM     12  C   UNL d   1      29.271 -12.502   7.247  0.00  0.00     0.040 C 
BRANCH  12  13
ATOM     13  C   UNL d   1      29.787 -13.568   8.220  0.00  0.00     0.130 C 
BRANCH  13  14
ATOM     14  N   UNL d   1      28.949 -13.653   9.440  0.00  0.00    -0.352 N 
ATOM     15  C   UNL d   1      28.495 -12.576  10.199  0.00  0.00     0.108 A 
ATOM     16  C   UNL d   1      27.780 -13.082  11.241  0.00  0.00     0.106 A 
ATOM     17  N   UNL d   1      27.830 -14.447  11.109  0.00  0.00    -0.361 N 
ATOM     18  C   UNL d   1      28.535 -14.794  10.025  0.00  0.00     0.182 A 
ATOM     19  H   UNL d   1      27.395 -15.108  11.749  0.00  0.00     0.166 HD
ENDBRANCH  13  14
ENDBRANCH  12  13
ENDBRANCH  11  12
ENDBRANCH   8  11
ENDBRANCH   3   5
BRANCH   1  20
ATOM     20  C   UNL d   1      28.447 -16.093   0.345  0.00  0.00     0.280 C 
BRANCH  20  21
ATOM     21  O   UNL d   1      27.706 -16.647  -0.748  0.00  0.00    -0.341 OA
BRANCH  21  22
ATOM     22  C   UNL d   1      26.323 -16.807  -0.833  0.00  0.00     0.076 A 
ATOM     23  C   UNL d   1      25.775 -17.739   0.072  0.00  0.00     0.037 A 
ATOM     24  C   UNL d   1      24.390 -18.017   0.133  0.00  0.00     0.003 A 
ATOM     25  C   UNL d   1      23.503 -17.368  -0.709  0.00  0.00     0.001 A 
ATOM     26  C   UNL d   1      24.011 -16.468  -1.628  0.00  0.00     0.011 A 
ATOM     27  C   UNL d   1      25.393 -16.133  -1.662  0.00  0.00    -0.017 A 
BRANCH  27  28
ATOM     28  C   UNL d   1      25.825 -15.007  -2.569  0.00  0.00    -0.021 C 
ATOM     29  C   UNL d   1      24.486 -14.449  -3.145  0.00  0.00     0.019 C 
ATOM     30  C   UNL d   1      27.036 -15.575  -3.396  0.00  0.00     0.019 C 
ATOM     31  C   UNL d   1      26.465 -13.773  -1.922  0.00  0.00     0.019 C 
ENDBRANCH  27  28
ENDBRANCH  21  22
ENDBRANCH  20  21
ENDBRANCH   1  20
TORSDOF 9
ENDMDL
MODEL 4
REMARK VINA RESULT:    -6.995      1.627      2.098
REMARK INTER + INTRA:         -11.742
REMARK INTER:                  -9.680
REMARK INTRA:                  -2.062
REMARK CONF_INDEPENDENT:        2.685
REMARK UNBOUND:                -2.062
REMARK  9 active torsions:
REMARK  status: ('A' for Active; 'I' for Inactive)
REMARK    1  A    between atoms: C_2  and  C_5 
REMARK    2  A    between atoms: C_10  and  O_11 
REMARK    3  A    between atoms: O_11  and  C_12 
REMARK    4  A    between atoms: C_12  and  C_13 
REMARK       I    between atoms: C_13  and  N_15 
REMARK    5  A    between atoms: N_15  and  N_16 
REMARK       I    between atoms: N_16  and  C_17 
REMARK       I    between atoms: C_17  and  N_19 
REMARK    6  A    between atoms: N_19  and  C_20 
REMARK    7  A    between atoms: C_20  and  C_21 
REMARK    8  A    between atoms: C_21  and  C_22 
REMARK    9  A    between atoms: C_22  and  N_23 
ROOT
ATOM      1  C   UNL d   1      25.104 -14.090  -4.025  0.00  0.00     0.260 C 
ATOM      2  O   UNL d   1      23.907 -14.025  -4.232  0.00  0.00    -0.269 OA
ATOM      3  N   UNL d   1      26.034 -13.188  -4.576  0.00  0.00    -0.264 N 
ATOM      4  H   UNL d   1      27.050 -13.239  -4.467  0.00  0.00     0.190 HD
ENDROOT
BRANCH   3   5
ATOM      5  N   UNL d   1      25.529 -12.145  -5.349  0.00  0.00    -0.249 N 
ATOM      6  C   UNL d   1      26.381 -11.259  -5.975  0.00  0.00     0.334 C 
ATOM      7  O   UNL d   1      27.600 -11.345  -5.943  0.00  0.00    -0.246 OA
ATOM      8  N   UNL d   1      25.711 -10.261  -6.649  0.00  0.00    -0.342 N 
ATOM      9  H   UNL d   1      24.701 -10.268  -6.617  0.00  0.00     0.164 HD
ATOM     10  H   UNL d   1      24.518 -12.073  -5.350  0.00  0.00     0.192 HD
BRANCH   8  11
ATOM     11  C   UNL d   1      26.436  -9.234  -7.379  0.00  0.00     0.126 C 
BRANCH  11  12
ATOM     12  C   UNL d   1      25.819  -7.856  -7.194  0.00  0.00     0.040 C 
BRANCH  12  13
ATOM     13  C   UNL d   1      26.415  -7.074  -6.018  0.00  0.00     0.130 C 
BRANCH  13  14
ATOM     14  N   UNL d   1      26.151  -7.742  -4.721  0.00  0.00    -0.352 N 
ATOM     15  C   UNL d   1      27.100  -8.036  -3.744  0.00  0.00     0.108 A 
ATOM     16  C   UNL d   1      26.456  -8.666  -2.724  0.00  0.00     0.106 A 
ATOM     17  N   UNL d   1      25.142  -8.762  -3.107  0.00  0.00    -0.361 N 
ATOM     18  C   UNL d   1      24.956  -8.208  -4.311  0.00  0.00     0.182 A 
ATOM     19  H   UNL d   1      24.407  -9.200  -2.555  0.00  0.00     0.166 HD
ENDBRANCH  13  14
ENDBRANCH  12  13
ENDBRANCH  11  12
ENDBRANCH   8  11
ENDBRANCH   3   5
BRANCH   1  20
ATOM     20  C   UNL d   1      25.780 -15.113  -3.120  0.00  0.00     0.280 C 
BRANCH  20  21
ATOM     21  O   UNL d   1      25.061 -16.158  -2.454  0.00  0.00    -0.341 OA
BRANCH  21  22
ATOM     22  C   UNL d   1      25.470 -16.880  -1.333  0.00  0.00     0.076 A 
ATOM     23  C   UNL d   1      26.833 -16.739  -0.999  0.00  0.00     0.037 A 
ATOM     24  C   UNL d   1      27.415 -17.388   0.115  0.00  0.00     0.003 A 
ATOM     25  C   UNL d   1      26.651 -18.201   0.934  0.00  0.00     0.001 A 
ATOM     26  C   UNL d   1      25.317 -18.382   0.619  0.00  0.00     0.011 A 
ATOM     27  C   UNL d   1      24.703 -17.689  -0.461  0.00  0.00    -0.017 A 
BRANCH  27  28
ATOM     28  C   UNL d   1      23.206 -17.806  -0.614  0.00  0.00    -0.021 C 
ATOM     29  C   UNL d   1      23.019 -18.945  -1.664  0.00  0.00     0.019 C 
ATOM     30  C   UNL d   1      22.680 -16.329  -0.730  0.00  0.00     0.019 C 
ATOM     31  C   UNL d   1      22.401 -18.309   0.590  0.00  0.00     0.019 C 
ENDBRANCH  27  28
ENDBRANCH  21  22
ENDBRANCH  20  21
ENDBRANCH   1  20
TORSDOF 9
ENDMDL
MODEL 5
REMARK VINA RESULT:    -6.792      8.243     11.475
REMARK INTER + INTRA:         -11.300
REMARK INTER:                  -9.477
REMARK INTRA:                  -1.823
REMARK CONF_INDEPENDENT:        2.685
REMARK UNBOUND:                -1.823
REMARK  9 active torsions:
REMARK  status: ('A' for Active; 'I' for Inactive)
REMARK    1  A    between atoms: C_2  and  C_5 
REMARK    2  A    between atoms: C_10  and  O_11 
REMARK    3  A    between atoms: O_11  and  C_12 
REMARK    4  A    between atoms: C_12  and  C_13 
REMARK       I    between atoms: C_13  and  N_15 
REMARK    5  A    between atoms: N_15  and  N_16 
REMARK       I    between atoms: N_16  and  C_17 
REMARK       I    between atoms: C_17  and  N_19 
REMARK    6  A    between atoms: N_19  and  C_20 
REMARK    7  A    between atoms: C_20  and  C_21 
REMARK    8  A    between atoms: C_21  and  C_22 
REMARK    9  A    between atoms: C_22  and  N_23 
ROOT
ATOM      1  C   UNL d   1      28.118 -14.005   5.286  0.00  0.00     0.260 C 
ATOM      2  O   UNL d   1      28.648 -15.019   5.698  0.00  0.00    -0.269 OA
ATOM      3  N   UNL d   1      27.840 -13.775   3.925  0.00  0.00    -0.264 N 
ATOM      4  H   UNL d   1      27.444 -12.917   3.534  0.00  0.00     0.190 HD
ENDROOT
BRANCH   3   5
ATOM      5  N   UNL d   1      28.150 -14.798   3.031  0.00  0.00    -0.249 N 
ATOM      6  C   UNL d   1      27.674 -14.765   1.736  0.00  0.00     0.334 C 
ATOM      7  O   UNL d   1      27.010 -13.847   1.275  0.00  0.00    -0.246 OA
ATOM      8  N   UNL d   1      28.029 -15.881   1.010  0.00  0.00    -0.342 N 
ATOM      9  H   UNL d   1      28.575 -16.591   1.476  0.00  0.00     0.164 HD
ATOM     10  H   UNL d   1      28.682 -15.561   3.432  0.00  0.00     0.192 HD
BRANCH   8  11
ATOM     11  C   UNL d   1      27.627 -16.029  -0.380  0.00  0.00     0.126 C 
BRANCH  11  12
ATOM     12  C   UNL d   1      26.734 -17.241  -0.592  0.00  0.00     0.040 C 
BRANCH  12  13
ATOM     13  C   UNL d   1      25.508 -16.949  -1.465  0.00  0.00     0.130 C 
BRANCH  13  14
ATOM     14  N   UNL d   1      24.273 -17.545  -0.898  0.00  0.00    -0.352 N 
ATOM     15  C   UNL d   1      23.016 -16.946  -0.866  0.00  0.00     0.108 A 
ATOM     16  C   UNL d   1      22.166 -17.810  -0.246  0.00  0.00     0.106 A 
ATOM     17  N   UNL d   1      22.923 -18.900   0.103  0.00  0.00    -0.361 N 
ATOM     18  C   UNL d   1      24.193 -18.743  -0.287  0.00  0.00     0.182 A 
ATOM     19  H   UNL d   1      22.569 -19.718   0.596  0.00  0.00     0.166 HD
ENDBRANCH  13  14
ENDBRANCH  12  13
ENDBRANCH  11  12
ENDBRANCH   8  11
ENDBRANCH   3   5
BRANCH   1  20
ATOM     20  C   UNL d   1      27.635 -12.854   6.161  0.00  0.00     0.280 C 
BRANCH  20  21
ATOM     21  O   UNL d   1      27.818 -12.827   7.581  0.00  0.00    -0.341 OA
BRANCH  21  22
ATOM     22  C   UNL d   1      28.689 -12.011   8.303  0.00  0.00     0.076 A 
ATOM     23  C   UNL d   1      28.945 -10.753   7.722  0.00  0.00     0.037 A 
ATOM     24  C   UNL d   1      29.794  -9.794   8.324  0.00  0.00     0.003 A 
ATOM     25  C   UNL d   1      30.414 -10.063   9.532  0.00  0.00     0.001 A 
ATOM     26  C   UNL d   1      30.206 -11.299  10.115  0.00  0.00     0.011 A 
ATOM     27  C   UNL d   1      29.309 -12.250   9.554  0.00  0.00    -0.017 A 
BRANCH  27  28
ATOM     28  C   UNL d   1      29.004 -13.492  10.356  0.00  0.00    -0.021 C 
ATOM     29  C   UNL d   1      27.537 -13.277  10.843  0.00  0.00     0.019 C 
ATOM     30  C   UNL d   1      30.268 -13.727  11.261  0.00  0.00     0.019 C 
ATOM     31  C   UNL d   1      28.928 -14.827   9.605  0.00  0.00     0.019 C 
ENDBRANCH  27  28
ENDBRANCH  21  22
ENDBRANCH  20  21
ENDBRANCH   1  20
TORSDOF 9
ENDMDL
MODEL 6
REMARK VINA RESULT:    -6.757      6.311     10.199
REMARK INTER + INTRA:         -11.567
REMARK INTER:                  -9.442
REMARK INTRA:                  -2.125
REMARK CONF_INDEPENDENT:        2.685
REMARK UNBOUND:                -2.125
REMARK  9 active torsions:
REMARK  status: ('A' for Active; 'I' for Inactive)
REMARK    1  A    between atoms: C_2  and  C_5 
REMARK    2  A    between atoms: C_10  and  O_11 
REMARK    3  A    between atoms: O_11  and  C_12 
REMARK    4  A    between atoms: C_12  and  C_13 
REMARK       I    between atoms: C_13  and  N_15 
REMARK    5  A    between atoms: N_15  and  N_16 
REMARK       I    between atoms: N_16  and  C_17 
REMARK       I    between atoms: C_17  and  N_19 
REMARK    6  A    between atoms: N_19  and  C_20 
REMARK    7  A    between atoms: C_20  and  C_21 
REMARK    8  A    between atoms: C_21  and  C_22 
REMARK    9  A    between atoms: C_22  and  N_23 
ROOT
ATOM      1  C   UNL d   1      29.665 -15.967  -0.870  0.00  0.00     0.260 C 
ATOM      2  O   UNL d   1      30.585 -16.614  -0.409  0.00  0.00    -0.269 OA
ATOM      3  N   UNL d   1      28.741 -15.262  -0.075  0.00  0.00    -0.264 N 
ATOM      4  H   UNL d   1      27.926 -14.750  -0.420  0.00  0.00     0.190 HD
ENDROOT
BRANCH   3   5
ATOM      5  N   UNL d   1      28.945 -15.278   1.304  0.00  0.00    -0.249 N 
ATOM      6  C   UNL d   1      28.207 -14.457   2.131  0.00  0.00     0.334 C 
ATOM      7  O   UNL d   1      27.316 -13.715   1.741  0.00  0.00    -0.246 OA
ATOM      8  N   UNL d   1      28.578 -14.562   3.454  0.00  0.00    -0.342 N 
ATOM      9  H   UNL d   1      29.328 -15.198   3.683  0.00  0.00     0.164 HD
ATOM     10  H   UNL d   1      29.700 -15.880   1.610  0.00  0.00     0.192 HD
BRANCH   8  11
ATOM     11  C   UNL d   1      27.911 -13.780   4.483  0.00  0.00     0.126 C 
BRANCH  11  12
ATOM     12  C   UNL d   1      28.154 -14.340   5.876  0.00  0.00     0.040 C 
BRANCH  12  13
ATOM     13  C   UNL d   1      29.391 -13.751   6.563  0.00  0.00     0.130 C 
BRANCH  13  14
ATOM     14  N   UNL d   1      29.081 -13.249   7.923  0.00  0.00    -0.352 N 
ATOM     15  C   UNL d   1      28.909 -14.030   9.064  0.00  0.00     0.108 A 
ATOM     16  C   UNL d   1      28.617 -13.189  10.095  0.00  0.00     0.106 A 
ATOM     17  N   UNL d   1      28.596 -11.926   9.560  0.00  0.00    -0.361 N 
ATOM     18  C   UNL d   1      28.874 -11.959   8.251  0.00  0.00     0.182 A 
ATOM     19  H   UNL d   1      28.393 -11.077  10.084  0.00  0.00     0.166 HD
ENDBRANCH  13  14
ENDBRANCH  12  13
ENDBRANCH  11  12
ENDBRANCH   8  11
ENDBRANCH   3   5
BRANCH   1  20
ATOM     20  C   UNL d   1      29.387 -15.779  -2.356  0.00  0.00     0.280 C 
BRANCH  20  21
ATOM     21  O   UNL d   1      28.130 -16.105  -2.960  0.00  0.00    -0.341 OA
BRANCH  21  22
ATOM     22  C   UNL d   1      26.889 -16.194  -2.328  0.00  0.00     0.076 A 
ATOM     23  C   UNL d   1      26.839 -17.089  -1.240  0.00  0.00     0.037 A 
ATOM     24  C   UNL d   1      25.665 -17.294  -0.477  0.00  0.00     0.003 A 
ATOM     25  C   UNL d   1      24.502 -16.607  -0.776  0.00  0.00     0.001 A 
ATOM     26  C   UNL d   1      24.510 -15.742  -1.855  0.00  0.00     0.011 A 
ATOM     27  C   UNL d   1      25.696 -15.479  -2.594  0.00  0.00    -0.017 A 
BRANCH  27  28
ATOM     28  C   UNL d   1      25.653 -14.384  -3.632  0.00  0.00    -0.021 C 
ATOM     29  C   UNL d   1      25.947 -15.122  -4.975  0.00  0.00     0.019 C 
ATOM     30  C   UNL d   1      26.476 -13.193  -3.018  0.00  0.00     0.019 C 
ATOM     31  C   UNL d   1      24.305 -13.703  -3.897  0.00  0.00     0.019 C 
ENDBRANCH  27  28
ENDBRANCH  21  22
ENDBRANCH  20  21
ENDBRANCH   1  20
TORSDOF 9
ENDMDL
MODEL 7
REMARK VINA RESULT:    -6.690      4.939      8.148
REMARK INTER + INTRA:         -11.376
REMARK INTER:                  -9.374
REMARK INTRA:                  -2.001
REMARK CONF_INDEPENDENT:        2.685
REMARK UNBOUND:                -2.001
REMARK  9 active torsions:
REMARK  status: ('A' for Active; 'I' for Inactive)
REMARK    1  A    between atoms: C_2  and  C_5 
REMARK    2  A    between atoms: C_10  and  O_11 
REMARK    3  A    between atoms: O_11  and  C_12 
REMARK    4  A    between atoms: C_12  and  C_13 
REMARK       I    between atoms: C_13  and  N_15 
REMARK    5  A    between atoms: N_15  and  N_16 
REMARK       I    between atoms: N_16  and  C_17 
REMARK       I    between atoms: C_17  and  N_19 
REMARK    6  A    between atoms: N_19  and  C_20 
REMARK    7  A    between atoms: C_20  and  C_21 
REMARK    8  A    between atoms: C_21  and  C_22 
REMARK    9  A    between atoms: C_22  and  N_23 
ROOT
ATOM      1  C   UNL d   1      25.751 -14.868  -4.212  0.00  0.00     0.260 C 
ATOM      2  O   UNL d   1      25.156 -15.555  -5.020  0.00  0.00    -0.269 OA
ATOM      3  N   UNL d   1      27.095 -14.476  -4.370  0.00  0.00    -0.264 N 
ATOM      4  H   UNL d   1      27.644 -13.945  -3.691  0.00  0.00     0.190 HD
ENDROOT
BRANCH   3   5
ATOM      5  N   UNL d   1      27.736 -14.862  -5.545  0.00  0.00    -0.249 N 
ATOM      6  C   UNL d   1      29.099 -14.703  -5.685  0.00  0.00     0.334 C 
ATOM      7  O   UNL d   1      29.831 -14.273  -4.804  0.00  0.00    -0.246 OA
ATOM      8  N   UNL d   1      29.555 -15.084  -6.928  0.00  0.00    -0.342 N 
ATOM      9  H   UNL d   1      28.877 -15.423  -7.594  0.00  0.00     0.164 HD
ATOM     10  H   UNL d   1      27.115 -15.196  -6.273  0.00  0.00     0.192 HD
BRANCH   8  11
ATOM     11  C   UNL d   1      30.967 -14.997  -7.267  0.00  0.00     0.126 C 
BRANCH  11  12
ATOM     12  C   UNL d   1      31.684 -16.325  -7.082  0.00  0.00     0.040 C 
BRANCH  12  13
ATOM     13  C   UNL d   1      30.835 -17.382  -6.366  0.00  0.00     0.130 C 
BRANCH  13  14
ATOM     14  N   UNL d   1      30.912 -18.701  -7.040  0.00  0.00    -0.352 N 
ATOM     15  C   UNL d   1      31.263 -18.921  -8.371  0.00  0.00     0.108 A 
ATOM     16  C   UNL d   1      31.191 -20.262  -8.596  0.00  0.00     0.106 A 
ATOM     17  N   UNL d   1      30.780 -20.824  -7.414  0.00  0.00    -0.361 N 
ATOM     18  C   UNL d   1      30.610 -19.886  -6.475  0.00  0.00     0.182 A 
ATOM     19  H   UNL d   1      30.621 -21.819  -7.269  0.00  0.00     0.166 HD
ENDBRANCH  13  14
ENDBRANCH  12  13
ENDBRANCH  11  12
ENDBRANCH   8  11
ENDBRANCH   3   5
BRANCH   1  20
ATOM     20  C   UNL d   1      25.143 -14.293  -2.938  0.00  0.00     0.280 C 
BRANCH  20  21
ATOM     21  O   UNL d   1      25.384 -14.849  -1.641  0.00  0.00    -0.341 OA
BRANCH  21  22
ATOM     22  C   UNL d   1      24.865 -16.036  -1.124  0.00  0.00     0.076 A 
ATOM     23  C   UNL d   1      23.471 -16.190  -1.270  0.00  0.00     0.037 A 
ATOM     24  C   UNL d   1      22.780 -17.337  -0.816  0.00  0.00     0.003 A 
ATOM     25  C   UNL d   1      23.462 -18.373  -0.201  0.00  0.00     0.001 A 
ATOM     26  C   UNL d   1      24.826 -18.242  -0.017  0.00  0.00     0.011 A 
ATOM     27  C   UNL d   1      25.545 -17.122  -0.522  0.00  0.00    -0.017 A 
BRANCH  27  28
ATOM     28  C   UNL d   1      27.052 -17.155  -0.438  0.00  0.00    -0.021 C 
ATOM     29  C   UNL d   1      27.520 -16.653  -1.839  0.00  0.00     0.019 C 
ATOM     30  C   UNL d   1      27.405 -18.534   0.230  0.00  0.00     0.019 C 
ATOM     31  C   UNL d   1      27.735 -16.179   0.527  0.00  0.00     0.019 C 
ENDBRANCH  27  28
ENDBRANCH  21  22
ENDBRANCH  20  21
ENDBRANCH   1  20
TORSDOF 9
ENDMDL
MODEL 8
REMARK VINA RESULT:    -6.662      4.804      6.619
REMARK INTER + INTRA:         -11.600
REMARK INTER:                  -9.346
REMARK INTRA:                  -2.253
REMARK CONF_INDEPENDENT:        2.685
REMARK UNBOUND:                -2.253
REMARK  9 active torsions:
REMARK  status: ('A' for Active; 'I' for Inactive)
REMARK    1  A    between atoms: C_2  and  C_5 
REMARK    2  A    between atoms: C_10  and  O_11 
REMARK    3  A    between atoms: O_11  and  C_12 
REMARK    4  A    between atoms: C_12  and  C_13 
REMARK       I    between atoms: C_13  and  N_15 
REMARK    5  A    between atoms: N_15  and  N_16 
REMARK       I    between atoms: N_16  and  C_17 
REMARK       I    between atoms: C_17  and  N_19 
REMARK    6  A    between atoms: N_19  and  C_20 
REMARK    7  A    between atoms: C_20  and  C_21 
REMARK    8  A    between atoms: C_21  and  C_22 
REMARK    9  A    between atoms: C_22  and  N_23 
ROOT
ATOM      1  C   UNL d   1      26.080 -15.141  -4.629  0.00  0.00     0.260 C 
ATOM      2  O   UNL d   1      25.696 -15.931  -5.470  0.00  0.00    -0.269 OA
ATOM      3  N   UNL d   1      27.225 -14.336  -4.790  0.00  0.00    -0.264 N 
ATOM      4  H   UNL d   1      27.608 -13.699  -4.088  0.00  0.00     0.190 HD
ENDROOT
BRANCH   3   5
ATOM      5  N   UNL d   1      27.902 -14.429  -6.004  0.00  0.00    -0.249 N 
ATOM      6  C   UNL d   1      29.025 -13.663  -6.240  0.00  0.00     0.334 C 
ATOM      7  O   UNL d   1      29.523 -12.908  -5.417  0.00  0.00    -0.246 OA
ATOM      8  N   UNL d   1      29.533 -13.840  -7.509  0.00  0.00    -0.342 N 
ATOM      9  H   UNL d   1      29.052 -14.481  -8.123  0.00  0.00     0.164 HD
ATOM     10  H   UNL d   1      27.466 -15.041  -6.683  0.00  0.00     0.192 HD
BRANCH   8  11
ATOM     11  C   UNL d   1      30.720 -13.123  -7.946  0.00  0.00     0.126 C 
BRANCH  11  12
ATOM     12  C   UNL d   1      31.920 -14.044  -8.103  0.00  0.00     0.040 C 
BRANCH  12  13
ATOM     13  C   UNL d   1      32.375 -14.682  -6.786  0.00  0.00     0.130 C 
BRANCH  13  14
ATOM     14  N   UNL d   1      31.521 -15.834  -6.408  0.00  0.00    -0.352 N 
ATOM     15  C   UNL d   1      31.030 -16.104  -5.132  0.00  0.00     0.108 A 
ATOM     16  C   UNL d   1      30.312 -17.259  -5.206  0.00  0.00     0.106 A 
ATOM     17  N   UNL d   1      30.398 -17.676  -6.510  0.00  0.00    -0.361 N 
ATOM     18  C   UNL d   1      31.126 -16.820  -7.237  0.00  0.00     0.182 A 
ATOM     19  H   UNL d   1      29.969 -18.523  -6.878  0.00  0.00     0.166 HD
ENDBRANCH  13  14
ENDBRANCH  12  13
ENDBRANCH  11  12
ENDBRANCH   8  11
ENDBRANCH   3   5
BRANCH   1  20
ATOM     20  C   UNL d   1      25.379 -14.864  -3.305  0.00  0.00     0.280 C 
BRANCH  20  21
ATOM     21  O   UNL d   1      24.737 -15.887  -2.535  0.00  0.00    -0.341 OA
BRANCH  21  22
ATOM     22  C   UNL d   1      25.289 -16.625  -1.487  0.00  0.00     0.076 A 
ATOM     23  C   UNL d   1      26.660 -16.393  -1.254  0.00  0.00     0.037 A 
ATOM     24  C   UNL d   1      27.377 -17.045  -0.224  0.00  0.00     0.003 A 
ATOM     25  C   UNL d   1      26.745 -17.950   0.610  0.00  0.00     0.001 A 
ATOM     26  C   UNL d   1      25.407 -18.221   0.391  0.00  0.00     0.011 A 
ATOM     27  C   UNL d   1      24.657 -17.530  -0.601  0.00  0.00    -0.017 A 
BRANCH  27  28
ATOM     28  C   UNL d   1      23.165 -17.757  -0.643  0.00  0.00    -0.021 C 
ATOM     29  C   UNL d   1      22.981 -18.875  -1.716  0.00  0.00     0.019 C 
ATOM     30  C   UNL d   1      22.524 -16.321  -0.666  0.00  0.00     0.019 C 
ATOM     31  C   UNL d   1      22.498 -18.356   0.601  0.00  0.00     0.019 C 
ENDBRANCH  27  28
ENDBRANCH  21  22
ENDBRANCH  20  21
ENDBRANCH   1  20
TORSDOF 9
ENDMDL
MODEL 9
REMARK VINA RESULT:    -6.532      2.013      3.006
REMARK INTER + INTRA:         -11.497
REMARK INTER:                  -9.217
REMARK INTRA:                  -2.280
REMARK CONF_INDEPENDENT:        2.685
REMARK UNBOUND:                -2.280
REMARK  9 active torsions:
REMARK  status: ('A' for Active; 'I' for Inactive)
REMARK    1  A    between atoms: C_2  and  C_5 
REMARK    2  A    between atoms: C_10  and  O_11 
REMARK    3  A    between atoms: O_11  and  C_12 
REMARK    4  A    between atoms: C_12  and  C_13 
REMARK       I    between atoms: C_13  and  N_15 
REMARK    5  A    between atoms: N_15  and  N_16 
REMARK       I    between atoms: N_16  and  C_17 
REMARK       I    between atoms: C_17  and  N_19 
REMARK    6  A    between atoms: N_19  and  C_20 
REMARK    7  A    between atoms: C_20  and  C_21 
REMARK    8  A    between atoms: C_21  and  C_22 
REMARK    9  A    between atoms: C_22  and  N_23 
ROOT
ATOM      1  C   UNL d   1      25.389 -14.094  -3.894  0.00  0.00     0.260 C 
ATOM      2  O   UNL d   1      24.405 -14.122  -4.607  0.00  0.00    -0.269 OA
ATOM      3  N   UNL d   1      25.988 -12.899  -3.449  0.00  0.00    -0.264 N 
ATOM      4  H   UNL d   1      26.843 -12.832  -2.893  0.00  0.00     0.190 HD
ENDROOT
BRANCH   3   5
ATOM      5  N   UNL d   1      25.372 -11.704  -3.815  0.00  0.00    -0.249 N 
ATOM      6  C   UNL d   1      25.928 -10.492  -3.463  0.00  0.00     0.334 C 
ATOM      7  O   UNL d   1      26.990 -10.374  -2.868  0.00  0.00    -0.246 OA
ATOM      8  N   UNL d   1      25.158  -9.418  -3.856  0.00  0.00    -0.342 N 
ATOM      9  H   UNL d   1      24.292  -9.612  -4.338  0.00  0.00     0.164 HD
ATOM     10  H   UNL d   1      24.482 -11.817  -4.288  0.00  0.00     0.192 HD
BRANCH   8  11
ATOM     11  C   UNL d   1      25.580  -8.054  -3.581  0.00  0.00     0.126 C 
BRANCH  11  12
ATOM     12  C   UNL d   1      26.349  -7.447  -4.743  0.00  0.00     0.040 C 
BRANCH  12  13
ATOM     13  C   UNL d   1      25.982  -8.054  -6.102  0.00  0.00     0.130 C 
BRANCH  13  14
ATOM     14  N   UNL d   1      26.685  -9.337  -6.341  0.00  0.00    -0.352 N 
ATOM     15  C   UNL d   1      26.109 -10.507  -6.832  0.00  0.00     0.108 A 
ATOM     16  C   UNL d   1      27.086 -11.454  -6.882  0.00  0.00     0.106 A 
ATOM     17  N   UNL d   1      28.223 -10.852  -6.404  0.00  0.00    -0.361 N 
ATOM     18  C   UNL d   1      27.984  -9.577  -6.076  0.00  0.00     0.182 A 
ATOM     19  H   UNL d   1      29.126 -11.312  -6.307  0.00  0.00     0.166 HD
ENDBRANCH  13  14
ENDBRANCH  12  13
ENDBRANCH  11  12
ENDBRANCH   8  11
ENDBRANCH   3   5
BRANCH   1  20
ATOM     20  C   UNL d   1      26.101 -15.321  -3.337  0.00  0.00     0.280 C 
BRANCH  20  21
ATOM     21  O   UNL d   1      25.409 -16.397  -2.693  0.00  0.00    -0.341 OA
BRANCH  21  22
ATOM     22  C   UNL d   1      25.734 -17.000  -1.478  0.00  0.00     0.076 A 
ATOM     23  C   UNL d   1      27.078 -16.850  -1.080  0.00  0.00     0.037 A 
ATOM     24  C   UNL d   1      27.577 -17.386   0.130  0.00  0.00     0.003 A 
ATOM     25  C   UNL d   1      26.746 -18.089   0.985  0.00  0.00     0.001 A 
ATOM     26  C   UNL d   1      25.429 -18.277   0.611  0.00  0.00     0.011 A 
ATOM     27  C   UNL d   1      24.896 -17.694  -0.572  0.00  0.00    -0.017 A 
BRANCH  27  28
ATOM     28  C   UNL d   1      23.408 -17.797  -0.802  0.00  0.00    -0.021 C 
ATOM     29  C   UNL d   1      23.278 -18.767  -2.017  0.00  0.00     0.019 C 
ATOM     30  C   UNL d   1      22.868 -16.323  -0.718  0.00  0.00     0.019 C 
ATOM     31  C   UNL d   1      22.563 -18.481   0.280  0.00  0.00     0.019 C 
ENDBRANCH  27  28
ENDBRANCH  21  22
ENDBRANCH  20  21
ENDBRANCH   1  20
TORSDOF 9
ENDMDL
