MODEL 1
REMARK VINA RESULT:    -8.942      0.000      0.000
REMARK INTER + INTRA:         -11.269
REMARK INTER:                 -10.434
REMARK INTRA:                  -0.835
REMARK CONF_INDEPENDENT:        1.492
REMARK UNBOUND:                -0.835
REMARK  5 active torsions:
REMARK  status: ('A' for Active; 'I' for Inactive)
REMARK    1  A    between atoms: C_2  and  N_3 
REMARK    2  A    between atoms: C_4  and  N_5 
REMARK    3  A    between atoms: N_5  and  N_6 
REMARK    4  A    between atoms: N_6  and  S_7 
REMARK    5  A    between atoms: S_7  and  C_10 
ROOT
ATOM      1  N   UNL d   1      28.490 -15.182   1.754  0.00  0.00    -0.120 N 
ATOM      2  H   UNL d   1      29.377 -15.670   1.641  0.00  0.00     0.206 HD
ENDROOT
BRANCH   1   3
ATOM      3  C   UNL d   1      28.375 -14.311   2.830  0.00  0.00     0.725 A 
ATOM      4  N   UNL d   1      28.077 -12.942   2.703  0.00  0.00    -0.144 N 
ATOM      5  C   UNL d   1      27.923 -12.100   3.803  0.00  0.00     0.274 A 
ATOM      6  C   UNL d   1      28.128 -12.697   5.114  0.00  0.00     0.062 A 
ATOM      7  O   UNL d   1      27.649 -10.904   3.734  0.00  0.00    -0.266 OA
ATOM      8  C   UNL d   1      28.061 -11.894   6.258  0.00  0.00     0.019 C 
ATOM      9  C   UNL d   1      28.443 -14.047   5.168  0.00  0.00     0.091 A 
ATOM     10  C   UNL d   1      28.502 -12.411   7.465  0.00  0.00     0.001 C 
ATOM     11  C   UNL d   1      28.914 -13.740   7.528  0.00  0.00     0.002 C 
ATOM     12  C   UNL d   1      28.756 -14.581   6.418  0.00  0.00     0.033 C 
ATOM     13  N   UNL d   1      28.520 -14.850   4.016  0.00  0.00    -0.062 NA
BRANCH   4  14
ATOM     14  C   UNL d   1      27.697 -12.327   1.447  0.00  0.00     0.147 C 
ATOM     15  C   UNL d   1      26.280 -12.730   1.070  0.00  0.00     0.027 C 
ENDBRANCH   4  14
ENDBRANCH   1   3
BRANCH   1  16
ATOM     16  N   UNL d   1      27.450 -15.459   0.739  0.00  0.00    -0.208 N 
ATOM     17  H   UNL d   1      27.409 -14.813  -0.049  0.00  0.00     0.201 HD
BRANCH  16  18
ATOM     18  S   UNL d   1      27.138 -17.086   0.242  0.00  0.00     0.276 S 
ATOM     19  O   UNL d   1      28.135 -17.325  -0.803  0.00  0.00    -0.199 OA
ATOM     20  O   UNL d   1      27.006 -17.887   1.414  0.00  0.00    -0.199 OA
BRANCH  18  21
ATOM     21  C   UNL d   1      25.563 -16.933  -0.564  0.00  0.00     0.084 C 
ATOM     22  C   UNL d   1      24.980 -15.855  -1.231  0.00  0.00     0.028 C 
ATOM     23  C   UNL d   1      23.536 -15.898  -1.608  0.00  0.00     0.041 C 
ATOM     24  C   UNL d   1      22.718 -17.015  -1.225  0.00  0.00     0.102 C 
ATOM     25  C   UNL d   1      23.507 -18.051  -0.862  0.00  0.00     0.103 C 
ATOM     26  O   UNL d   1      21.362 -17.424  -1.227  0.00  0.00    -0.346 OA
ATOM     27  C   UNL d   1      24.809 -18.049  -0.480  0.00  0.00     0.065 C 
ATOM     28  O   UNL d   1      23.133 -19.301  -1.205  0.00  0.00    -0.346 OA
ATOM     29  C   UNL d   1      22.277 -19.677  -0.177  0.00  0.00     0.202 C 
ATOM     30  C   UNL d   1      21.031 -18.880  -0.538  0.00  0.00     0.202 C 
ENDBRANCH  18  21
ENDBRANCH  16  18
ENDBRANCH   1  16
TORSDOF 5
ENDMDL
MODEL 2
REMARK VINA RESULT:    -8.792      4.891      7.223
REMARK INTER + INTRA:         -11.293
REMARK INTER:                 -10.283
REMARK INTRA:                  -1.010
REMARK CONF_INDEPENDENT:        1.492
REMARK UNBOUND:                -1.010
REMARK  5 active torsions:
REMARK  status: ('A' for Active; 'I' for Inactive)
REMARK    1  A    between atoms: C_2  and  N_3 
REMARK    2  A    between atoms: C_4  and  N_5 
REMARK    3  A    between atoms: N_5  and  N_6 
REMARK    4  A    between atoms: N_6  and  S_7 
REMARK    5  A    between atoms: S_7  and  C_10 
ROOT
ATOM      1  N   UNL d   1      28.372 -16.437  -1.471  0.00  0.00    -0.120 N 
ATOM      2  H   UNL d   1      28.476 -15.610  -0.885  0.00  0.00     0.206 HD
ENDROOT
BRANCH   1   3
ATOM      3  C   UNL d   1      28.725 -16.316  -2.810  0.00  0.00     0.725 A 
ATOM      4  N   UNL d   1      27.967 -15.608  -3.760  0.00  0.00    -0.144 N 
ATOM      5  C   UNL d   1      28.368 -15.465  -5.087  0.00  0.00     0.274 A 
ATOM      6  C   UNL d   1      29.607 -16.124  -5.468  0.00  0.00     0.062 A 
ATOM      7  O   UNL d   1      27.741 -14.843  -5.943  0.00  0.00    -0.266 OA
ATOM      8  C   UNL d   1      30.032 -16.083  -6.800  0.00  0.00     0.019 C 
ATOM      9  C   UNL d   1      30.295 -16.825  -4.488  0.00  0.00     0.091 A 
ATOM     10  C   UNL d   1      31.065 -16.915  -7.200  0.00  0.00     0.001 C 
ATOM     11  C   UNL d   1      31.712 -17.702  -6.251  0.00  0.00     0.002 C 
ATOM     12  C   UNL d   1      31.415 -17.554  -4.889  0.00  0.00     0.033 C 
ATOM     13  N   UNL d   1      29.860 -16.875  -3.151  0.00  0.00    -0.062 NA
BRANCH   4  14
ATOM     14  C   UNL d   1      26.821 -14.792  -3.411  0.00  0.00     0.147 C 
ATOM     15  C   UNL d   1      25.632 -15.151  -4.288  0.00  0.00     0.027 C 
ENDBRANCH   4  14
ENDBRANCH   1   3
BRANCH   1  16
ATOM     16  N   UNL d   1      27.876 -17.661  -0.807  0.00  0.00    -0.208 N 
ATOM     17  H   UNL d   1      28.556 -18.411  -0.681  0.00  0.00     0.201 HD
BRANCH  16  18
ATOM     18  S   UNL d   1      26.814 -17.537   0.553  0.00  0.00     0.276 S 
ATOM     19  O   UNL d   1      26.755 -18.904   1.072  0.00  0.00    -0.199 OA
ATOM     20  O   UNL d   1      27.218 -16.409   1.326  0.00  0.00    -0.199 OA
BRANCH  18  21
ATOM     21  C   UNL d   1      25.252 -17.206  -0.225  0.00  0.00     0.084 C 
ATOM     22  C   UNL d   1      24.733 -16.028  -0.765  0.00  0.00     0.028 C 
ATOM     23  C   UNL d   1      23.290 -15.947  -1.139  0.00  0.00     0.041 C 
ATOM     24  C   UNL d   1      22.409 -17.052  -0.882  0.00  0.00     0.102 C 
ATOM     25  C   UNL d   1      23.137 -18.165  -0.642  0.00  0.00     0.103 C 
ATOM     26  O   UNL d   1      21.032 -17.381  -0.927  0.00  0.00    -0.346 OA
ATOM     27  C   UNL d   1      24.437 -18.280  -0.266  0.00  0.00     0.065 C 
ATOM     28  O   UNL d   1      22.695 -19.345  -1.123  0.00  0.00    -0.346 OA
ATOM     29  C   UNL d   1      21.816 -19.787  -0.141  0.00  0.00     0.202 C 
ATOM     30  C   UNL d   1      20.617 -18.885  -0.405  0.00  0.00     0.202 C 
ENDBRANCH  18  21
ENDBRANCH  16  18
ENDBRANCH   1  16
TORSDOF 5
ENDMDL
MODEL 3
REMARK VINA RESULT:    -8.785      4.858      8.056
REMARK INTER + INTRA:         -11.333
REMARK INTER:                 -10.277
REMARK INTRA:                  -1.056
REMARK CONF_INDEPENDENT:        1.492
REMARK UNBOUND:                -1.056
REMARK  5 active torsions:
REMARK  status: ('A' for Active; 'I' for Inactive)
REMARK    1  A    between atoms: C_2  and  N_3 
REMARK    2  A    between atoms: C_4  and  N_5 
REMARK    3  A    between atoms: N_5  and  N_6 
REMARK    4  A    between atoms: N_6  and  S_7 
REMARK    5  A    between atoms: S_7  and  C_10 
ROOT
ATOM      1  N   UNL d   1      27.620 -15.333  -2.266  0.00  0.00    -0.120 N 
ATOM      2  H   UNL d   1      28.070 -14.581  -1.745  0.00  0.00     0.206 HD
ENDROOT
BRANCH   1   3
ATOM      3  C   UNL d   1      26.770 -16.176  -1.560  0.00  0.00     0.725 A 
ATOM      4  N   UNL d   1      27.214 -17.225  -0.735  0.00  0.00    -0.144 N 
ATOM      5  C   UNL d   1      26.340 -18.027  -0.004  0.00  0.00     0.274 A 
ATOM      6  C   UNL d   1      24.919 -17.757  -0.163  0.00  0.00     0.062 A 
ATOM      7  O   UNL d   1      26.688 -18.943   0.739  0.00  0.00    -0.266 OA
ATOM      8  C   UNL d   1      23.983 -18.570   0.485  0.00  0.00     0.019 C 
ATOM      9  C   UNL d   1      24.548 -16.723  -1.010  0.00  0.00     0.091 A 
ATOM     10  C   UNL d   1      22.647 -18.467   0.132  0.00  0.00     0.001 C 
ATOM     11  C   UNL d   1      22.260 -17.498  -0.790  0.00  0.00     0.002 C 
ATOM     12  C   UNL d   1      23.185 -16.551  -1.251  0.00  0.00     0.033 C 
ATOM     13  N   UNL d   1      25.491 -15.914  -1.669  0.00  0.00    -0.062 NA
BRANCH   4  14
ATOM     14  C   UNL d   1      28.608 -17.437  -0.402  0.00  0.00     0.147 C 
ATOM     15  C   UNL d   1      29.213 -16.166   0.170  0.00  0.00     0.027 C 
ENDBRANCH   4  14
ENDBRANCH   1   3
BRANCH   1  16
ATOM     16  N   UNL d   1      27.924 -15.409  -3.711  0.00  0.00    -0.208 N 
ATOM     17  H   UNL d   1      28.471 -16.214  -4.013  0.00  0.00     0.201 HD
BRANCH  16  18
ATOM     18  S   UNL d   1      26.708 -14.999  -4.872  0.00  0.00     0.276 S 
ATOM     19  O   UNL d   1      27.409 -15.091  -6.154  0.00  0.00    -0.199 OA
ATOM     20  O   UNL d   1      25.529 -15.736  -4.554  0.00  0.00    -0.199 OA
BRANCH  18  21
ATOM     21  C   UNL d   1      26.447 -13.273  -4.542  0.00  0.00     0.084 C 
ATOM     22  C   UNL d   1      25.874 -12.631  -3.443  0.00  0.00     0.028 C 
ATOM     23  C   UNL d   1      25.541 -11.177  -3.514  0.00  0.00     0.041 C 
ATOM     24  C   UNL d   1      25.738 -10.445  -4.734  0.00  0.00     0.102 C 
ATOM     25  C   UNL d   1      26.550 -11.146  -5.557  0.00  0.00     0.103 C 
ATOM     26  O   UNL d   1      25.465  -9.175  -5.299  0.00  0.00    -0.346 OA
ATOM     27  C   UNL d   1      26.850 -12.470  -5.548  0.00  0.00     0.065 C 
ATOM     28  O   UNL d   1      27.459 -10.476  -6.295  0.00  0.00    -0.346 OA
ATOM     29  C   UNL d   1      26.745 -10.100  -7.426  0.00  0.00     0.202 C 
ATOM     30  C   UNL d   1      25.908  -8.957  -6.868  0.00  0.00     0.202 C 
ENDBRANCH  18  21
ENDBRANCH  16  18
ENDBRANCH   1  16
TORSDOF 5
ENDMDL
MODEL 4
REMARK VINA RESULT:    -8.784      4.962      7.895
REMARK INTER + INTRA:         -11.604
REMARK INTER:                 -10.275
REMARK INTRA:                  -1.328
REMARK CONF_INDEPENDENT:        1.492
REMARK UNBOUND:                -1.328
REMARK  5 active torsions:
REMARK  status: ('A' for Active; 'I' for Inactive)
REMARK    1  A    between atoms: C_2  and  N_3 
REMARK    2  A    between atoms: C_4  and  N_5 
REMARK    3  A    between atoms: N_5  and  N_6 
REMARK    4  A    between atoms: N_6  and  S_7 
REMARK    5  A    between atoms: S_7  and  C_10 
ROOT
ATOM      1  N   UNL d   1      26.795 -14.519  -1.555  0.00  0.00    -0.120 N 
ATOM      2  H   UNL d   1      27.657 -14.277  -1.068  0.00  0.00     0.206 HD
ENDROOT
BRANCH   1   3
ATOM      3  C   UNL d   1      26.118 -15.654  -1.124  0.00  0.00     0.725 A 
ATOM      4  N   UNL d   1      26.755 -16.817  -0.657  0.00  0.00    -0.144 N 
ATOM      5  C   UNL d   1      26.050 -17.925  -0.190  0.00  0.00     0.274 A 
ATOM      6  C   UNL d   1      24.598 -17.843  -0.242  0.00  0.00     0.062 A 
ATOM      7  O   UNL d   1      26.569 -18.953   0.239  0.00  0.00    -0.266 OA
ATOM      8  C   UNL d   1      23.828 -18.946   0.144  0.00  0.00     0.019 C 
ATOM      9  C   UNL d   1      24.034 -16.675  -0.735  0.00  0.00     0.091 A 
ATOM     10  C   UNL d   1      22.474 -18.951  -0.145  0.00  0.00     0.001 C 
ATOM     11  C   UNL d   1      21.897 -17.825  -0.728  0.00  0.00     0.002 C 
ATOM     12  C   UNL d   1      22.648 -16.653  -0.895  0.00  0.00     0.033 C 
ATOM     13  N   UNL d   1      24.810 -15.572  -1.132  0.00  0.00    -0.062 NA
BRANCH   4  14
ATOM     14  C   UNL d   1      28.182 -16.899  -0.422  0.00  0.00     0.147 C 
ATOM     15  C   UNL d   1      28.941 -16.785  -1.734  0.00  0.00     0.027 C 
ENDBRANCH   4  14
ENDBRANCH   1   3
BRANCH   1  16
ATOM     16  N   UNL d   1      26.374 -13.612  -2.645  0.00  0.00    -0.208 N 
ATOM     17  H   UNL d   1      26.952 -12.785  -2.788  0.00  0.00     0.201 HD
BRANCH  16  18
ATOM     18  S   UNL d   1      25.821 -14.267  -4.148  0.00  0.00     0.276 S 
ATOM     19  O   UNL d   1      25.465 -15.647  -3.815  0.00  0.00    -0.199 OA
ATOM     20  O   UNL d   1      24.917 -13.329  -4.729  0.00  0.00    -0.199 OA
BRANCH  18  21
ATOM     21  C   UNL d   1      27.319 -14.329  -5.100  0.00  0.00     0.084 C 
ATOM     22  C   UNL d   1      27.771 -13.518  -6.143  0.00  0.00     0.028 C 
ATOM     23  C   UNL d   1      28.957 -13.929  -6.950  0.00  0.00     0.041 C 
ATOM     24  C   UNL d   1      29.597 -15.193  -6.712  0.00  0.00     0.102 C 
ATOM     25  C   UNL d   1      29.211 -15.676  -5.510  0.00  0.00     0.103 C 
ATOM     26  O   UNL d   1      30.596 -16.030  -7.266  0.00  0.00    -0.346 OA
ATOM     27  C   UNL d   1      28.125 -15.355  -4.762  0.00  0.00     0.065 C 
ATOM     28  O   UNL d   1      30.122 -16.313  -4.745  0.00  0.00    -0.346 OA
ATOM     29  C   UNL d   1      30.079 -17.621  -5.212  0.00  0.00     0.202 C 
ATOM     30  C   UNL d   1      30.836 -17.479  -6.526  0.00  0.00     0.202 C 
ENDBRANCH  18  21
ENDBRANCH  16  18
ENDBRANCH   1  16
TORSDOF 5
ENDMDL
MODEL 5
REMARK VINA RESULT:    -8.672      5.590      8.489
REMARK INTER + INTRA:         -11.480
REMARK INTER:                 -10.164
REMARK INTRA:                  -1.316
REMARK CONF_INDEPENDENT:        1.492
REMARK UNBOUND:                -1.316
REMARK  5 active torsions:
REMARK  status: ('A' for Active; 'I' for Inactive)
REMARK    1  A    between atoms: C_2  and  N_3 
REMARK    2  A    between atoms: C_4  and  N_5 
REMARK    3  A    between atoms: N_5  and  N_6 
REMARK    4  A    between atoms: N_6  and  S_7 
REMARK    5  A    between atoms: S_7  and  C_10 
ROOT
ATOM      1  N   UNL d   1      28.647 -14.132  -4.003  0.00  0.00    -0.120 N 
ATOM      2  H   UNL d   1      29.172 -13.706  -3.241  0.00  0.00     0.206 HD
ENDROOT
BRANCH   1   3
ATOM      3  C   UNL d   1      29.320 -15.043  -4.808  0.00  0.00     0.725 A 
ATOM      4  N   UNL d   1      29.907 -14.715  -6.043  0.00  0.00    -0.144 N 
ATOM      5  C   UNL d   1      30.615 -15.639  -6.809  0.00  0.00     0.274 A 
ATOM      6  C   UNL d   1      30.690 -16.995  -6.289  0.00  0.00     0.062 A 
ATOM      7  O   UNL d   1      31.155 -15.387  -7.885  0.00  0.00    -0.266 OA
ATOM      8  C   UNL d   1      31.324 -17.991  -7.041  0.00  0.00     0.019 C 
ATOM      9  C   UNL d   1      30.070 -17.258  -5.076  0.00  0.00     0.091 A 
ATOM     10  C   UNL d   1      31.171 -19.315  -6.663  0.00  0.00     0.001 C 
ATOM     11  C   UNL d   1      30.471 -19.614  -5.497  0.00  0.00     0.002 C 
ATOM     12  C   UNL d   1      30.043 -18.585  -4.646  0.00  0.00     0.033 C 
ATOM     13  N   UNL d   1      29.425 -16.258  -4.328  0.00  0.00    -0.062 NA
BRANCH   4  14
ATOM     14  C   UNL d   1      30.015 -13.355  -6.533  0.00  0.00     0.147 C 
ATOM     15  C   UNL d   1      28.997 -13.109  -7.635  0.00  0.00     0.027 C 
ENDBRANCH   4  14
ENDBRANCH   1   3
BRANCH   1  16
ATOM     16  N   UNL d   1      27.229 -13.733  -4.134  0.00  0.00    -0.208 N 
ATOM     17  H   UNL d   1      27.046 -12.905  -4.698  0.00  0.00     0.201 HD
BRANCH  16  18
ATOM     18  S   UNL d   1      26.010 -14.939  -4.365  0.00  0.00     0.276 S 
ATOM     19  O   UNL d   1      24.768 -14.167  -4.433  0.00  0.00    -0.199 OA
ATOM     20  O   UNL d   1      26.454 -15.823  -5.392  0.00  0.00    -0.199 OA
BRANCH  18  21
ATOM     21  C   UNL d   1      26.017 -15.780  -2.801  0.00  0.00     0.084 C 
ATOM     22  C   UNL d   1      27.076 -16.267  -2.032  0.00  0.00     0.028 C 
ATOM     23  C   UNL d   1      26.806 -17.162  -0.868  0.00  0.00     0.041 C 
ATOM     24  C   UNL d   1      25.466 -17.589  -0.574  0.00  0.00     0.102 C 
ATOM     25  C   UNL d   1      24.586 -16.799  -1.227  0.00  0.00     0.103 C 
ATOM     26  O   UNL d   1      24.769 -18.482   0.277  0.00  0.00    -0.346 OA
ATOM     27  C   UNL d   1      24.782 -16.000  -2.306  0.00  0.00     0.065 C 
ATOM     28  O   UNL d   1      23.440 -16.453  -0.604  0.00  0.00    -0.346 OA
ATOM     29  C   UNL d   1      22.588 -17.516  -0.877  0.00  0.00     0.202 C 
ATOM     30  C   UNL d   1      23.140 -18.573   0.071  0.00  0.00     0.202 C 
ENDBRANCH  18  21
ENDBRANCH  16  18
ENDBRANCH   1  16
TORSDOF 5
ENDMDL
MODEL 6
REMARK VINA RESULT:    -8.591      4.914      8.165
REMARK INTER + INTRA:         -11.274
REMARK INTER:                 -10.082
REMARK INTRA:                  -1.191
REMARK CONF_INDEPENDENT:        1.492
REMARK UNBOUND:                -1.191
REMARK  5 active torsions:
REMARK  status: ('A' for Active; 'I' for Inactive)
REMARK    1  A    between atoms: C_2  and  N_3 
REMARK    2  A    between atoms: C_4  and  N_5 
REMARK    3  A    between atoms: N_5  and  N_6 
REMARK    4  A    between atoms: N_6  and  S_7 
REMARK    5  A    between atoms: S_7  and  C_10 
ROOT
ATOM      1  N   UNL d   1      26.904 -14.526  -1.534  0.00  0.00    -0.120 N 
ATOM      2  H   UNL d   1      27.907 -14.492  -1.360  0.00  0.00     0.206 HD
ENDROOT
BRANCH   1   3
ATOM      3  C   UNL d   1      26.220 -15.656  -1.102  0.00  0.00     0.725 A 
ATOM      4  N   UNL d   1      26.850 -16.815  -0.616  0.00  0.00    -0.144 N 
ATOM      5  C   UNL d   1      26.138 -17.918  -0.148  0.00  0.00     0.274 A 
ATOM      6  C   UNL d   1      24.687 -17.837  -0.221  0.00  0.00     0.062 A 
ATOM      7  O   UNL d   1      26.651 -18.943   0.298  0.00  0.00    -0.266 OA
ATOM      8  C   UNL d   1      23.911 -18.935   0.164  0.00  0.00     0.019 C 
ATOM      9  C   UNL d   1      24.130 -16.674  -0.733  0.00  0.00     0.091 A 
ATOM     10  C   UNL d   1      22.561 -18.943  -0.143  0.00  0.00     0.001 C 
ATOM     11  C   UNL d   1      21.993 -17.822  -0.745  0.00  0.00     0.002 C 
ATOM     12  C   UNL d   1      22.747 -16.652  -0.912  0.00  0.00     0.033 C 
ATOM     13  N   UNL d   1      24.912 -15.574  -1.130  0.00  0.00    -0.062 NA
BRANCH   4  14
ATOM     14  C   UNL d   1      28.274 -16.896  -0.360  0.00  0.00     0.147 C 
ATOM     15  C   UNL d   1      29.051 -16.785  -1.661  0.00  0.00     0.027 C 
ENDBRANCH   4  14
ENDBRANCH   1   3
BRANCH   1  16
ATOM     16  N   UNL d   1      26.310 -13.351  -2.208  0.00  0.00    -0.208 N 
ATOM     17  H   UNL d   1      26.799 -12.465  -2.079  0.00  0.00     0.201 HD
BRANCH  16  18
ATOM     18  S   UNL d   1      25.682 -13.500  -3.813  0.00  0.00     0.276 S 
ATOM     19  O   UNL d   1      24.578 -14.450  -3.666  0.00  0.00    -0.199 OA
ATOM     20  O   UNL d   1      25.537 -12.188  -4.353  0.00  0.00    -0.199 OA
BRANCH  18  21
ATOM     21  C   UNL d   1      26.998 -14.353  -4.648  0.00  0.00     0.084 C 
ATOM     22  C   UNL d   1      27.634 -15.560  -4.354  0.00  0.00     0.028 C 
ATOM     23  C   UNL d   1      28.886 -15.941  -5.072  0.00  0.00     0.041 C 
ATOM     24  C   UNL d   1      29.486 -15.040  -6.016  0.00  0.00     0.102 C 
ATOM     25  C   UNL d   1      28.591 -14.091  -6.368  0.00  0.00     0.103 C 
ATOM     26  O   UNL d   1      30.663 -14.899  -6.792  0.00  0.00    -0.346 OA
ATOM     27  C   UNL d   1      27.463 -13.691  -5.727  0.00  0.00     0.065 C 
ATOM     28  O   UNL d   1      28.561 -13.671  -7.650  0.00  0.00    -0.346 OA
ATOM     29  C   UNL d   1      29.532 -12.677  -7.689  0.00  0.00     0.202 C 
ATOM     30  C   UNL d   1      30.801 -13.519  -7.676  0.00  0.00     0.202 C 
ENDBRANCH  18  21
ENDBRANCH  16  18
ENDBRANCH   1  16
TORSDOF 5
ENDMDL
MODEL 7
REMARK VINA RESULT:    -8.393      4.466      6.241
REMARK INTER + INTRA:         -11.365
REMARK INTER:                  -9.885
REMARK INTRA:                  -1.481
REMARK CONF_INDEPENDENT:        1.492
REMARK UNBOUND:                -1.481
REMARK  5 active torsions:
REMARK  status: ('A' for Active; 'I' for Inactive)
REMARK    1  A    between atoms: C_2  and  N_3 
REMARK    2  A    between atoms: C_4  and  N_5 
REMARK    3  A    between atoms: N_5  and  N_6 
REMARK    4  A    between atoms: N_6  and  S_7 
REMARK    5  A    between atoms: S_7  and  C_10 
ROOT
ATOM      1  N   UNL d   1      28.455 -15.849   0.471  0.00  0.00    -0.120 N 
ATOM      2  H   UNL d   1      29.179 -15.388   1.020  0.00  0.00     0.206 HD
ENDROOT
BRANCH   1   3
ATOM      3  C   UNL d   1      28.567 -15.783  -0.913  0.00  0.00     0.725 A 
ATOM      4  N   UNL d   1      29.721 -16.158  -1.625  0.00  0.00    -0.144 N 
ATOM      5  C   UNL d   1      29.790 -16.124  -3.016  0.00  0.00     0.274 A 
ATOM      6  C   UNL d   1      28.611 -15.637  -3.716  0.00  0.00     0.062 A 
ATOM      7  O   UNL d   1      30.773 -16.456  -3.675  0.00  0.00    -0.266 OA
ATOM      8  C   UNL d   1      28.636 -15.509  -5.109  0.00  0.00     0.019 C 
ATOM      9  C   UNL d   1      27.515 -15.262  -2.952  0.00  0.00     0.091 A 
ATOM     10  C   UNL d   1      27.614 -14.815  -5.736  0.00  0.00     0.001 C 
ATOM     11  C   UNL d   1      26.545 -14.344  -4.978  0.00  0.00     0.002 C 
ATOM     12  C   UNL d   1      26.436 -14.684  -3.622  0.00  0.00     0.033 C 
ATOM     13  N   UNL d   1      27.495 -15.382  -1.552  0.00  0.00    -0.062 NA
BRANCH   4  14
ATOM     14  C   UNL d   1      30.859 -16.806  -1.005  0.00  0.00     0.147 C 
ATOM     15  C   UNL d   1      30.624 -18.304  -0.906  0.00  0.00     0.027 C 
ENDBRANCH   4  14
ENDBRANCH   1   3
BRANCH   1  16
ATOM     16  N   UNL d   1      27.391 -16.542   1.229  0.00  0.00    -0.208 N 
ATOM     17  H   UNL d   1      26.662 -15.949   1.623  0.00  0.00     0.201 HD
BRANCH  16  18
ATOM     18  S   UNL d   1      26.745 -18.035   0.641  0.00  0.00     0.276 S 
ATOM     19  O   UNL d   1      27.681 -18.427  -0.414  0.00  0.00    -0.199 OA
ATOM     20  O   UNL d   1      26.427 -18.851   1.767  0.00  0.00    -0.199 OA
BRANCH  18  21
ATOM     21  C   UNL d   1      25.250 -17.504  -0.158  0.00  0.00     0.084 C 
ATOM     22  C   UNL d   1      24.875 -16.255  -0.655  0.00  0.00     0.028 C 
ATOM     23  C   UNL d   1      23.461 -16.003  -1.060  0.00  0.00     0.041 C 
ATOM     24  C   UNL d   1      22.460 -17.017  -0.874  0.00  0.00     0.102 C 
ATOM     25  C   UNL d   1      23.058 -18.211  -0.667  0.00  0.00     0.103 C 
ATOM     26  O   UNL d   1      21.057 -17.193  -0.966  0.00  0.00    -0.346 OA
ATOM     27  C   UNL d   1      24.326 -18.481  -0.267  0.00  0.00     0.065 C 
ATOM     28  O   UNL d   1      22.505 -19.315  -1.212  0.00  0.00    -0.346 OA
ATOM     29  C   UNL d   1      21.557 -19.701  -0.272  0.00  0.00     0.202 C 
ATOM     30  C   UNL d   1      20.470 -18.664  -0.523  0.00  0.00     0.202 C 
ENDBRANCH  18  21
ENDBRANCH  16  18
ENDBRANCH   1  16
TORSDOF 5
ENDMDL
MODEL 8
REMARK VINA RESULT:    -8.340      3.572      5.051
REMARK INTER + INTRA:         -11.564
REMARK INTER:                  -9.831
REMARK INTRA:                  -1.733
REMARK CONF_INDEPENDENT:        1.492
REMARK UNBOUND:                -1.733
REMARK  5 active torsions:
REMARK  status: ('A' for Active; 'I' for Inactive)
REMARK    1  A    between atoms: C_2  and  N_3 
REMARK    2  A    between atoms: C_4  and  N_5 
REMARK    3  A    between atoms: N_5  and  N_6 
REMARK    4  A    between atoms: N_6  and  S_7 
REMARK    5  A    between atoms: S_7  and  C_10 
ROOT
ATOM      1  N   UNL d   1      25.172 -12.625  -3.843  0.00  0.00    -0.120 N 
ATOM      2  H   UNL d   1      24.779 -11.845  -4.368  0.00  0.00     0.206 HD
ENDROOT
BRANCH   1   3
ATOM      3  C   UNL d   1      25.945 -12.318  -2.730  0.00  0.00     0.725 A 
ATOM      4  N   UNL d   1      26.702 -11.140  -2.601  0.00  0.00    -0.144 N 
ATOM      5  C   UNL d   1      27.434 -10.837  -1.454  0.00  0.00     0.274 A 
ATOM      6  C   UNL d   1      27.415 -11.827  -0.389  0.00  0.00     0.062 A 
ATOM      7  O   UNL d   1      28.095  -9.812  -1.298  0.00  0.00    -0.266 OA
ATOM      8  C   UNL d   1      28.184 -11.621   0.761  0.00  0.00     0.019 C 
ATOM      9  C   UNL d   1      26.666 -12.978  -0.589  0.00  0.00     0.091 A 
ATOM     10  C   UNL d   1      28.358 -12.671   1.648  0.00  0.00     0.001 C 
ATOM     11  C   UNL d   1      27.692 -13.873   1.420  0.00  0.00     0.002 C 
ATOM     12  C   UNL d   1      26.752 -13.974   0.385  0.00  0.00     0.033 C 
ATOM     13  N   UNL d   1      25.902 -13.188  -1.750  0.00  0.00    -0.062 NA
BRANCH   4  14
ATOM     14  C   UNL d   1      26.629 -10.044  -3.547  0.00  0.00     0.147 C 
ATOM     15  C   UNL d   1      25.531  -9.073  -3.145  0.00  0.00     0.027 C 
ENDBRANCH   4  14
ENDBRANCH   1   3
BRANCH   1  16
ATOM     16  N   UNL d   1      24.846 -13.982  -4.332  0.00  0.00    -0.208 N 
ATOM     17  H   UNL d   1      24.197 -14.032  -5.116  0.00  0.00     0.201 HD
BRANCH  16  18
ATOM     18  S   UNL d   1      26.090 -15.177  -4.461  0.00  0.00     0.276 S 
ATOM     19  O   UNL d   1      25.530 -16.161  -5.388  0.00  0.00    -0.199 OA
ATOM     20  O   UNL d   1      27.329 -14.501  -4.671  0.00  0.00    -0.199 OA
BRANCH  18  21
ATOM     21  C   UNL d   1      26.071 -15.911  -2.844  0.00  0.00     0.084 C 
ATOM     22  C   UNL d   1      27.117 -16.324  -2.017  0.00  0.00     0.028 C 
ATOM     23  C   UNL d   1      26.832 -17.144  -0.803  0.00  0.00     0.041 C 
ATOM     24  C   UNL d   1      25.493 -17.576  -0.515  0.00  0.00     0.102 C 
ATOM     25  C   UNL d   1      24.616 -16.849  -1.242  0.00  0.00     0.103 C 
ATOM     26  O   UNL d   1      24.789 -18.424   0.376  0.00  0.00    -0.346 OA
ATOM     27  C   UNL d   1      24.827 -16.121  -2.368  0.00  0.00     0.065 C 
ATOM     28  O   UNL d   1      23.448 -16.484  -0.673  0.00  0.00    -0.346 OA
ATOM     29  C   UNL d   1      22.623 -17.580  -0.895  0.00  0.00     0.202 C 
ATOM     30  C   UNL d   1      23.168 -18.560   0.136  0.00  0.00     0.202 C 
ENDBRANCH  18  21
ENDBRANCH  16  18
ENDBRANCH   1  16
TORSDOF 5
ENDMDL
MODEL 9
REMARK VINA RESULT:    -7.710      4.139      6.475
REMARK INTER + INTRA:         -11.443
REMARK INTER:                  -9.201
REMARK INTRA:                  -2.242
REMARK CONF_INDEPENDENT:        1.492
REMARK UNBOUND:                -2.242
REMARK  5 active torsions:
REMARK  status: ('A' for Active; 'I' for Inactive)
REMARK    1  A    between atoms: C_2  and  N_3 
REMARK    2  A    between atoms: C_4  and  N_5 
REMARK    3  A    between atoms: N_5  and  N_6 
REMARK    4  A    between atoms: N_6  and  S_7 
REMARK    5  A    between atoms: S_7  and  C_10 
ROOT
ATOM      1  N   UNL d   1      29.440 -16.419   0.194  0.00  0.00    -0.120 N 
ATOM      2  H   UNL d   1      29.646 -16.781   1.124  0.00  0.00     0.206 HD
ENDROOT
BRANCH   1   3
ATOM      3  C   UNL d   1      28.102 -16.329  -0.171  0.00  0.00     0.725 A 
ATOM      4  N   UNL d   1      27.500 -15.156  -0.662  0.00  0.00    -0.144 N 
ATOM      5  C   UNL d   1      26.167 -15.106  -1.063  0.00  0.00     0.274 A 
ATOM      6  C   UNL d   1      25.394 -16.330  -0.912  0.00  0.00     0.062 A 
ATOM      7  O   UNL d   1      25.609 -14.106  -1.511  0.00  0.00    -0.266 OA
ATOM      8  C   UNL d   1      24.031 -16.331  -1.227  0.00  0.00     0.019 C 
ATOM      9  C   UNL d   1      26.042 -17.444  -0.400  0.00  0.00     0.091 A 
ATOM     10  C   UNL d   1      23.256 -17.414  -0.846  0.00  0.00     0.001 C 
ATOM     11  C   UNL d   1      23.868 -18.510  -0.242  0.00  0.00     0.002 C 
ATOM     12  C   UNL d   1      25.265 -18.575  -0.145  0.00  0.00     0.033 C 
ATOM     13  N   UNL d   1      27.410 -17.438  -0.074  0.00  0.00    -0.062 NA
BRANCH   4  14
ATOM     14  C   UNL d   1      28.249 -13.961  -0.994  0.00  0.00     0.147 C 
ATOM     15  C   UNL d   1      28.196 -12.969   0.156  0.00  0.00     0.027 C 
ENDBRANCH   4  14
ENDBRANCH   1   3
BRANCH   1  16
ATOM     16  N   UNL d   1      30.599 -16.022  -0.633  0.00  0.00    -0.208 N 
ATOM     17  H   UNL d   1      31.495 -15.960  -0.150  0.00  0.00     0.201 HD
BRANCH  16  18
ATOM     18  S   UNL d   1      30.783 -16.664  -2.229  0.00  0.00     0.276 S 
ATOM     19  O   UNL d   1      32.219 -16.549  -2.485  0.00  0.00    -0.199 OA
ATOM     20  O   UNL d   1      30.058 -17.890  -2.297  0.00  0.00    -0.199 OA
BRANCH  18  21
ATOM     21  C   UNL d   1      29.975 -15.431  -3.221  0.00  0.00     0.084 C 
ATOM     22  C   UNL d   1      30.389 -14.155  -3.606  0.00  0.00     0.028 C 
ATOM     23  C   UNL d   1      29.419 -13.212  -4.237  0.00  0.00     0.041 C 
ATOM     24  C   UNL d   1      28.038 -13.580  -4.386  0.00  0.00     0.102 C 
ATOM     25  C   UNL d   1      27.907 -14.916  -4.232  0.00  0.00     0.103 C 
ATOM     26  O   UNL d   1      26.796 -13.017  -4.768  0.00  0.00    -0.346 OA
ATOM     27  C   UNL d   1      28.746 -15.801  -3.636  0.00  0.00     0.065 C 
ATOM     28  O   UNL d   1      27.030 -15.575  -5.017  0.00  0.00    -0.346 OA
ATOM     29  C   UNL d   1      25.824 -15.444  -4.337  0.00  0.00     0.202 C 
ATOM     30  C   UNL d   1      25.478 -13.994  -4.650  0.00  0.00     0.202 C 
ENDBRANCH  18  21
ENDBRANCH  16  18
ENDBRANCH   1  16
TORSDOF 5
ENDMDL
