MODEL 1
REMARK VINA RESULT:    -8.419      0.000      0.000
REMARK INTER + INTRA:         -10.738
REMARK INTER:                  -9.910
REMARK INTRA:                  -0.827
REMARK CONF_INDEPENDENT:        1.492
REMARK UNBOUND:                -0.827
REMARK  5 active torsions:
REMARK  status: ('A' for Active; 'I' for Inactive)
REMARK    1  A    between atoms: C_2  and  C_3 
REMARK       I    between atoms: C_2  and  N_13 
REMARK    2  A    between atoms: C_3  and  C_4 
REMARK    3  A    between atoms: C_7  and  N_8 
REMARK    4  A    between atoms: N_13  and  N_14 
REMARK       I    between atoms: N_14  and  C_15 
REMARK    5  A    between atoms: C_15  and  C_17 
ROOT
ATOM      1  O   UNL d   1      27.276 -16.517  -1.881  0.00  0.00    -0.272 OA
ATOM      2  C   UNL d   1      27.332 -16.339  -0.664  0.00  0.00     0.240 C 
ATOM      3  N   UNL d   1      28.185 -15.381  -0.157  0.00  0.00    -0.267 N 
ATOM      4  H   UNL d   1      28.745 -14.850  -0.828  0.00  0.00     0.190 HD
ENDROOT
BRANCH   3   5
ATOM      5  N   UNL d   1      28.381 -15.081   1.203  0.00  0.00    -0.263 N 
ATOM      6  C   UNL d   1      27.498 -14.208   1.820  0.00  0.00     0.270 C 
ATOM      7  O   UNL d   1      26.554 -13.673   1.236  0.00  0.00    -0.266 OA
ATOM      8  H   UNL d   1      29.086 -15.582   1.729  0.00  0.00     0.190 HD
BRANCH   6   9
ATOM      9  C   UNL d   1      27.739 -13.912   3.263  0.00  0.00     0.033 A 
ATOM     10  C   UNL d   1      27.430 -12.643   3.779  0.00  0.00     0.019 A 
ATOM     11  C   UNL d   1      27.783 -12.307   5.093  0.00  0.00     0.025 A 
ATOM     12  C   UNL d   1      28.392 -13.257   5.912  0.00  0.00     0.034 A 
ATOM     13 CL   UNL d   1      28.741 -12.881   7.554  0.00  0.00    -0.084 Cl
ATOM     14  C   UNL d   1      28.699 -14.521   5.410  0.00  0.00     0.025 A 
ATOM     15  C   UNL d   1      28.380 -14.849   4.086  0.00  0.00     0.019 A 
ENDBRANCH   6   9
ENDBRANCH   3   5
BRANCH   2  16
ATOM     16  C   UNL d   1      26.502 -17.138   0.327  0.00  0.00     0.143 C 
BRANCH  16  17
ATOM     17  C   UNL d   1      25.097 -17.481  -0.132  0.00  0.00    -0.049 A 
ATOM     18  C   UNL d   1      24.196 -16.472  -0.508  0.00  0.00     0.010 A 
ATOM     19  C   UNL d   1      22.868 -16.784  -0.811  0.00  0.00     0.036 A 
ATOM     20  C   UNL d   1      22.459 -18.123  -0.832  0.00  0.00     0.102 A 
ATOM     21  C   UNL d   1      23.352 -19.144  -0.488  0.00  0.00     0.036 A 
ATOM     22  C   UNL d   1      24.663 -18.817  -0.134  0.00  0.00     0.010 A 
BRANCH  20  23
ATOM     23  N   UNL d   1      21.100 -18.461  -1.276  0.00  0.00    -0.116 N 
ATOM     24  O   UNL d   1      20.881 -19.633  -1.620  0.00  0.00    -0.532 OA
ATOM     25  O   UNL d   1      20.249 -17.561  -1.270  0.00  0.00    -0.532 OA
ENDBRANCH  20  23
ENDBRANCH  16  17
ENDBRANCH   2  16
TORSDOF 5
ENDMDL
MODEL 2
REMARK VINA RESULT:    -7.791      4.574      5.857
REMARK INTER + INTRA:         -10.201
REMARK INTER:                  -9.283
REMARK INTRA:                  -0.918
REMARK CONF_INDEPENDENT:        1.492
REMARK UNBOUND:                -0.918
REMARK  5 active torsions:
REMARK  status: ('A' for Active; 'I' for Inactive)
REMARK    1  A    between atoms: C_2  and  C_3 
REMARK       I    between atoms: C_2  and  N_13 
REMARK    2  A    between atoms: C_3  and  C_4 
REMARK    3  A    between atoms: C_7  and  N_8 
REMARK    4  A    between atoms: N_13  and  N_14 
REMARK       I    between atoms: N_14  and  C_15 
REMARK    5  A    between atoms: C_15  and  C_17 
ROOT
ATOM      1  O   UNL d   1      27.092 -18.787   0.410  0.00  0.00    -0.272 OA
ATOM      2  C   UNL d   1      26.874 -17.719  -0.162  0.00  0.00     0.240 C 
ATOM      3  N   UNL d   1      27.721 -17.303  -1.168  0.00  0.00    -0.267 N 
ATOM      4  H   UNL d   1      28.509 -17.913  -1.399  0.00  0.00     0.190 HD
ENDROOT
BRANCH   3   5
ATOM      5  N   UNL d   1      27.622 -16.102  -1.893  0.00  0.00    -0.263 N 
ATOM      6  C   UNL d   1      26.489 -15.888  -2.664  0.00  0.00     0.270 C 
ATOM      7  O   UNL d   1      25.567 -16.700  -2.754  0.00  0.00    -0.266 OA
ATOM      8  H   UNL d   1      28.317 -15.377  -1.758  0.00  0.00     0.190 HD
BRANCH   6   9
ATOM      9  C   UNL d   1      26.421 -14.603  -3.419  0.00  0.00     0.033 A 
ATOM     10  C   UNL d   1      25.588 -13.567  -2.965  0.00  0.00     0.019 A 
ATOM     11  C   UNL d   1      25.405 -12.413  -3.740  0.00  0.00     0.025 A 
ATOM     12  C   UNL d   1      26.099 -12.266  -4.940  0.00  0.00     0.034 A 
ATOM     13 CL   UNL d   1      25.952 -10.812  -5.847  0.00  0.00    -0.084 Cl
ATOM     14  C   UNL d   1      26.932 -13.286  -5.397  0.00  0.00     0.025 A 
ATOM     15  C   UNL d   1      27.090 -14.457  -4.643  0.00  0.00     0.019 A 
ENDBRANCH   6   9
ENDBRANCH   3   5
BRANCH   2  16
ATOM     16  C   UNL d   1      25.705 -16.814   0.192  0.00  0.00     0.143 C 
BRANCH  16  17
ATOM     17  C   UNL d   1      24.340 -17.324  -0.231  0.00  0.00    -0.049 A 
ATOM     18  C   UNL d   1      23.330 -16.433  -0.626  0.00  0.00     0.010 A 
ATOM     19  C   UNL d   1      22.039 -16.897  -0.895  0.00  0.00     0.036 A 
ATOM     20  C   UNL d   1      21.778 -18.273  -0.862  0.00  0.00     0.102 A 
ATOM     21  C   UNL d   1      22.781 -19.177  -0.497  0.00  0.00     0.036 A 
ATOM     22  C   UNL d   1      24.054 -18.698  -0.178  0.00  0.00     0.010 A 
BRANCH  20  23
ATOM     23  N   UNL d   1      20.459 -18.772  -1.270  0.00  0.00    -0.116 N 
ATOM     24  O   UNL d   1      19.458 -18.200  -0.812  0.00  0.00    -0.532 OA
ATOM     25  O   UNL d   1      20.420 -19.727  -2.058  0.00  0.00    -0.532 OA
ENDBRANCH  20  23
ENDBRANCH  16  17
ENDBRANCH   2  16
TORSDOF 5
ENDMDL
MODEL 3
REMARK VINA RESULT:    -7.694      4.313      7.894
REMARK INTER + INTRA:         -10.023
REMARK INTER:                  -9.186
REMARK INTRA:                  -0.838
REMARK CONF_INDEPENDENT:        1.492
REMARK UNBOUND:                -0.838
REMARK  5 active torsions:
REMARK  status: ('A' for Active; 'I' for Inactive)
REMARK    1  A    between atoms: C_2  and  C_3 
REMARK       I    between atoms: C_2  and  N_13 
REMARK    2  A    between atoms: C_3  and  C_4 
REMARK    3  A    between atoms: C_7  and  N_8 
REMARK    4  A    between atoms: N_13  and  N_14 
REMARK       I    between atoms: N_14  and  C_15 
REMARK    5  A    between atoms: C_15  and  C_17 
ROOT
ATOM      1  O   UNL d   1      30.140 -13.793   0.658  0.00  0.00    -0.272 OA
ATOM      2  C   UNL d   1      28.982 -14.164   0.467  0.00  0.00     0.240 C 
ATOM      3  N   UNL d   1      28.562 -15.371   0.986  0.00  0.00    -0.267 N 
ATOM      4  H   UNL d   1      29.245 -15.915   1.518  0.00  0.00     0.190 HD
ENDROOT
BRANCH   3   5
ATOM      5  N   UNL d   1      27.286 -15.942   0.831  0.00  0.00    -0.263 N 
ATOM      6  C   UNL d   1      26.962 -16.513  -0.391  0.00  0.00     0.270 C 
ATOM      7  O   UNL d   1      27.733 -16.538  -1.353  0.00  0.00    -0.266 OA
ATOM      8  H   UNL d   1      26.674 -16.023   1.633  0.00  0.00     0.190 HD
BRANCH   6   9
ATOM      9  C   UNL d   1      25.599 -17.107  -0.518  0.00  0.00     0.033 A 
ATOM     10  C   UNL d   1      24.519 -16.302  -0.916  0.00  0.00     0.019 A 
ATOM     11  C   UNL d   1      23.213 -16.811  -0.901  0.00  0.00     0.025 A 
ATOM     12  C   UNL d   1      22.990 -18.140  -0.544  0.00  0.00     0.034 A 
ATOM     13 CL   UNL d   1      21.401 -18.796  -0.615  0.00  0.00    -0.084 Cl
ATOM     14  C   UNL d   1      24.056 -18.948  -0.151  0.00  0.00     0.025 A 
ATOM     15  C   UNL d   1      25.359 -18.433  -0.131  0.00  0.00     0.019 A 
ENDBRANCH   6   9
ENDBRANCH   3   5
BRANCH   2  16
ATOM     16  C   UNL d   1      27.975 -13.353  -0.332  0.00  0.00     0.143 C 
BRANCH  16  17
ATOM     17  C   UNL d   1      27.507 -12.069   0.329  0.00  0.00    -0.049 A 
ATOM     18  C   UNL d   1      26.836 -12.098   1.561  0.00  0.00     0.010 A 
ATOM     19  C   UNL d   1      26.299 -10.927   2.104  0.00  0.00     0.036 A 
ATOM     20  C   UNL d   1      26.517  -9.703   1.460  0.00  0.00     0.102 A 
ATOM     21  C   UNL d   1      27.209  -9.653   0.245  0.00  0.00     0.036 A 
ATOM     22  C   UNL d   1      27.695 -10.836  -0.317  0.00  0.00     0.010 A 
BRANCH  20  23
ATOM     23  N   UNL d   1      26.067  -8.457   2.095  0.00  0.00    -0.116 N 
ATOM     24  O   UNL d   1      26.502  -8.196   3.227  0.00  0.00    -0.532 OA
ATOM     25  O   UNL d   1      25.288  -7.732   1.459  0.00  0.00    -0.532 OA
ENDBRANCH  20  23
ENDBRANCH  16  17
ENDBRANCH   2  16
TORSDOF 5
ENDMDL
MODEL 4
REMARK VINA RESULT:    -7.639      3.845      8.022
REMARK INTER + INTRA:         -10.221
REMARK INTER:                  -9.131
REMARK INTRA:                  -1.091
REMARK CONF_INDEPENDENT:        1.492
REMARK UNBOUND:                -1.091
REMARK  5 active torsions:
REMARK  status: ('A' for Active; 'I' for Inactive)
REMARK    1  A    between atoms: C_2  and  C_3 
REMARK       I    between atoms: C_2  and  N_13 
REMARK    2  A    between atoms: C_3  and  C_4 
REMARK    3  A    between atoms: C_7  and  N_8 
REMARK    4  A    between atoms: N_13  and  N_14 
REMARK       I    between atoms: N_14  and  C_15 
REMARK    5  A    between atoms: C_15  and  C_17 
ROOT
ATOM      1  O   UNL d   1      30.050 -14.196   1.378  0.00  0.00    -0.272 OA
ATOM      2  C   UNL d   1      28.910 -14.629   1.547  0.00  0.00     0.240 C 
ATOM      3  N   UNL d   1      28.352 -15.459   0.597  0.00  0.00    -0.267 N 
ATOM      4  H   UNL d   1      28.921 -15.682  -0.222  0.00  0.00     0.190 HD
ENDROOT
BRANCH   3   5
ATOM      5  N   UNL d   1      27.058 -16.009   0.634  0.00  0.00    -0.263 N 
ATOM      6  C   UNL d   1      26.540 -16.555  -0.531  0.00  0.00     0.270 C 
ATOM      7  O   UNL d   1      27.152 -16.576  -1.601  0.00  0.00    -0.266 OA
ATOM      8  H   UNL d   1      26.576 -16.095   1.520  0.00  0.00     0.190 HD
BRANCH   6   9
ATOM      9  C   UNL d   1      25.164 -17.128  -0.454  0.00  0.00     0.033 A 
ATOM     10  C   UNL d   1      24.991 -18.505  -0.238  0.00  0.00     0.019 A 
ATOM     11  C   UNL d   1      23.713 -19.078  -0.306  0.00  0.00     0.025 A 
ATOM     12  C   UNL d   1      22.601 -18.267  -0.530  0.00  0.00     0.034 A 
ATOM     13 CL   UNL d   1      21.022 -18.950  -0.520  0.00  0.00    -0.084 Cl
ATOM     14  C   UNL d   1      22.762 -16.899  -0.741  0.00  0.00     0.025 A 
ATOM     15  C   UNL d   1      24.042 -16.328  -0.709  0.00  0.00     0.019 A 
ENDBRANCH   6   9
ENDBRANCH   3   5
BRANCH   2  16
ATOM     16  C   UNL d   1      28.068 -14.286   2.765  0.00  0.00     0.143 C 
BRANCH  16  17
ATOM     17  C   UNL d   1      27.522 -12.871   2.798  0.00  0.00    -0.049 A 
ATOM     18  C   UNL d   1      26.743 -12.375   1.741  0.00  0.00     0.010 A 
ATOM     19  C   UNL d   1      26.348 -11.035   1.719  0.00  0.00     0.036 A 
ATOM     20  C   UNL d   1      26.650 -10.206   2.806  0.00  0.00     0.102 A 
ATOM     21  C   UNL d   1      27.401 -10.692   3.882  0.00  0.00     0.036 A 
ATOM     22  C   UNL d   1      27.838 -12.019   3.870  0.00  0.00     0.010 A 
BRANCH  20  23
ATOM     23  N   UNL d   1      26.124  -8.835   2.844  0.00  0.00    -0.116 N 
ATOM     24  O   UNL d   1      25.163  -8.566   2.109  0.00  0.00    -0.532 OA
ATOM     25  O   UNL d   1      26.663  -8.030   3.617  0.00  0.00    -0.532 OA
ENDBRANCH  20  23
ENDBRANCH  16  17
ENDBRANCH   2  16
TORSDOF 5
ENDMDL
MODEL 5
REMARK VINA RESULT:    -7.603      5.431      8.594
REMARK INTER + INTRA:         -10.202
REMARK INTER:                  -9.095
REMARK INTRA:                  -1.107
REMARK CONF_INDEPENDENT:        1.492
REMARK UNBOUND:                -1.107
REMARK  5 active torsions:
REMARK  status: ('A' for Active; 'I' for Inactive)
REMARK    1  A    between atoms: C_2  and  C_3 
REMARK       I    between atoms: C_2  and  N_13 
REMARK    2  A    between atoms: C_3  and  C_4 
REMARK    3  A    between atoms: C_7  and  N_8 
REMARK    4  A    between atoms: N_13  and  N_14 
REMARK       I    between atoms: N_14  and  C_15 
REMARK    5  A    between atoms: C_15  and  C_17 
ROOT
ATOM      1  O   UNL d   1      25.867  -9.698  -5.030  0.00  0.00    -0.272 OA
ATOM      2  C   UNL d   1      26.198 -10.549  -4.204  0.00  0.00     0.240 C 
ATOM      3  N   UNL d   1      25.530 -11.756  -4.169  0.00  0.00    -0.267 N 
ATOM      4  H   UNL d   1      24.774 -11.893  -4.844  0.00  0.00     0.190 HD
ENDROOT
BRANCH   3   5
ATOM      5  N   UNL d   1      25.771 -12.812  -3.272  0.00  0.00    -0.263 N 
ATOM      6  C   UNL d   1      25.238 -14.059  -3.562  0.00  0.00     0.270 C 
ATOM      7  O   UNL d   1      24.556 -14.289  -4.562  0.00  0.00    -0.266 OA
ATOM      8  H   UNL d   1      26.410 -12.674  -2.498  0.00  0.00     0.190 HD
BRANCH   6   9
ATOM      9  C   UNL d   1      25.514 -15.153  -2.586  0.00  0.00     0.033 A 
ATOM     10  C   UNL d   1      24.447 -15.857  -2.003  0.00  0.00     0.019 A 
ATOM     11  C   UNL d   1      24.685 -16.787  -0.981  0.00  0.00     0.025 A 
ATOM     12  C   UNL d   1      25.993 -17.058  -0.581  0.00  0.00     0.034 A 
ATOM     13 CL   UNL d   1      26.298 -18.266   0.605  0.00  0.00    -0.084 Cl
ATOM     14  C   UNL d   1      27.059 -16.368  -1.157  0.00  0.00     0.025 A 
ATOM     15  C   UNL d   1      26.823 -15.412  -2.153  0.00  0.00     0.019 A 
ENDBRANCH   6   9
ENDBRANCH   3   5
BRANCH   2  16
ATOM     16  C   UNL d   1      27.318 -10.335  -3.199  0.00  0.00     0.143 C 
BRANCH  16  17
ATOM     17  C   UNL d   1      26.901  -9.685  -1.893  0.00  0.00    -0.049 A 
ATOM     18  C   UNL d   1      26.029  -8.585  -1.883  0.00  0.00     0.010 A 
ATOM     19  C   UNL d   1      25.747  -7.913  -0.690  0.00  0.00     0.036 A 
ATOM     20  C   UNL d   1      26.262  -8.402   0.517  0.00  0.00     0.102 A 
ATOM     21  C   UNL d   1      27.110  -9.515   0.528  0.00  0.00     0.036 A 
ATOM     22  C   UNL d   1      27.429 -10.147  -0.676  0.00  0.00     0.010 A 
BRANCH  20  23
ATOM     23  N   UNL d   1      25.862  -7.777   1.784  0.00  0.00    -0.116 N 
ATOM     24  O   UNL d   1      26.259  -8.300   2.837  0.00  0.00    -0.532 OA
ATOM     25  O   UNL d   1      25.161  -6.757   1.730  0.00  0.00    -0.532 OA
ENDBRANCH  20  23
ENDBRANCH  16  17
ENDBRANCH   2  16
TORSDOF 5
ENDMDL
MODEL 6
REMARK VINA RESULT:    -7.557      4.045      8.001
REMARK INTER + INTRA:         -10.107
REMARK INTER:                  -9.048
REMARK INTRA:                  -1.059
REMARK CONF_INDEPENDENT:        1.492
REMARK UNBOUND:                -1.059
REMARK  5 active torsions:
REMARK  status: ('A' for Active; 'I' for Inactive)
REMARK    1  A    between atoms: C_2  and  C_3 
REMARK       I    between atoms: C_2  and  N_13 
REMARK    2  A    between atoms: C_3  and  C_4 
REMARK    3  A    between atoms: C_7  and  N_8 
REMARK    4  A    between atoms: N_13  and  N_14 
REMARK       I    between atoms: N_14  and  C_15 
REMARK    5  A    between atoms: C_15  and  C_17 
ROOT
ATOM      1  O   UNL d   1      30.381 -13.849   2.141  0.00  0.00    -0.272 OA
ATOM      2  C   UNL d   1      29.240 -14.309   2.093  0.00  0.00     0.240 C 
ATOM      3  N   UNL d   1      28.906 -15.191   1.087  0.00  0.00    -0.267 N 
ATOM      4  H   UNL d   1      29.636 -15.430   0.411  0.00  0.00     0.190 HD
ENDROOT
BRANCH   3   5
ATOM      5  N   UNL d   1      27.644 -15.778   0.882  0.00  0.00    -0.263 N 
ATOM      6  C   UNL d   1      27.318 -16.215  -0.393  0.00  0.00     0.270 C 
ATOM      7  O   UNL d   1      28.075 -16.109  -1.360  0.00  0.00    -0.266 OA
ATOM      8  H   UNL d   1      27.046 -15.967   1.677  0.00  0.00     0.190 HD
BRANCH   6   9
ATOM      9  C   UNL d   1      25.970 -16.830  -0.571  0.00  0.00     0.033 A 
ATOM     10  C   UNL d   1      24.954 -16.113  -1.224  0.00  0.00     0.019 A 
ATOM     11  C   UNL d   1      23.647 -16.618  -1.272  0.00  0.00     0.025 A 
ATOM     12  C   UNL d   1      23.367 -17.867  -0.718  0.00  0.00     0.034 A 
ATOM     13 CL   UNL d   1      21.787 -18.534  -0.857  0.00  0.00    -0.084 Cl
ATOM     14  C   UNL d   1      24.369 -18.588  -0.071  0.00  0.00     0.025 A 
ATOM     15  C   UNL d   1      25.668 -18.070   0.009  0.00  0.00     0.019 A 
ENDBRANCH   6   9
ENDBRANCH   3   5
BRANCH   2  16
ATOM     16  C   UNL d   1      28.159 -13.943   3.096  0.00  0.00     0.143 C 
BRANCH  16  17
ATOM     17  C   UNL d   1      27.627 -12.526   2.990  0.00  0.00    -0.049 A 
ATOM     18  C   UNL d   1      27.016 -12.074   1.810  0.00  0.00     0.010 A 
ATOM     19  C   UNL d   1      26.641 -10.734   1.673  0.00  0.00     0.036 A 
ATOM     20  C   UNL d   1      26.789  -9.861   2.758  0.00  0.00     0.102 A 
ATOM     21  C   UNL d   1      27.371 -10.302   3.951  0.00  0.00     0.036 A 
ATOM     22  C   UNL d   1      27.792 -11.630   4.059  0.00  0.00     0.010 A 
BRANCH  20  23
ATOM     23  N   UNL d   1      26.277  -8.488   2.660  0.00  0.00    -0.116 N 
ATOM     24  O   UNL d   1      25.484  -8.232   1.741  0.00  0.00    -0.532 OA
ATOM     25  O   UNL d   1      26.655  -7.667   3.508  0.00  0.00    -0.532 OA
ENDBRANCH  20  23
ENDBRANCH  16  17
ENDBRANCH   2  16
TORSDOF 5
ENDMDL
MODEL 7
REMARK VINA RESULT:    -7.188      4.377      6.445
REMARK INTER + INTRA:         -10.267
REMARK INTER:                  -8.679
REMARK INTRA:                  -1.588
REMARK CONF_INDEPENDENT:        1.492
REMARK UNBOUND:                -1.588
REMARK  5 active torsions:
REMARK  status: ('A' for Active; 'I' for Inactive)
REMARK    1  A    between atoms: C_2  and  C_3 
REMARK       I    between atoms: C_2  and  N_13 
REMARK    2  A    between atoms: C_3  and  C_4 
REMARK    3  A    between atoms: C_7  and  N_8 
REMARK    4  A    between atoms: N_13  and  N_14 
REMARK       I    between atoms: N_14  and  C_15 
REMARK    5  A    between atoms: C_15  and  C_17 
ROOT
ATOM      1  O   UNL d   1      30.429 -13.848   0.892  0.00  0.00    -0.272 OA
ATOM      2  C   UNL d   1      29.253 -14.103   0.629  0.00  0.00     0.240 C 
ATOM      3  N   UNL d   1      28.718 -15.314   1.017  0.00  0.00    -0.267 N 
ATOM      4  H   UNL d   1      29.335 -15.960   1.516  0.00  0.00     0.190 HD
ENDROOT
BRANCH   3   5
ATOM      5  N   UNL d   1      27.408 -15.761   0.767  0.00  0.00    -0.263 N 
ATOM      6  C   UNL d   1      27.227 -16.813  -0.118  0.00  0.00     0.270 C 
ATOM      7  O   UNL d   1      28.155 -17.373  -0.705  0.00  0.00    -0.266 OA
ATOM      8  H   UNL d   1      26.640 -15.386   1.310  0.00  0.00     0.190 HD
BRANCH   6   9
ATOM      9  C   UNL d   1      25.823 -17.258  -0.358  0.00  0.00     0.033 A 
ATOM     10  C   UNL d   1      24.867 -16.338  -0.820  0.00  0.00     0.019 A 
ATOM     11  C   UNL d   1      23.517 -16.705  -0.913  0.00  0.00     0.025 A 
ATOM     12  C   UNL d   1      23.130 -18.008  -0.601  0.00  0.00     0.034 A 
ATOM     13 CL   UNL d   1      21.491 -18.490  -0.804  0.00  0.00    -0.084 Cl
ATOM     14  C   UNL d   1      24.072 -18.929  -0.145  0.00  0.00     0.025 A 
ATOM     15  C   UNL d   1      25.416 -18.555  -0.017  0.00  0.00     0.019 A 
ENDBRANCH   6   9
ENDBRANCH   3   5
BRANCH   2  16
ATOM     16  C   UNL d   1      28.346 -13.141  -0.120  0.00  0.00     0.143 C 
BRANCH  16  17
ATOM     17  C   UNL d   1      27.826 -13.645  -1.453  0.00  0.00    -0.049 A 
ATOM     18  C   UNL d   1      26.540 -13.304  -1.899  0.00  0.00     0.010 A 
ATOM     19  C   UNL d   1      26.020 -13.871  -3.067  0.00  0.00     0.036 A 
ATOM     20  C   UNL d   1      26.826 -14.710  -3.847  0.00  0.00     0.102 A 
ATOM     21  C   UNL d   1      28.121 -15.037  -3.431  0.00  0.00     0.036 A 
ATOM     22  C   UNL d   1      28.612 -14.508  -2.235  0.00  0.00     0.010 A 
BRANCH  20  23
ATOM     23  N   UNL d   1      26.328 -15.200  -5.138  0.00  0.00    -0.116 N 
ATOM     24  O   UNL d   1      27.114 -15.200  -6.098  0.00  0.00    -0.532 OA
ATOM     25  O   UNL d   1      25.156 -15.598  -5.193  0.00  0.00    -0.532 OA
ENDBRANCH  20  23
ENDBRANCH  16  17
ENDBRANCH   2  16
TORSDOF 5
ENDMDL
MODEL 8
REMARK VINA RESULT:    -6.370      6.134      7.177
REMARK INTER + INTRA:          -8.949
REMARK INTER:                  -7.862
REMARK INTRA:                  -1.087
REMARK CONF_INDEPENDENT:        1.492
REMARK UNBOUND:                -1.087
REMARK  5 active torsions:
REMARK  status: ('A' for Active; 'I' for Inactive)
REMARK    1  A    between atoms: C_2  and  C_3 
REMARK       I    between atoms: C_2  and  N_13 
REMARK    2  A    between atoms: C_3  and  C_4 
REMARK    3  A    between atoms: C_7  and  N_8 
REMARK    4  A    between atoms: N_13  and  N_14 
REMARK       I    between atoms: N_14  and  C_15 
REMARK    5  A    between atoms: C_15  and  C_17 
ROOT
ATOM      1  O   UNL d   1      30.214 -14.045   0.923  0.00  0.00    -0.272 OA
ATOM      2  C   UNL d   1      30.300 -13.600   2.067  0.00  0.00     0.240 C 
ATOM      3  N   UNL d   1      30.152 -14.454   3.141  0.00  0.00    -0.267 N 
ATOM      4  H   UNL d   1      29.974 -15.439   2.934  0.00  0.00     0.190 HD
ENDROOT
BRANCH   3   5
ATOM      5  N   UNL d   1      30.197 -14.094   4.500  0.00  0.00    -0.263 N 
ATOM      6  C   UNL d   1      29.000 -13.848   5.157  0.00  0.00     0.270 C 
ATOM      7  O   UNL d   1      27.899 -13.921   4.609  0.00  0.00    -0.266 OA
ATOM      8  H   UNL d   1      31.079 -14.125   4.997  0.00  0.00     0.190 HD
BRANCH   6   9
ATOM      9  C   UNL d   1      29.088 -13.468   6.597  0.00  0.00     0.033 A 
ATOM     10  C   UNL d   1      30.040 -14.082   7.427  0.00  0.00     0.019 A 
ATOM     11  C   UNL d   1      30.039 -13.841   8.808  0.00  0.00     0.025 A 
ATOM     12  C   UNL d   1      29.125 -12.940   9.353  0.00  0.00     0.034 A 
ATOM     13 CL   UNL d   1      29.181 -12.568  11.032  0.00  0.00    -0.084 Cl
ATOM     14  C   UNL d   1      28.179 -12.322   8.537  0.00  0.00     0.025 A 
ATOM     15  C   UNL d   1      28.154 -12.588   7.162  0.00  0.00     0.019 A 
ENDBRANCH   6   9
ENDBRANCH   3   5
BRANCH   2  16
ATOM     16  C   UNL d   1      30.559 -12.132   2.366  0.00  0.00     0.143 C 
BRANCH  16  17
ATOM     17  C   UNL d   1      29.330 -11.243   2.359  0.00  0.00    -0.049 A 
ATOM     18  C   UNL d   1      29.451  -9.848   2.450  0.00  0.00     0.010 A 
ATOM     19  C   UNL d   1      28.314  -9.043   2.568  0.00  0.00     0.036 A 
ATOM     20  C   UNL d   1      27.043  -9.627   2.496  0.00  0.00     0.102 A 
ATOM     21  C   UNL d   1      26.904 -11.014   2.376  0.00  0.00     0.036 A 
ATOM     22  C   UNL d   1      28.047 -11.814   2.313  0.00  0.00     0.010 A 
BRANCH  20  23
ATOM     23  N   UNL d   1      25.849  -8.771   2.488  0.00  0.00    -0.116 N 
ATOM     24  O   UNL d   1      25.982  -7.592   2.851  0.00  0.00    -0.532 OA
ATOM     25  O   UNL d   1      24.782  -9.270   2.106  0.00  0.00    -0.532 OA
ENDBRANCH  20  23
ENDBRANCH  16  17
ENDBRANCH   2  16
TORSDOF 5
ENDMDL
MODEL 9
REMARK VINA RESULT:    -6.224      4.629      6.302
REMARK INTER + INTRA:          -9.334
REMARK INTER:                  -7.715
REMARK INTRA:                  -1.618
REMARK CONF_INDEPENDENT:        1.492
REMARK UNBOUND:                -1.618
REMARK  5 active torsions:
REMARK  status: ('A' for Active; 'I' for Inactive)
REMARK    1  A    between atoms: C_2  and  C_3 
REMARK       I    between atoms: C_2  and  N_13 
REMARK    2  A    between atoms: C_3  and  C_4 
REMARK    3  A    between atoms: C_7  and  N_8 
REMARK    4  A    between atoms: N_13  and  N_14 
REMARK       I    between atoms: N_14  and  C_15 
REMARK    5  A    between atoms: C_15  and  C_17 
ROOT
ATOM      1  O   UNL d   1      31.542 -15.357  -0.129  0.00  0.00    -0.272 OA
ATOM      2  C   UNL d   1      30.493 -15.821  -0.577  0.00  0.00     0.240 C 
ATOM      3  N   UNL d   1      29.530 -16.287   0.293  0.00  0.00    -0.267 N 
ATOM      4  H   UNL d   1      29.734 -16.225   1.294  0.00  0.00     0.190 HD
ENDROOT
BRANCH   3   5
ATOM      5  N   UNL d   1      28.299 -16.867  -0.063  0.00  0.00    -0.263 N 
ATOM      6  C   UNL d   1      27.133 -16.192   0.264  0.00  0.00     0.270 C 
ATOM      7  O   UNL d   1      27.117 -15.113   0.860  0.00  0.00    -0.266 OA
ATOM      8  H   UNL d   1      28.287 -17.699  -0.640  0.00  0.00     0.190 HD
BRANCH   6   9
ATOM      9  C   UNL d   1      25.847 -16.839  -0.129  0.00  0.00     0.033 A 
ATOM     10  C   UNL d   1      24.804 -16.060  -0.657  0.00  0.00     0.019 A 
ATOM     11  C   UNL d   1      23.545 -16.629  -0.897  0.00  0.00     0.025 A 
ATOM     12  C   UNL d   1      23.343 -17.989  -0.664  0.00  0.00     0.034 A 
ATOM     13 CL   UNL d   1      21.829 -18.712  -1.046  0.00  0.00    -0.084 Cl
ATOM     14  C   UNL d   1      24.373 -18.771  -0.145  0.00  0.00     0.025 A 
ATOM     15  C   UNL d   1      25.622 -18.198   0.129  0.00  0.00     0.019 A 
ENDBRANCH   6   9
ENDBRANCH   3   5
BRANCH   2  16
ATOM     16  C   UNL d   1      30.201 -15.915  -2.066  0.00  0.00     0.143 C 
BRANCH  16  17
ATOM     17  C   UNL d   1      28.926 -15.229  -2.521  0.00  0.00    -0.049 A 
ATOM     18  C   UNL d   1      28.461 -14.073  -1.875  0.00  0.00     0.010 A 
ATOM     19  C   UNL d   1      27.225 -13.518  -2.216  0.00  0.00     0.036 A 
ATOM     20  C   UNL d   1      26.490 -14.064  -3.276  0.00  0.00     0.102 A 
ATOM     21  C   UNL d   1      26.952 -15.200  -3.949  0.00  0.00     0.036 A 
ATOM     22  C   UNL d   1      28.164 -15.780  -3.565  0.00  0.00     0.010 A 
BRANCH  20  23
ATOM     23  N   UNL d   1      25.255 -13.404  -3.720  0.00  0.00    -0.116 N 
ATOM     24  O   UNL d   1      25.155 -12.182  -3.534  0.00  0.00    -0.532 OA
ATOM     25  O   UNL d   1      24.391 -14.103  -4.267  0.00  0.00    -0.532 OA
ENDBRANCH  20  23
ENDBRANCH  16  17
ENDBRANCH   2  16
TORSDOF 5
ENDMDL
