MODEL 1
REMARK VINA RESULT:    -9.818      0.000      0.000
REMARK INTER + INTRA:         -12.905
REMARK INTER:                 -11.310
REMARK INTRA:                  -1.595
REMARK CONF_INDEPENDENT:        1.492
REMARK UNBOUND:                -1.595
REMARK  5 active torsions:
REMARK  status: ('A' for Active; 'I' for Inactive)
REMARK    1  A    between atoms: C_8  and  C_9 
REMARK       I    between atoms: C_9  and  N_11 
REMARK    2  A    between atoms: N_11  and  C_12 
REMARK    3  A    between atoms: C_14  and  S_15 
REMARK    4  A    between atoms: S_15  and  N_18 
REMARK    5  A    between atoms: C_25  and  O_26 
ROOT
ATOM      1  C   UNL d   1      25.367 -15.440  -2.455  0.00  0.00     0.274 C 
ATOM      2  O   UNL d   1      26.090 -16.381  -2.786  0.00  0.00    -0.266 OA
ATOM      3  N   UNL d   1      24.179 -15.556  -1.726  0.00  0.00    -0.319 N 
ATOM      4  H   UNL d   1      23.526 -14.784  -1.749  0.00  0.00     0.169 HD
ENDROOT
BRANCH   3   5
ATOM      5  C   UNL d   1      23.778 -16.790  -1.158  0.00  0.00     0.070 C 
ATOM      6  C   UNL d   1      22.428 -17.214  -1.234  0.00  0.00     0.057 C 
ATOM      7  C   UNL d   1      22.100 -18.516  -0.834  0.00  0.00     0.082 C 
ATOM      8  C   UNL d   1      23.128 -19.341  -0.408  0.00  0.00     0.028 C 
ATOM      9  C   UNL d   1      24.409 -18.888  -0.143  0.00  0.00     0.040 C 
ATOM     10  C   UNL d   1      24.736 -17.610  -0.532  0.00  0.00     0.092 C 
BRANCH   7  11
ATOM     11  S   UNL d   1      20.413 -19.143  -0.915  0.00  0.00     0.260 S 
ATOM     12  O   UNL d   1      19.544 -17.978  -0.895  0.00  0.00    -0.200 OA
ATOM     13  O   UNL d   1      20.386 -20.075  -2.017  0.00  0.00    -0.200 OA
BRANCH  11  14
ATOM     14  N   UNL d   1      20.085 -20.026   0.513  0.00  0.00    -0.307 N 
ATOM     15  C   UNL d   1      19.452 -21.365   0.476  0.00  0.00     0.135 C 
ATOM     16  C   UNL d   1      18.080 -21.156   1.096  0.00  0.00     0.022 C 
ATOM     17  C   UNL d   1      18.330 -20.065   2.145  0.00  0.00     0.022 C 
ATOM     18  C   UNL d   1      19.613 -19.325   1.724  0.00  0.00     0.135 C 
ENDBRANCH  11  14
ENDBRANCH   7  11
BRANCH  10  19
ATOM     19  O   UNL d   1      25.993 -17.142  -0.258  0.00  0.00    -0.358 OA
ATOM     20  H   UNL d   1      26.557 -17.273  -1.037  0.00  0.00     0.217 HD
ENDBRANCH  10  19
ENDBRANCH   3   5
BRANCH   1  21
ATOM     21  C   UNL d   1      25.738 -14.079  -2.956  0.00  0.00     0.127 A 
ATOM     22  C   UNL d   1      25.476 -13.757  -4.286  0.00  0.00     0.038 A 
ATOM     23  C   UNL d   1      25.760 -12.473  -4.734  0.00  0.00     0.023 A 
ATOM     24  C   UNL d   1      26.315 -11.555  -3.843  0.00  0.00     0.079 A 
ATOM     25  C   UNL d   1      26.624 -10.185  -4.268  0.00  0.00     0.265 A 
ATOM     26  C   UNL d   1      26.581 -11.953  -2.542  0.00  0.00     0.150 A 
ATOM     27  N   UNL d   1      27.211  -9.360  -3.324  0.00  0.00    -0.270 N 
ATOM     28  O   UNL d   1      26.354  -9.844  -5.418  0.00  0.00    -0.267 OA
ATOM     29  C   UNL d   1      27.552  -8.000  -3.709  0.00  0.00     0.164 C 
ATOM     30  C   UNL d   1      27.529  -9.749  -2.027  0.00  0.00     0.332 A 
ATOM     31  N   UNL d   1      27.190 -11.043  -1.661  0.00  0.00    -0.287 N 
ATOM     32  O   UNL d   1      28.088  -8.982  -1.240  0.00  0.00    -0.246 OA
ATOM     33  C   UNL d   1      27.543 -11.493  -0.326  0.00  0.00     0.163 C 
ATOM     34  N   UNL d   1      26.286 -13.201  -2.080  0.00  0.00    -0.224 NA
ENDBRANCH   1  21
TORSDOF 5
ENDMDL
MODEL 2
REMARK VINA RESULT:    -8.958      5.542      7.666
REMARK INTER + INTRA:         -11.548
REMARK INTER:                 -10.449
REMARK INTRA:                  -1.099
REMARK CONF_INDEPENDENT:        1.492
REMARK UNBOUND:                -1.099
REMARK  5 active torsions:
REMARK  status: ('A' for Active; 'I' for Inactive)
REMARK    1  A    between atoms: C_8  and  C_9 
REMARK       I    between atoms: C_9  and  N_11 
REMARK    2  A    between atoms: N_11  and  C_12 
REMARK    3  A    between atoms: C_14  and  S_15 
REMARK    4  A    between atoms: S_15  and  N_18 
REMARK    5  A    between atoms: C_25  and  O_26 
ROOT
ATOM      1  C   UNL d   1      27.544 -14.120   2.465  0.00  0.00     0.274 C 
ATOM      2  O   UNL d   1      26.727 -13.416   1.870  0.00  0.00    -0.266 OA
ATOM      3  N   UNL d   1      28.086 -15.314   1.976  0.00  0.00    -0.319 N 
ATOM      4  H   UNL d   1      28.515 -15.950   2.635  0.00  0.00     0.169 HD
ENDROOT
BRANCH   3   5
ATOM      5  C   UNL d   1      27.847 -15.743   0.648  0.00  0.00     0.070 C 
ATOM      6  C   UNL d   1      26.524 -15.924   0.175  0.00  0.00     0.057 C 
ATOM      7  C   UNL d   1      26.315 -16.165  -1.189  0.00  0.00     0.082 C 
ATOM      8  C   UNL d   1      27.424 -16.185  -2.020  0.00  0.00     0.028 C 
ATOM      9  C   UNL d   1      28.727 -16.207  -1.553  0.00  0.00     0.040 C 
ATOM     10  C   UNL d   1      28.937 -15.973  -0.214  0.00  0.00     0.092 C 
BRANCH   7  11
ATOM     11  S   UNL d   1      24.666 -16.387  -1.879  0.00  0.00     0.260 S 
ATOM     12  O   UNL d   1      24.201 -15.062  -2.257  0.00  0.00    -0.200 OA
ATOM     13  O   UNL d   1      24.780 -17.444  -2.856  0.00  0.00    -0.200 OA
BRANCH  11  14
ATOM     14  N   UNL d   1      23.621 -16.941  -0.643  0.00  0.00    -0.307 N 
ATOM     15  C   UNL d   1      23.978 -18.083   0.229  0.00  0.00     0.135 C 
ATOM     16  C   UNL d   1      22.999 -19.179  -0.158  0.00  0.00     0.022 C 
ATOM     17  C   UNL d   1      21.727 -18.403  -0.520  0.00  0.00     0.022 C 
ATOM     18  C   UNL d   1      22.161 -16.968  -0.865  0.00  0.00     0.135 C 
ENDBRANCH  11  14
ENDBRANCH   7  11
BRANCH  10  19
ATOM     19  O   UNL d   1      30.218 -16.012   0.266  0.00  0.00    -0.358 OA
ATOM     20  H   UNL d   1      30.202 -16.315   1.188  0.00  0.00     0.217 HD
ENDBRANCH  10  19
ENDBRANCH   3   5
BRANCH   1  21
ATOM     21  C   UNL d   1      27.911 -13.718   3.860  0.00  0.00     0.127 A 
ATOM     22  C   UNL d   1      28.127 -14.712   4.812  0.00  0.00     0.038 A 
ATOM     23  C   UNL d   1      28.531 -14.342   6.088  0.00  0.00     0.023 A 
ATOM     24  C   UNL d   1      28.688 -12.987   6.380  0.00  0.00     0.079 A 
ATOM     25  C   UNL d   1      29.121 -12.548   7.712  0.00  0.00     0.265 A 
ATOM     26  C   UNL d   1      28.424 -12.049   5.394  0.00  0.00     0.150 A 
ATOM     27  N   UNL d   1      29.208 -11.182   7.917  0.00  0.00    -0.270 N 
ATOM     28  O   UNL d   1      29.377 -13.398   8.563  0.00  0.00    -0.267 OA
ATOM     29  C   UNL d   1      29.615 -10.704   9.229  0.00  0.00     0.164 C 
ATOM     30  C   UNL d   1      28.905 -10.222   6.959  0.00  0.00     0.332 A 
ATOM     31  N   UNL d   1      28.530 -10.683   5.706  0.00  0.00    -0.287 N 
ATOM     32  O   UNL d   1      28.963  -9.016   7.211  0.00  0.00    -0.246 OA
ATOM     33  C   UNL d   1      28.170  -9.706   4.694  0.00  0.00     0.163 C 
ATOM     34  N   UNL d   1      28.050 -12.396   4.130  0.00  0.00    -0.224 NA
ENDBRANCH   1  21
TORSDOF 5
ENDMDL
MODEL 3
REMARK VINA RESULT:    -8.224      5.490      7.524
REMARK INTER + INTRA:         -11.217
REMARK INTER:                  -9.716
REMARK INTRA:                  -1.501
REMARK CONF_INDEPENDENT:        1.492
REMARK UNBOUND:                -1.501
REMARK  5 active torsions:
REMARK  status: ('A' for Active; 'I' for Inactive)
REMARK    1  A    between atoms: C_8  and  C_9 
REMARK       I    between atoms: C_9  and  N_11 
REMARK    2  A    between atoms: N_11  and  C_12 
REMARK    3  A    between atoms: C_14  and  S_15 
REMARK    4  A    between atoms: S_15  and  N_18 
REMARK    5  A    between atoms: C_25  and  O_26 
ROOT
ATOM      1  C   UNL d   1      27.510 -13.519   2.018  0.00  0.00     0.274 C 
ATOM      2  O   UNL d   1      26.651 -13.013   1.295  0.00  0.00    -0.266 OA
ATOM      3  N   UNL d   1      28.083 -14.781   1.825  0.00  0.00    -0.319 N 
ATOM      4  H   UNL d   1      28.555 -15.217   2.607  0.00  0.00     0.169 HD
ENDROOT
BRANCH   3   5
ATOM      5  C   UNL d   1      27.823 -15.539   0.658  0.00  0.00     0.070 C 
ATOM      6  C   UNL d   1      26.502 -15.677   0.166  0.00  0.00     0.057 C 
ATOM      7  C   UNL d   1      26.299 -16.271  -1.086  0.00  0.00     0.082 C 
ATOM      8  C   UNL d   1      27.418 -16.670  -1.802  0.00  0.00     0.028 C 
ATOM      9  C   UNL d   1      28.690 -16.725  -1.259  0.00  0.00     0.040 C 
ATOM     10  C   UNL d   1      28.893 -16.145  -0.029  0.00  0.00     0.092 C 
BRANCH   7  11
ATOM     11  S   UNL d   1      24.656 -16.467  -1.797  0.00  0.00     0.260 S 
ATOM     12  O   UNL d   1      24.173 -15.126  -2.081  0.00  0.00    -0.200 OA
ATOM     13  O   UNL d   1      24.789 -17.450  -2.846  0.00  0.00    -0.200 OA
BRANCH  11  14
ATOM     14  N   UNL d   1      23.616 -17.123  -0.607  0.00  0.00    -0.307 N 
ATOM     15  C   UNL d   1      23.870 -18.444   0.011  0.00  0.00     0.135 C 
ATOM     16  C   UNL d   1      22.739 -19.325  -0.495  0.00  0.00     0.022 C 
ATOM     17  C   UNL d   1      21.559 -18.352  -0.611  0.00  0.00     0.022 C 
ATOM     18  C   UNL d   1      22.155 -16.937  -0.719  0.00  0.00     0.135 C 
ENDBRANCH  11  14
ENDBRANCH   7  11
BRANCH  10  19
ATOM     19  O   UNL d   1      30.142 -16.209   0.529  0.00  0.00    -0.358 OA
ATOM     20  H   UNL d   1      30.094 -16.717   1.354  0.00  0.00     0.217 HD
ENDBRANCH  10  19
ENDBRANCH   3   5
BRANCH   1  21
ATOM     21  C   UNL d   1      27.901 -12.766   3.252  0.00  0.00     0.127 A 
ATOM     22  C   UNL d   1      27.593 -11.411   3.338  0.00  0.00     0.038 A 
ATOM     23  C   UNL d   1      27.896 -10.727   4.509  0.00  0.00     0.023 A 
ATOM     24  C   UNL d   1      28.516 -11.416   5.551  0.00  0.00     0.079 A 
ATOM     25  C   UNL d   1      28.849 -10.739   6.810  0.00  0.00     0.265 A 
ATOM     26  C   UNL d   1      28.825 -12.758   5.384  0.00  0.00     0.150 A 
ATOM     27  N   UNL d   1      29.501 -11.496   7.768  0.00  0.00    -0.270 N 
ATOM     28  O   UNL d   1      28.541  -9.557   6.947  0.00  0.00    -0.267 OA
ATOM     29  C   UNL d   1      29.866 -10.858   9.023  0.00  0.00     0.164 C 
ATOM     30  C   UNL d   1      29.861 -12.829   7.607  0.00  0.00     0.332 A 
ATOM     31  N   UNL d   1      29.499 -13.435   6.415  0.00  0.00    -0.287 N 
ATOM     32  O   UNL d   1      30.477 -13.442   8.482  0.00  0.00    -0.246 OA
ATOM     33  C   UNL d   1      29.894 -14.816   6.199  0.00  0.00     0.163 C 
ATOM     34  N   UNL d   1      28.513 -13.448   4.252  0.00  0.00    -0.224 NA
ENDBRANCH   1  21
TORSDOF 5
ENDMDL
MODEL 4
REMARK VINA RESULT:    -8.196      5.422      8.786
REMARK INTER + INTRA:         -10.952
REMARK INTER:                  -9.687
REMARK INTRA:                  -1.264
REMARK CONF_INDEPENDENT:        1.492
REMARK UNBOUND:                -1.264
REMARK  5 active torsions:
REMARK  status: ('A' for Active; 'I' for Inactive)
REMARK    1  A    between atoms: C_8  and  C_9 
REMARK       I    between atoms: C_9  and  N_11 
REMARK    2  A    between atoms: N_11  and  C_12 
REMARK    3  A    between atoms: C_14  and  S_15 
REMARK    4  A    between atoms: S_15  and  N_18 
REMARK    5  A    between atoms: C_25  and  O_26 
ROOT
ATOM      1  C   UNL d   1      27.621 -14.316   1.986  0.00  0.00     0.274 C 
ATOM      2  O   UNL d   1      26.677 -13.710   1.480  0.00  0.00    -0.266 OA
ATOM      3  N   UNL d   1      28.352 -15.334   1.363  0.00  0.00    -0.319 N 
ATOM      4  H   UNL d   1      28.905 -15.950   1.944  0.00  0.00     0.169 HD
ENDROOT
BRANCH   3   5
ATOM      5  C   UNL d   1      28.156 -15.654  -0.001  0.00  0.00     0.070 C 
ATOM      6  C   UNL d   1      26.968 -15.267  -0.670  0.00  0.00     0.057 C 
ATOM      7  C   UNL d   1      26.884 -15.430  -2.059  0.00  0.00     0.082 C 
ATOM      8  C   UNL d   1      27.991 -15.941  -2.719  0.00  0.00     0.028 C 
ATOM      9  C   UNL d   1      29.075 -16.503  -2.067  0.00  0.00     0.040 C 
ATOM     10  C   UNL d   1      29.161 -16.347  -0.704  0.00  0.00     0.092 C 
BRANCH   7  11
ATOM     11  S   UNL d   1      25.420 -14.947  -2.991  0.00  0.00     0.260 S 
ATOM     12  O   UNL d   1      25.532 -15.596  -4.288  0.00  0.00    -0.200 OA
ATOM     13  O   UNL d   1      24.293 -15.200  -2.126  0.00  0.00    -0.200 OA
BRANCH  11  14
ATOM     14  N   UNL d   1      25.481 -13.262  -3.278  0.00  0.00    -0.307 N 
ATOM     15  C   UNL d   1      25.531 -12.703  -4.648  0.00  0.00     0.135 C 
ATOM     16  C   UNL d   1      26.917 -12.089  -4.759  0.00  0.00     0.022 C 
ATOM     17  C   UNL d   1      27.196 -11.589  -3.336  0.00  0.00     0.022 C 
ATOM     18  C   UNL d   1      26.280 -12.390  -2.393  0.00  0.00     0.135 C 
ENDBRANCH  11  14
ENDBRANCH   7  11
BRANCH  10  19
ATOM     19  O   UNL d   1      30.216 -16.916  -0.043  0.00  0.00    -0.358 OA
ATOM     20  H   UNL d   1      29.878 -17.554   0.605  0.00  0.00     0.217 HD
ENDBRANCH  10  19
ENDBRANCH   3   5
BRANCH   1  21
ATOM     21  C   UNL d   1      27.951 -14.007   3.414  0.00  0.00     0.127 A 
ATOM     22  C   UNL d   1      28.153 -15.061   4.301  0.00  0.00     0.038 A 
ATOM     23  C   UNL d   1      28.522 -14.776   5.610  0.00  0.00     0.023 A 
ATOM     24  C   UNL d   1      28.660 -13.443   5.996  0.00  0.00     0.079 A 
ATOM     25  C   UNL d   1      29.056 -13.092   7.365  0.00  0.00     0.265 A 
ATOM     26  C   UNL d   1      28.410 -12.442   5.070  0.00  0.00     0.150 A 
ATOM     27  N   UNL d   1      29.125 -11.743   7.664  0.00  0.00    -0.270 N 
ATOM     28  O   UNL d   1      29.300 -13.995   8.163  0.00  0.00    -0.267 OA
ATOM     29  C   UNL d   1      29.496 -11.351   9.015  0.00  0.00     0.164 C 
ATOM     30  C   UNL d   1      28.836 -10.721   6.766  0.00  0.00     0.332 A 
ATOM     31  N   UNL d   1      28.497 -11.099   5.477  0.00  0.00    -0.287 N 
ATOM     32  O   UNL d   1      28.877  -9.535   7.101  0.00  0.00    -0.246 OA
ATOM     33  C   UNL d   1      28.152 -10.058   4.524  0.00  0.00     0.163 C 
ATOM     34  N   UNL d   1      28.071 -12.706   3.776  0.00  0.00    -0.224 NA
ENDBRANCH   1  21
TORSDOF 5
ENDMDL
MODEL 5
REMARK VINA RESULT:    -7.852      6.312      8.667
REMARK INTER + INTRA:         -10.946
REMARK INTER:                  -9.344
REMARK INTRA:                  -1.602
REMARK CONF_INDEPENDENT:        1.492
REMARK UNBOUND:                -1.602
REMARK  5 active torsions:
REMARK  status: ('A' for Active; 'I' for Inactive)
REMARK    1  A    between atoms: C_8  and  C_9 
REMARK       I    between atoms: C_9  and  N_11 
REMARK    2  A    between atoms: N_11  and  C_12 
REMARK    3  A    between atoms: C_14  and  S_15 
REMARK    4  A    between atoms: S_15  and  N_18 
REMARK    5  A    between atoms: C_25  and  O_26 
ROOT
ATOM      1  C   UNL d   1      27.714 -13.317   3.448  0.00  0.00     0.274 C 
ATOM      2  O   UNL d   1      26.930 -12.429   3.112  0.00  0.00    -0.266 OA
ATOM      3  N   UNL d   1      28.086 -14.407   2.653  0.00  0.00    -0.319 N 
ATOM      4  H   UNL d   1      28.498 -15.212   3.107  0.00  0.00     0.169 HD
ENDROOT
BRANCH   3   5
ATOM      5  C   UNL d   1      27.695 -14.498   1.296  0.00  0.00     0.070 C 
ATOM      6  C   UNL d   1      27.029 -15.651   0.812  0.00  0.00     0.057 C 
ATOM      7  C   UNL d   1      26.490 -15.635  -0.481  0.00  0.00     0.082 C 
ATOM      8  C   UNL d   1      26.611 -14.467  -1.218  0.00  0.00     0.028 C 
ATOM      9  C   UNL d   1      27.422 -13.409  -0.843  0.00  0.00     0.040 C 
ATOM     10  C   UNL d   1      27.955 -13.422   0.425  0.00  0.00     0.092 C 
BRANCH   7  11
ATOM     11  S   UNL d   1      25.611 -17.048  -1.168  0.00  0.00     0.260 S 
ATOM     12  O   UNL d   1      25.255 -16.683  -2.530  0.00  0.00    -0.200 OA
ATOM     13  O   UNL d   1      26.435 -18.202  -0.897  0.00  0.00    -0.200 OA
BRANCH  11  14
ATOM     14  N   UNL d   1      24.143 -17.253  -0.315  0.00  0.00    -0.307 N 
ATOM     15  C   UNL d   1      23.779 -18.542   0.316  0.00  0.00     0.135 C 
ATOM     16  C   UNL d   1      22.593 -19.041  -0.494  0.00  0.00     0.022 C 
ATOM     17  C   UNL d   1      21.872 -17.748  -0.895  0.00  0.00     0.022 C 
ATOM     18  C   UNL d   1      22.906 -16.612  -0.806  0.00  0.00     0.135 C 
ENDBRANCH  11  14
ENDBRANCH   7  11
BRANCH  10  19
ATOM     19  O   UNL d   1      28.775 -12.393   0.803  0.00  0.00    -0.358 OA
ATOM     20  H   UNL d   1      28.581 -12.155   1.724  0.00  0.00     0.217 HD
ENDBRANCH  10  19
ENDBRANCH   3   5
BRANCH   1  21
ATOM     21  C   UNL d   1      28.234 -13.280   4.852  0.00  0.00     0.127 A 
ATOM     22  C   UNL d   1      28.447 -14.482   5.523  0.00  0.00     0.038 A 
ATOM     23  C   UNL d   1      28.991 -14.450   6.801  0.00  0.00     0.023 A 
ATOM     24  C   UNL d   1      29.288 -13.215   7.377  0.00  0.00     0.079 A 
ATOM     25  C   UNL d   1      29.871 -13.131   8.721  0.00  0.00     0.265 A 
ATOM     26  C   UNL d   1      29.019 -12.056   6.665  0.00  0.00     0.150 A 
ATOM     27  N   UNL d   1      30.091 -11.860   9.223  0.00  0.00    -0.270 N 
ATOM     28  O   UNL d   1      30.127 -14.172   9.323  0.00  0.00    -0.267 OA
ATOM     29  C   UNL d   1      30.650 -11.732  10.560  0.00  0.00     0.164 C 
ATOM     30  C   UNL d   1      29.788 -10.683   8.548  0.00  0.00     0.332 A 
ATOM     31  N   UNL d   1      29.268 -10.811   7.269  0.00  0.00    -0.287 N 
ATOM     32  O   UNL d   1      29.970  -9.577   9.062  0.00  0.00    -0.246 OA
ATOM     33  C   UNL d   1      28.906  -9.602   6.551  0.00  0.00     0.163 C 
ATOM     34  N   UNL d   1      28.508 -12.071   5.401  0.00  0.00    -0.224 NA
ENDBRANCH   1  21
TORSDOF 5
ENDMDL
MODEL 6
REMARK VINA RESULT:    -7.724      4.592      6.729
REMARK INTER + INTRA:         -11.238
REMARK INTER:                  -9.215
REMARK INTRA:                  -2.023
REMARK CONF_INDEPENDENT:        1.492
REMARK UNBOUND:                -2.023
REMARK  5 active torsions:
REMARK  status: ('A' for Active; 'I' for Inactive)
REMARK    1  A    between atoms: C_8  and  C_9 
REMARK       I    between atoms: C_9  and  N_11 
REMARK    2  A    between atoms: N_11  and  C_12 
REMARK    3  A    between atoms: C_14  and  S_15 
REMARK    4  A    between atoms: S_15  and  N_18 
REMARK    5  A    between atoms: C_25  and  O_26 
ROOT
ATOM      1  C   UNL d   1      27.962 -13.927   2.793  0.00  0.00     0.274 C 
ATOM      2  O   UNL d   1      28.155 -15.019   3.328  0.00  0.00    -0.266 OA
ATOM      3  N   UNL d   1      27.723 -13.730   1.428  0.00  0.00    -0.319 N 
ATOM      4  H   UNL d   1      27.857 -12.803   1.047  0.00  0.00     0.169 HD
ENDROOT
BRANCH   3   5
ATOM      5  C   UNL d   1      27.526 -14.822   0.548  0.00  0.00     0.070 C 
ATOM      6  C   UNL d   1      26.252 -15.069  -0.020  0.00  0.00     0.057 C 
ATOM      7  C   UNL d   1      26.131 -16.036  -1.028  0.00  0.00     0.082 C 
ATOM      8  C   UNL d   1      27.283 -16.685  -1.443  0.00  0.00     0.028 C 
ATOM      9  C   UNL d   1      28.491 -16.600  -0.770  0.00  0.00     0.040 C 
ATOM     10  C   UNL d   1      28.613 -15.655   0.221  0.00  0.00     0.092 C 
BRANCH   7  11
ATOM     11  S   UNL d   1      24.554 -16.400  -1.819  0.00  0.00     0.260 S 
ATOM     12  O   UNL d   1      24.006 -15.122  -2.240  0.00  0.00    -0.200 OA
ATOM     13  O   UNL d   1      24.820 -17.449  -2.774  0.00  0.00    -0.200 OA
BRANCH  11  14
ATOM     14  N   UNL d   1      23.483 -17.033  -0.645  0.00  0.00    -0.307 N 
ATOM     15  C   UNL d   1      23.814 -18.239   0.146  0.00  0.00     0.135 C 
ATOM     16  C   UNL d   1      22.833 -19.294  -0.338  0.00  0.00     0.022 C 
ATOM     17  C   UNL d   1      21.574 -18.481  -0.664  0.00  0.00     0.022 C 
ATOM     18  C   UNL d   1      22.027 -17.029  -0.895  0.00  0.00     0.135 C 
ENDBRANCH  11  14
ENDBRANCH   7  11
BRANCH  10  19
ATOM     19  O   UNL d   1      29.794 -15.573   0.908  0.00  0.00    -0.358 OA
ATOM     20  H   UNL d   1      29.612 -15.636   1.859  0.00  0.00     0.217 HD
ENDBRANCH  10  19
ENDBRANCH   3   5
BRANCH   1  21
ATOM     21  C   UNL d   1      28.088 -12.707   3.652  0.00  0.00     0.127 A 
ATOM     22  C   UNL d   1      28.678 -12.828   4.908  0.00  0.00     0.038 A 
ATOM     23  C   UNL d   1      28.855 -11.686   5.679  0.00  0.00     0.023 A 
ATOM     24  C   UNL d   1      28.420 -10.460   5.178  0.00  0.00     0.079 A 
ATOM     25  C   UNL d   1      28.592  -9.225   5.952  0.00  0.00     0.265 A 
ATOM     26  C   UNL d   1      27.810 -10.417   3.934  0.00  0.00     0.150 A 
ATOM     27  N   UNL d   1      28.090  -8.065   5.390  0.00  0.00    -0.270 N 
ATOM     28  O   UNL d   1      29.160  -9.282   7.041  0.00  0.00    -0.267 OA
ATOM     29  C   UNL d   1      28.223  -6.821   6.132  0.00  0.00     0.164 C 
ATOM     30  C   UNL d   1      27.435  -8.003   4.165  0.00  0.00     0.332 A 
ATOM     31  N   UNL d   1      27.323  -9.189   3.455  0.00  0.00    -0.287 N 
ATOM     32  O   UNL d   1      26.973  -6.946   3.730  0.00  0.00    -0.246 OA
ATOM     33  C   UNL d   1      26.610  -9.167   2.189  0.00  0.00     0.163 C 
ATOM     34  N   UNL d   1      27.650 -11.524   3.155  0.00  0.00    -0.224 NA
ENDBRANCH   1  21
TORSDOF 5
ENDMDL
MODEL 7
REMARK VINA RESULT:    -7.583      5.070      8.551
REMARK INTER + INTRA:         -10.694
REMARK INTER:                  -9.074
REMARK INTRA:                  -1.620
REMARK CONF_INDEPENDENT:        1.492
REMARK UNBOUND:                -1.620
REMARK  5 active torsions:
REMARK  status: ('A' for Active; 'I' for Inactive)
REMARK    1  A    between atoms: C_8  and  C_9 
REMARK       I    between atoms: C_9  and  N_11 
REMARK    2  A    between atoms: N_11  and  C_12 
REMARK    3  A    between atoms: C_14  and  S_15 
REMARK    4  A    between atoms: S_15  and  N_18 
REMARK    5  A    between atoms: C_25  and  O_26 
ROOT
ATOM      1  C   UNL d   1      26.873 -13.321   1.438  0.00  0.00     0.274 C 
ATOM      2  O   UNL d   1      26.283 -12.588   0.644  0.00  0.00    -0.266 OA
ATOM      3  N   UNL d   1      27.029 -14.704   1.295  0.00  0.00    -0.319 N 
ATOM      4  H   UNL d   1      27.270 -15.246   2.115  0.00  0.00     0.169 HD
ENDROOT
BRANCH   3   5
ATOM      5  C   UNL d   1      26.639 -15.373   0.110  0.00  0.00     0.070 C 
ATOM      6  C   UNL d   1      26.147 -14.644  -1.001  0.00  0.00     0.057 C 
ATOM      7  C   UNL d   1      25.949 -15.308  -2.218  0.00  0.00     0.082 C 
ATOM      8  C   UNL d   1      26.279 -16.653  -2.283  0.00  0.00     0.028 C 
ATOM      9  C   UNL d   1      26.571 -17.421  -1.168  0.00  0.00     0.040 C 
ATOM     10  C   UNL d   1      26.764 -16.773   0.029  0.00  0.00     0.092 C 
BRANCH   7  11
ATOM     11  S   UNL d   1      25.345 -14.456  -3.686  0.00  0.00     0.260 S 
ATOM     12  O   UNL d   1      25.658 -15.317  -4.814  0.00  0.00    -0.200 OA
ATOM     13  O   UNL d   1      23.984 -14.074  -3.394  0.00  0.00    -0.200 OA
BRANCH  11  14
ATOM     14  N   UNL d   1      26.248 -13.018  -3.899  0.00  0.00    -0.307 N 
ATOM     15  C   UNL d   1      26.267 -11.948  -2.876  0.00  0.00     0.135 C 
ATOM     16  C   UNL d   1      25.536 -10.785  -3.527  0.00  0.00     0.022 C 
ATOM     17  C   UNL d   1      25.906 -10.923  -5.009  0.00  0.00     0.022 C 
ATOM     18  C   UNL d   1      26.328 -12.386  -5.231  0.00  0.00     0.135 C 
ENDBRANCH  11  14
ENDBRANCH   7  11
BRANCH  10  19
ATOM     19  O   UNL d   1      27.033 -17.521   1.144  0.00  0.00    -0.358 OA
ATOM     20  H   UNL d   1      27.833 -18.048   0.986  0.00  0.00     0.217 HD
ENDBRANCH  10  19
ENDBRANCH   3   5
BRANCH   1  21
ATOM     21  C   UNL d   1      27.378 -12.698   2.703  0.00  0.00     0.127 A 
ATOM     22  C   UNL d   1      27.456 -11.310   2.784  0.00  0.00     0.038 A 
ATOM     23  C   UNL d   1      27.862 -10.729   3.979  0.00  0.00     0.023 A 
ATOM     24  C   UNL d   1      28.198 -11.556   5.050  0.00  0.00     0.079 A 
ATOM     25  C   UNL d   1      28.625 -10.988   6.335  0.00  0.00     0.265 A 
ATOM     26  C   UNL d   1      28.131 -12.931   4.889  0.00  0.00     0.150 A 
ATOM     27  N   UNL d   1      28.978 -11.890   7.324  0.00  0.00    -0.270 N 
ATOM     28  O   UNL d   1      28.651  -9.766   6.465  0.00  0.00    -0.267 OA
ATOM     29  C   UNL d   1      29.425 -11.370   8.607  0.00  0.00     0.164 C 
ATOM     30  C   UNL d   1      28.962 -13.272   7.173  0.00  0.00     0.332 A 
ATOM     31  N   UNL d   1      28.522 -13.762   5.953  0.00  0.00    -0.287 N 
ATOM     32  O   UNL d   1      29.325 -14.026   8.078  0.00  0.00    -0.246 OA
ATOM     33  C   UNL d   1      28.529 -15.200   5.748  0.00  0.00     0.163 C 
ATOM     34  N   UNL d   1      27.711 -13.516   3.732  0.00  0.00    -0.224 NA
ENDBRANCH   1  21
TORSDOF 5
ENDMDL
MODEL 8
REMARK VINA RESULT:    -7.490      5.176      8.313
REMARK INTER + INTRA:         -10.800
REMARK INTER:                  -8.981
REMARK INTRA:                  -1.819
REMARK CONF_INDEPENDENT:        1.492
REMARK UNBOUND:                -1.819
REMARK  5 active torsions:
REMARK  status: ('A' for Active; 'I' for Inactive)
REMARK    1  A    between atoms: C_8  and  C_9 
REMARK       I    between atoms: C_9  and  N_11 
REMARK    2  A    between atoms: N_11  and  C_12 
REMARK    3  A    between atoms: C_14  and  S_15 
REMARK    4  A    between atoms: S_15  and  N_18 
REMARK    5  A    between atoms: C_25  and  O_26 
ROOT
ATOM      1  C   UNL d   1      27.675 -13.763   1.720  0.00  0.00     0.274 C 
ATOM      2  O   UNL d   1      27.694 -14.890   1.223  0.00  0.00    -0.266 OA
ATOM      3  N   UNL d   1      27.534 -12.570   1.004  0.00  0.00    -0.319 N 
ATOM      4  H   UNL d   1      27.810 -11.706   1.453  0.00  0.00     0.169 HD
ENDROOT
BRANCH   3   5
ATOM      5  C   UNL d   1      27.238 -12.569  -0.381  0.00  0.00     0.070 C 
ATOM      6  C   UNL d   1      26.479 -13.618  -0.957  0.00  0.00     0.057 C 
ATOM      7  C   UNL d   1      26.044 -13.496  -2.283  0.00  0.00     0.082 C 
ATOM      8  C   UNL d   1      26.357 -12.328  -2.961  0.00  0.00     0.028 C 
ATOM      9  C   UNL d   1      27.256 -11.388  -2.487  0.00  0.00     0.040 C 
ATOM     10  C   UNL d   1      27.687 -11.505  -1.187  0.00  0.00     0.092 C 
BRANCH   7  11
ATOM     11  S   UNL d   1      25.059 -14.771  -3.088  0.00  0.00     0.260 S 
ATOM     12  O   UNL d   1      23.672 -14.474  -2.770  0.00  0.00    -0.200 OA
ATOM     13  O   UNL d   1      25.516 -14.825  -4.456  0.00  0.00    -0.200 OA
BRANCH  11  14
ATOM     14  N   UNL d   1      25.416 -16.280  -2.366  0.00  0.00    -0.307 N 
ATOM     15  C   UNL d   1      24.406 -17.033  -1.588  0.00  0.00     0.135 C 
ATOM     16  C   UNL d   1      24.918 -16.991  -0.157  0.00  0.00     0.022 C 
ATOM     17  C   UNL d   1      26.442 -17.011  -0.328  0.00  0.00     0.022 C 
ATOM     18  C   UNL d   1      26.739 -16.512  -1.753  0.00  0.00     0.135 C 
ENDBRANCH  11  14
ENDBRANCH   7  11
BRANCH  10  19
ATOM     19  O   UNL d   1      28.591 -10.595  -0.711  0.00  0.00    -0.358 OA
ATOM     20  H   UNL d   1      29.474 -10.999  -0.702  0.00  0.00     0.217 HD
ENDBRANCH  10  19
ENDBRANCH   3   5
BRANCH   1  21
ATOM     21  C   UNL d   1      27.919 -13.658   3.193  0.00  0.00     0.127 A 
ATOM     22  C   UNL d   1      27.972 -14.825   3.951  0.00  0.00     0.038 A 
ATOM     23  C   UNL d   1      28.264 -14.732   5.307  0.00  0.00     0.023 A 
ATOM     24  C   UNL d   1      28.474 -13.472   5.866  0.00  0.00     0.079 A 
ATOM     25  C   UNL d   1      28.792 -13.325   7.292  0.00  0.00     0.265 A 
ATOM     26  C   UNL d   1      28.371 -12.349   5.060  0.00  0.00     0.150 A 
ATOM     27  N   UNL d   1      28.941 -12.032   7.763  0.00  0.00    -0.270 N 
ATOM     28  O   UNL d   1      28.905 -14.335   7.983  0.00  0.00    -0.267 OA
ATOM     29  C   UNL d   1      29.238 -11.840   9.174  0.00  0.00     0.164 C 
ATOM     30  C   UNL d   1      28.799 -10.889   6.985  0.00  0.00     0.332 A 
ATOM     31  N   UNL d   1      28.529 -11.078   5.638  0.00  0.00    -0.287 N 
ATOM     32  O   UNL d   1      28.905  -9.759   7.468  0.00  0.00    -0.246 OA
ATOM     33  C   UNL d   1      28.337  -9.904   4.805  0.00  0.00     0.163 C 
ATOM     34  N   UNL d   1      28.111 -12.425   3.724  0.00  0.00    -0.224 NA
ENDBRANCH   1  21
TORSDOF 5
ENDMDL
MODEL 9
REMARK VINA RESULT:    -6.891      4.966      8.437
REMARK INTER + INTRA:         -10.475
REMARK INTER:                  -8.383
REMARK INTRA:                  -2.093
REMARK CONF_INDEPENDENT:        1.492
REMARK UNBOUND:                -2.093
REMARK  5 active torsions:
REMARK  status: ('A' for Active; 'I' for Inactive)
REMARK    1  A    between atoms: C_8  and  C_9 
REMARK       I    between atoms: C_9  and  N_11 
REMARK    2  A    between atoms: N_11  and  C_12 
REMARK    3  A    between atoms: C_14  and  S_15 
REMARK    4  A    between atoms: S_15  and  N_18 
REMARK    5  A    between atoms: C_25  and  O_26 
ROOT
ATOM      1  C   UNL d   1      27.277 -11.005   1.428  0.00  0.00     0.274 C 
ATOM      2  O   UNL d   1      26.671 -10.022   0.999  0.00  0.00    -0.266 OA
ATOM      3  N   UNL d   1      27.514 -12.182   0.710  0.00  0.00    -0.319 N 
ATOM      4  H   UNL d   1      27.761 -13.016   1.227  0.00  0.00     0.169 HD
ENDROOT
BRANCH   3   5
ATOM      5  C   UNL d   1      27.198 -12.285  -0.666  0.00  0.00     0.070 C 
ATOM      6  C   UNL d   1      26.445 -13.381  -1.153  0.00  0.00     0.057 C 
ATOM      7  C   UNL d   1      25.989 -13.359  -2.478  0.00  0.00     0.082 C 
ATOM      8  C   UNL d   1      26.274 -12.239  -3.242  0.00  0.00     0.028 C 
ATOM      9  C   UNL d   1      27.167 -11.256  -2.851  0.00  0.00     0.040 C 
ATOM     10  C   UNL d   1      27.619 -11.275  -1.552  0.00  0.00     0.092 C 
BRANCH   7  11
ATOM     11  S   UNL d   1      25.009 -14.701  -3.174  0.00  0.00     0.260 S 
ATOM     12  O   UNL d   1      23.635 -14.453  -2.770  0.00  0.00    -0.200 OA
ATOM     13  O   UNL d   1      25.374 -14.781  -4.568  0.00  0.00    -0.200 OA
BRANCH  11  14
ATOM     14  N   UNL d   1      25.481 -16.169  -2.434  0.00  0.00    -0.307 N 
ATOM     15  C   UNL d   1      24.589 -16.899  -1.504  0.00  0.00     0.135 C 
ATOM     16  C   UNL d   1      25.270 -16.781  -0.151  0.00  0.00     0.022 C 
ATOM     17  C   UNL d   1      26.762 -16.788  -0.506  0.00  0.00     0.022 C 
ATOM     18  C   UNL d   1      26.874 -16.353  -1.977  0.00  0.00     0.135 C 
ENDBRANCH  11  14
ENDBRANCH   7  11
BRANCH  10  19
ATOM     19  O   UNL d   1      28.518 -10.321  -1.156  0.00  0.00    -0.358 OA
ATOM     20  H   UNL d   1      28.062  -9.667  -0.602  0.00  0.00     0.217 HD
ENDBRANCH  10  19
ENDBRANCH   3   5
BRANCH   1  21
ATOM     21  C   UNL d   1      27.710 -10.973   2.862  0.00  0.00     0.127 A 
ATOM     22  C   UNL d   1      27.932  -9.740   3.469  0.00  0.00     0.038 A 
ATOM     23  C   UNL d   1      28.269  -9.707   4.817  0.00  0.00     0.023 A 
ATOM     24  C   UNL d   1      28.393 -10.911   5.510  0.00  0.00     0.079 A 
ATOM     25  C   UNL d   1      28.740 -10.926   6.936  0.00  0.00     0.265 A 
ATOM     26  C   UNL d   1      28.191 -12.104   4.834  0.00  0.00     0.150 A 
ATOM     27  N   UNL d   1      28.881 -12.170   7.527  0.00  0.00    -0.270 N 
ATOM     28  O   UNL d   1      28.888  -9.856   7.523  0.00  0.00    -0.267 OA
ATOM     29  C   UNL d   1      29.243 -12.231   8.934  0.00  0.00     0.164 C 
ATOM     30  C   UNL d   1      28.727 -13.380   6.860  0.00  0.00     0.332 A 
ATOM     31  N   UNL d   1      28.370 -13.316   5.522  0.00  0.00    -0.287 N 
ATOM     32  O   UNL d   1      28.904 -14.459   7.429  0.00  0.00    -0.246 OA
ATOM     33  C   UNL d   1      28.239 -14.562   4.786  0.00  0.00     0.163 C 
ATOM     34  N   UNL d   1      27.836 -12.152   3.519  0.00  0.00    -0.224 NA
ENDBRANCH   1  21
TORSDOF 5
ENDMDL
