MODEL 1
REMARK VINA RESULT:    -9.070      0.000      0.000
REMARK INTER + INTRA:         -12.832
REMARK INTER:                 -11.755
REMARK INTRA:                  -1.077
REMARK CONF_INDEPENDENT:        2.685
REMARK UNBOUND:                -1.077
REMARK  9 active torsions:
REMARK  status: ('A' for Active; 'I' for Inactive)
REMARK    1  A    between atoms: C_2  and  C_3 
REMARK       I    between atoms: C_2  and  N_14 
REMARK    2  A    between atoms: C_3  and  N_4 
REMARK       I    between atoms: N_4  and  C_5 
REMARK       I    between atoms: C_5  and  N_7 
REMARK    3  A    between atoms: N_7  and  C_8 
REMARK    4  A    between atoms: C_8  and  C_9 
REMARK    5  A    between atoms: N_14  and  C_15 
REMARK    6  A    between atoms: C_15  and  C_16 
REMARK    7  A    between atoms: C_16  and  N_17 
REMARK    8  A    between atoms: N_17  and  C_18 
REMARK    9  A    between atoms: C_21  and  N_22 
ROOT
ATOM      1  O   UNL d   1      27.025 -19.253   0.607  0.00  0.00    -0.272 OA
ATOM      2  C   UNL d   1      26.888 -18.086   0.235  0.00  0.00     0.235 C 
ATOM      3  N   UNL d   1      27.995 -17.278   0.134  0.00  0.00    -0.358 N 
ATOM      4  H   UNL d   1      28.864 -17.735   0.395  0.00  0.00     0.162 HD
ENDROOT
BRANCH   2   5
ATOM      5  C   UNL d   1      25.519 -17.492  -0.126  0.00  0.00     0.227 C 
BRANCH   5   6
ATOM      6  N   UNL d   1      24.405 -18.416   0.034  0.00  0.00    -0.334 N 
ATOM      7  C   UNL d   1      23.181 -18.131  -0.517  0.00  0.00     0.316 C 
ATOM      8  O   UNL d   1      22.965 -17.116  -1.176  0.00  0.00    -0.247 OA
ATOM      9  N   UNL d   1      22.232 -19.078  -0.257  0.00  0.00    -0.343 N 
ATOM     10  H   UNL d   1      22.531 -19.880   0.267  0.00  0.00     0.164 HD
ATOM     11  H   UNL d   1      24.571 -19.267   0.558  0.00  0.00     0.164 HD
BRANCH   9  12
ATOM     12  C   UNL d   1      20.873 -19.006  -0.792  0.00  0.00     0.129 C 
BRANCH  12  13
ATOM     13  C   UNL d   1      19.741 -19.312   0.211  0.00  0.00     0.003 C 
ATOM     14  C   UNL d   1      18.851 -20.502  -0.138  0.00  0.00     0.006 C 
ATOM     15  C   UNL d   1      18.156 -20.874   1.159  0.00  0.00     0.000 C 
ATOM     16  C   UNL d   1      19.112 -20.451   2.272  0.00  0.00     0.000 C 
ATOM     17  C   UNL d   1      20.249 -19.674   1.608  0.00  0.00     0.006 C 
ENDBRANCH  12  13
ENDBRANCH   9  12
ENDBRANCH   5   6
ENDBRANCH   2   5
BRANCH   3  18
ATOM     18  C   UNL d   1      28.021 -15.877  -0.276  0.00  0.00     0.142 C 
BRANCH  18  19
ATOM     19  C   UNL d   1      27.607 -14.901   0.840  0.00  0.00     0.139 C 
BRANCH  19  20
ATOM     20  N   UNL d   1      28.426 -13.692   0.842  0.00  0.00    -0.388 N 
ATOM     21  H   UNL d   1      29.437 -13.769   0.778  0.00  0.00     0.159 HD
BRANCH  20  22
ATOM     22  C   UNL d   1      27.915 -12.470   1.252  0.00  0.00     0.028 A 
ATOM     23  C   UNL d   1      28.053 -11.349   0.421  0.00  0.00     0.031 A 
ATOM     24  C   UNL d   1      27.528 -10.100   0.787  0.00  0.00     0.038 A 
ATOM     25  C   UNL d   1      26.802  -9.984   1.977  0.00  0.00     0.103 A 
ATOM     26  C   UNL d   1      26.672 -11.081   2.829  0.00  0.00     0.038 A 
ATOM     27  C   UNL d   1      27.227 -12.310   2.460  0.00  0.00     0.031 A 
BRANCH  25  28
ATOM     28  N   UNL d   1      26.113  -8.728   2.301  0.00  0.00    -0.116 N 
ATOM     29  O   UNL d   1      25.048  -8.486   1.717  0.00  0.00    -0.532 OA
ATOM     30  O   UNL d   1      26.624  -7.996   3.161  0.00  0.00    -0.532 OA
ENDBRANCH  25  28
ENDBRANCH  20  22
ENDBRANCH  19  20
ENDBRANCH  18  19
ENDBRANCH   3  18
TORSDOF 9
ENDMDL
MODEL 2
REMARK VINA RESULT:    -8.166      4.781     10.264
REMARK INTER + INTRA:         -12.076
REMARK INTER:                 -10.851
REMARK INTRA:                  -1.225
REMARK CONF_INDEPENDENT:        2.685
REMARK UNBOUND:                -1.225
REMARK  9 active torsions:
REMARK  status: ('A' for Active; 'I' for Inactive)
REMARK    1  A    between atoms: C_2  and  C_3 
REMARK       I    between atoms: C_2  and  N_14 
REMARK    2  A    between atoms: C_3  and  N_4 
REMARK       I    between atoms: N_4  and  C_5 
REMARK       I    between atoms: C_5  and  N_7 
REMARK    3  A    between atoms: N_7  and  C_8 
REMARK    4  A    between atoms: C_8  and  C_9 
REMARK    5  A    between atoms: N_14  and  C_15 
REMARK    6  A    between atoms: C_15  and  C_16 
REMARK    7  A    between atoms: C_16  and  N_17 
REMARK    8  A    between atoms: N_17  and  C_18 
REMARK    9  A    between atoms: C_21  and  N_22 
ROOT
ATOM      1  O   UNL d   1      24.782 -14.660  -4.644  0.00  0.00    -0.272 OA
ATOM      2  C   UNL d   1      25.594 -14.566  -3.723  0.00  0.00     0.235 C 
ATOM      3  N   UNL d   1      25.934 -15.690  -3.008  0.00  0.00    -0.358 N 
ATOM      4  H   UNL d   1      25.456 -16.532  -3.313  0.00  0.00     0.162 HD
ENDROOT
BRANCH   2   5
ATOM      5  C   UNL d   1      26.252 -13.233  -3.337  0.00  0.00     0.227 C 
BRANCH   5   6
ATOM      6  N   UNL d   1      25.516 -12.054  -3.775  0.00  0.00    -0.334 N 
ATOM      7  C   UNL d   1      26.000 -10.797  -3.517  0.00  0.00     0.316 C 
ATOM      8  O   UNL d   1      27.063 -10.598  -2.932  0.00  0.00    -0.247 OA
ATOM      9  N   UNL d   1      25.186  -9.796  -3.963  0.00  0.00    -0.343 N 
ATOM     10  H   UNL d   1      24.357 -10.079  -4.455  0.00  0.00     0.164 HD
ATOM     11  H   UNL d   1      24.648 -12.201  -4.276  0.00  0.00     0.164 HD
BRANCH   9  12
ATOM     12  C   UNL d   1      25.532  -8.381  -3.845  0.00  0.00     0.129 C 
BRANCH  12  13
ATOM     13  C   UNL d   1      24.877  -7.442  -4.880  0.00  0.00     0.003 C 
ATOM     14  C   UNL d   1      23.508  -7.877  -5.396  0.00  0.00     0.006 C 
ATOM     15  C   UNL d   1      22.896  -6.627  -6.003  0.00  0.00     0.000 C 
ATOM     16  C   UNL d   1      23.509  -5.457  -5.238  0.00  0.00     0.000 C 
ATOM     17  C   UNL d   1      24.599  -6.039  -4.338  0.00  0.00     0.006 C 
ENDBRANCH  12  13
ENDBRANCH   9  12
ENDBRANCH   5   6
ENDBRANCH   2   5
BRANCH   3  18
ATOM     18  C   UNL d   1      26.863 -15.763  -1.884  0.00  0.00     0.142 C 
BRANCH  18  19
ATOM     19  C   UNL d   1      26.174 -15.698  -0.509  0.00  0.00     0.139 C 
BRANCH  19  20
ATOM     20  N   UNL d   1      25.697 -17.006  -0.073  0.00  0.00    -0.388 N 
ATOM     21  H   UNL d   1      26.363 -17.703   0.250  0.00  0.00     0.159 HD
BRANCH  20  22
ATOM     22  C   UNL d   1      24.423 -17.455  -0.384  0.00  0.00     0.028 A 
ATOM     23  C   UNL d   1      24.163 -18.832  -0.418  0.00  0.00     0.031 A 
ATOM     24  C   UNL d   1      22.881 -19.327  -0.703  0.00  0.00     0.038 A 
ATOM     25  C   UNL d   1      21.828 -18.428  -0.900  0.00  0.00     0.103 A 
ATOM     26  C   UNL d   1      22.068 -17.053  -0.893  0.00  0.00     0.038 A 
ATOM     27  C   UNL d   1      23.359 -16.581  -0.635  0.00  0.00     0.031 A 
BRANCH  25  28
ATOM     28  N   UNL d   1      20.453 -18.923  -1.045  0.00  0.00    -0.116 N 
ATOM     29  O   UNL d   1      20.292 -20.043  -1.549  0.00  0.00    -0.532 OA
ATOM     30  O   UNL d   1      19.535 -18.201  -0.630  0.00  0.00    -0.532 OA
ENDBRANCH  25  28
ENDBRANCH  20  22
ENDBRANCH  19  20
ENDBRANCH  18  19
ENDBRANCH   3  18
TORSDOF 9
ENDMDL
MODEL 3
REMARK VINA RESULT:    -8.117      2.618      3.126
REMARK INTER + INTRA:         -12.078
REMARK INTER:                 -10.802
REMARK INTRA:                  -1.276
REMARK CONF_INDEPENDENT:        2.685
REMARK UNBOUND:                -1.276
REMARK  9 active torsions:
REMARK  status: ('A' for Active; 'I' for Inactive)
REMARK    1  A    between atoms: C_2  and  C_3 
REMARK       I    between atoms: C_2  and  N_14 
REMARK    2  A    between atoms: C_3  and  N_4 
REMARK       I    between atoms: N_4  and  C_5 
REMARK       I    between atoms: C_5  and  N_7 
REMARK    3  A    between atoms: N_7  and  C_8 
REMARK    4  A    between atoms: C_8  and  C_9 
REMARK    5  A    between atoms: N_14  and  C_15 
REMARK    6  A    between atoms: C_15  and  C_16 
REMARK    7  A    between atoms: C_16  and  N_17 
REMARK    8  A    between atoms: N_17  and  C_18 
REMARK    9  A    between atoms: C_21  and  N_22 
ROOT
ATOM      1  O   UNL d   1      26.588 -18.586   1.335  0.00  0.00    -0.272 OA
ATOM      2  C   UNL d   1      26.415 -17.575   0.652  0.00  0.00     0.235 C 
ATOM      3  N   UNL d   1      27.366 -16.583   0.665  0.00  0.00    -0.358 N 
ATOM      4  H   UNL d   1      28.157 -16.779   1.272  0.00  0.00     0.162 HD
ENDROOT
BRANCH   2   5
ATOM      5  C   UNL d   1      25.170 -17.378  -0.225  0.00  0.00     0.227 C 
BRANCH   5   6
ATOM      6  N   UNL d   1      24.161 -18.417  -0.075  0.00  0.00    -0.334 N 
ATOM      7  C   UNL d   1      22.881 -18.213  -0.524  0.00  0.00     0.316 C 
ATOM      8  O   UNL d   1      22.526 -17.177  -1.082  0.00  0.00    -0.247 OA
ATOM      9  N   UNL d   1      22.045 -19.266  -0.287  0.00  0.00    -0.343 N 
ATOM     10  H   UNL d   1      22.454 -20.073   0.149  0.00  0.00     0.164 HD
ATOM     11  H   UNL d   1      24.442 -19.285   0.364  0.00  0.00     0.164 HD
BRANCH   9  12
ATOM     12  C   UNL d   1      20.652 -19.288  -0.730  0.00  0.00     0.129 C 
BRANCH  12  13
ATOM     13  C   UNL d   1      19.602 -19.542   0.372  0.00  0.00     0.003 C 
ATOM     14  C   UNL d   1      18.785 -20.823   0.226  0.00  0.00     0.006 C 
ATOM     15  C   UNL d   1      18.192 -21.075   1.601  0.00  0.00     0.000 C 
ATOM     16  C   UNL d   1      19.172 -20.453   2.591  0.00  0.00     0.000 C 
ATOM     17  C   UNL d   1      20.210 -19.691   1.768  0.00  0.00     0.006 C 
ENDBRANCH  12  13
ENDBRANCH   9  12
ENDBRANCH   5   6
ENDBRANCH   2   5
BRANCH   3  18
ATOM     18  C   UNL d   1      27.323 -15.321  -0.067  0.00  0.00     0.142 C 
BRANCH  18  19
ATOM     19  C   UNL d   1      27.820 -14.116   0.751  0.00  0.00     0.139 C 
BRANCH  19  20
ATOM     20  N   UNL d   1      28.617 -14.527   1.903  0.00  0.00    -0.388 N 
ATOM     21  H   UNL d   1      29.130 -15.403   1.873  0.00  0.00     0.159 HD
BRANCH  20  22
ATOM     22  C   UNL d   1      28.446 -13.944   3.149  0.00  0.00     0.028 A 
ATOM     23  C   UNL d   1      27.901 -14.699   4.197  0.00  0.00     0.031 A 
ATOM     24  C   UNL d   1      27.734 -14.154   5.479  0.00  0.00     0.038 A 
ATOM     25  C   UNL d   1      28.174 -12.851   5.733  0.00  0.00     0.103 A 
ATOM     26  C   UNL d   1      28.698 -12.074   4.699  0.00  0.00     0.038 A 
ATOM     27  C   UNL d   1      28.829 -12.625   3.421  0.00  0.00     0.031 A 
BRANCH  25  28
ATOM     28  N   UNL d   1      28.153 -12.318   7.101  0.00  0.00    -0.116 N 
ATOM     29  O   UNL d   1      28.161 -13.129   8.038  0.00  0.00    -0.532 OA
ATOM     30  O   UNL d   1      28.155 -11.086   7.240  0.00  0.00    -0.532 OA
ENDBRANCH  25  28
ENDBRANCH  20  22
ENDBRANCH  19  20
ENDBRANCH  18  19
ENDBRANCH   3  18
TORSDOF 9
ENDMDL
MODEL 4
REMARK VINA RESULT:    -7.919      3.188      4.941
REMARK INTER + INTRA:         -11.975
REMARK INTER:                 -10.604
REMARK INTRA:                  -1.372
REMARK CONF_INDEPENDENT:        2.685
REMARK UNBOUND:                -1.372
REMARK  9 active torsions:
REMARK  status: ('A' for Active; 'I' for Inactive)
REMARK    1  A    between atoms: C_2  and  C_3 
REMARK       I    between atoms: C_2  and  N_14 
REMARK    2  A    between atoms: C_3  and  N_4 
REMARK       I    between atoms: N_4  and  C_5 
REMARK       I    between atoms: C_5  and  N_7 
REMARK    3  A    between atoms: N_7  and  C_8 
REMARK    4  A    between atoms: C_8  and  C_9 
REMARK    5  A    between atoms: N_14  and  C_15 
REMARK    6  A    between atoms: C_15  and  C_16 
REMARK    7  A    between atoms: C_16  and  N_17 
REMARK    8  A    between atoms: N_17  and  C_18 
REMARK    9  A    between atoms: C_21  and  N_22 
ROOT
ATOM      1  O   UNL d   1      31.821 -12.973   2.110  0.00  0.00    -0.272 OA
ATOM      2  C   UNL d   1      30.836 -13.574   2.544  0.00  0.00     0.235 C 
ATOM      3  N   UNL d   1      30.864 -14.076   3.823  0.00  0.00    -0.358 N 
ATOM      4  H   UNL d   1      31.737 -13.905   4.314  0.00  0.00     0.162 HD
ENDROOT
BRANCH   2   5
ATOM      5  C   UNL d   1      29.566 -13.785   1.707  0.00  0.00     0.227 C 
BRANCH   5   6
ATOM      6  N   UNL d   1      29.339 -15.166   1.303  0.00  0.00    -0.334 N 
ATOM      7  C   UNL d   1      28.304 -15.481   0.459  0.00  0.00     0.316 C 
ATOM      8  O   UNL d   1      27.541 -14.637  -0.006  0.00  0.00    -0.247 OA
ATOM      9  N   UNL d   1      28.202 -16.817   0.196  0.00  0.00    -0.343 N 
ATOM     10  H   UNL d   1      28.901 -17.409   0.608  0.00  0.00     0.164 HD
ATOM     11  H   UNL d   1      29.971 -15.871   1.661  0.00  0.00     0.164 HD
BRANCH   9  12
ATOM     12  C   UNL d   1      27.207 -17.370  -0.721  0.00  0.00     0.129 C 
BRANCH  12  13
ATOM     13  C   UNL d   1      25.736 -17.234  -0.275  0.00  0.00     0.003 C 
ATOM     14  C   UNL d   1      24.785 -16.632  -1.305  0.00  0.00     0.006 C 
ATOM     15  C   UNL d   1      23.393 -17.021  -0.837  0.00  0.00     0.000 C 
ATOM     16  C   UNL d   1      23.569 -18.331  -0.074  0.00  0.00     0.000 C 
ATOM     17  C   UNL d   1      25.073 -18.575   0.048  0.00  0.00     0.006 C 
ENDBRANCH  12  13
ENDBRANCH   9  12
ENDBRANCH   5   6
ENDBRANCH   2   5
BRANCH   3  18
ATOM     18  C   UNL d   1      29.801 -14.819   4.493  0.00  0.00     0.142 C 
BRANCH  18  19
ATOM     19  C   UNL d   1      28.677 -13.926   5.046  0.00  0.00     0.139 C 
BRANCH  19  20
ATOM     20  N   UNL d   1      27.693 -13.588   4.022  0.00  0.00    -0.388 N 
ATOM     21  H   UNL d   1      27.372 -14.304   3.377  0.00  0.00     0.159 HD
BRANCH  20  22
ATOM     22  C   UNL d   1      27.422 -12.272   3.682  0.00  0.00     0.028 A 
ATOM     23  C   UNL d   1      26.779 -11.989   2.469  0.00  0.00     0.031 A 
ATOM     24  C   UNL d   1      26.464 -10.672   2.099  0.00  0.00     0.038 A 
ATOM     25  C   UNL d   1      26.743  -9.626   2.984  0.00  0.00     0.103 A 
ATOM     26  C   UNL d   1      27.402  -9.882   4.187  0.00  0.00     0.038 A 
ATOM     27  C   UNL d   1      27.734 -11.198   4.525  0.00  0.00     0.031 A 
BRANCH  25  28
ATOM     28  N   UNL d   1      26.282  -8.264   2.686  0.00  0.00    -0.116 N 
ATOM     29  O   UNL d   1      25.525  -8.110   1.717  0.00  0.00    -0.532 OA
ATOM     30  O   UNL d   1      26.656  -7.352   3.437  0.00  0.00    -0.532 OA
ENDBRANCH  25  28
ENDBRANCH  20  22
ENDBRANCH  19  20
ENDBRANCH  18  19
ENDBRANCH   3  18
TORSDOF 9
ENDMDL
MODEL 5
REMARK VINA RESULT:    -7.909      4.698      9.474
REMARK INTER + INTRA:         -11.701
REMARK INTER:                 -10.594
REMARK INTRA:                  -1.107
REMARK CONF_INDEPENDENT:        2.685
REMARK UNBOUND:                -1.107
REMARK  9 active torsions:
REMARK  status: ('A' for Active; 'I' for Inactive)
REMARK    1  A    between atoms: C_2  and  C_3 
REMARK       I    between atoms: C_2  and  N_14 
REMARK    2  A    between atoms: C_3  and  N_4 
REMARK       I    between atoms: N_4  and  C_5 
REMARK       I    between atoms: C_5  and  N_7 
REMARK    3  A    between atoms: N_7  and  C_8 
REMARK    4  A    between atoms: C_8  and  C_9 
REMARK    5  A    between atoms: N_14  and  C_15 
REMARK    6  A    between atoms: C_15  and  C_16 
REMARK    7  A    between atoms: C_16  and  N_17 
REMARK    8  A    between atoms: N_17  and  C_18 
REMARK    9  A    between atoms: C_21  and  N_22 
ROOT
ATOM      1  O   UNL d   1      24.622 -14.449  -4.627  0.00  0.00    -0.272 OA
ATOM      2  C   UNL d   1      25.476 -14.161  -3.787  0.00  0.00     0.235 C 
ATOM      3  N   UNL d   1      25.475 -14.811  -2.575  0.00  0.00    -0.358 N 
ATOM      4  H   UNL d   1      24.730 -15.495  -2.476  0.00  0.00     0.162 HD
ENDROOT
BRANCH   2   5
ATOM      5  C   UNL d   1      26.555 -13.098  -4.040  0.00  0.00     0.227 C 
BRANCH   5   6
ATOM      6  N   UNL d   1      27.906 -13.631  -4.148  0.00  0.00    -0.334 N 
ATOM      7  C   UNL d   1      28.236 -14.485  -5.170  0.00  0.00     0.316 C 
ATOM      8  O   UNL d   1      27.437 -14.826  -6.040  0.00  0.00    -0.247 OA
ATOM      9  N   UNL d   1      29.529 -14.921  -5.121  0.00  0.00    -0.343 N 
ATOM     10  H   UNL d   1      30.099 -14.550  -4.381  0.00  0.00     0.164 HD
ATOM     11  H   UNL d   1      28.582 -13.344  -3.451  0.00  0.00     0.164 HD
BRANCH   9  12
ATOM     12  C   UNL d   1      30.111 -15.792  -6.140  0.00  0.00     0.129 C 
BRANCH  12  13
ATOM     13  C   UNL d   1      30.030 -17.306  -5.852  0.00  0.00     0.003 C 
ATOM     14  C   UNL d   1      30.775 -18.208  -6.833  0.00  0.00     0.006 C 
ATOM     15  C   UNL d   1      30.937 -19.534  -6.112  0.00  0.00     0.000 C 
ATOM     16  C   UNL d   1      30.971 -19.190  -4.625  0.00  0.00     0.000 C 
ATOM     17  C   UNL d   1      30.640 -17.702  -4.506  0.00  0.00     0.006 C 
ENDBRANCH  12  13
ENDBRANCH   9  12
ENDBRANCH   5   6
ENDBRANCH   2   5
BRANCH   3  18
ATOM     18  C   UNL d   1      26.397 -14.593  -1.465  0.00  0.00     0.142 C 
BRANCH  18  19
ATOM     19  C   UNL d   1      26.204 -15.580  -0.300  0.00  0.00     0.139 C 
BRANCH  19  20
ATOM     20  N   UNL d   1      25.841 -16.914  -0.767  0.00  0.00    -0.388 N 
ATOM     21  H   UNL d   1      26.488 -17.437  -1.349  0.00  0.00     0.159 HD
BRANCH  20  22
ATOM     22  C   UNL d   1      24.531 -17.366  -0.725  0.00  0.00     0.028 A 
ATOM     23  C   UNL d   1      23.479 -16.453  -0.889  0.00  0.00     0.031 A 
ATOM     24  C   UNL d   1      22.140 -16.873  -0.878  0.00  0.00     0.038 A 
ATOM     25  C   UNL d   1      21.849 -18.235  -0.761  0.00  0.00     0.103 A 
ATOM     26  C   UNL d   1      22.879 -19.158  -0.574  0.00  0.00     0.038 A 
ATOM     27  C   UNL d   1      24.206 -18.717  -0.559  0.00  0.00     0.031 A 
BRANCH  25  28
ATOM     28  N   UNL d   1      20.467 -18.711  -0.904  0.00  0.00    -0.116 N 
ATOM     29  O   UNL d   1      20.284 -19.933  -0.999  0.00  0.00    -0.532 OA
ATOM     30  O   UNL d   1      19.563 -17.864  -0.895  0.00  0.00    -0.532 OA
ENDBRANCH  25  28
ENDBRANCH  20  22
ENDBRANCH  19  20
ENDBRANCH  18  19
ENDBRANCH   3  18
TORSDOF 9
ENDMDL
MODEL 6
REMARK VINA RESULT:    -7.550      5.715     10.343
REMARK INTER + INTRA:         -11.342
REMARK INTER:                 -10.235
REMARK INTRA:                  -1.107
REMARK CONF_INDEPENDENT:        2.685
REMARK UNBOUND:                -1.107
REMARK  9 active torsions:
REMARK  status: ('A' for Active; 'I' for Inactive)
REMARK    1  A    between atoms: C_2  and  C_3 
REMARK       I    between atoms: C_2  and  N_14 
REMARK    2  A    between atoms: C_3  and  N_4 
REMARK       I    between atoms: N_4  and  C_5 
REMARK       I    between atoms: C_5  and  N_7 
REMARK    3  A    between atoms: N_7  and  C_8 
REMARK    4  A    between atoms: C_8  and  C_9 
REMARK    5  A    between atoms: N_14  and  C_15 
REMARK    6  A    between atoms: C_15  and  C_16 
REMARK    7  A    between atoms: C_16  and  N_17 
REMARK    8  A    between atoms: N_17  and  C_18 
REMARK    9  A    between atoms: C_21  and  N_22 
ROOT
ATOM      1  O   UNL d   1      25.163 -15.243  -4.551  0.00  0.00    -0.272 OA
ATOM      2  C   UNL d   1      25.993 -15.093  -3.652  0.00  0.00     0.235 C 
ATOM      3  N   UNL d   1      25.561 -14.905  -2.361  0.00  0.00    -0.358 N 
ATOM      4  H   UNL d   1      24.550 -14.898  -2.263  0.00  0.00     0.162 HD
ENDROOT
BRANCH   2   5
ATOM      5  C   UNL d   1      27.506 -15.112  -3.917  0.00  0.00     0.227 C 
BRANCH   5   6
ATOM      6  N   UNL d   1      27.987 -13.991  -4.713  0.00  0.00    -0.334 N 
ATOM      7  C   UNL d   1      28.289 -14.162  -6.041  0.00  0.00     0.316 C 
ATOM      8  O   UNL d   1      28.158 -15.236  -6.623  0.00  0.00    -0.247 OA
ATOM      9  N   UNL d   1      28.755 -13.029  -6.644  0.00  0.00    -0.343 N 
ATOM     10  H   UNL d   1      28.791 -12.201  -6.076  0.00  0.00     0.164 HD
ATOM     11  H   UNL d   1      28.082 -13.094  -4.253  0.00  0.00     0.164 HD
BRANCH   9  12
ATOM     12  C   UNL d   1      29.085 -12.967  -8.067  0.00  0.00     0.129 C 
BRANCH  12  13
ATOM     13  C   UNL d   1      28.449 -11.800  -8.852  0.00  0.00     0.003 C 
ATOM     14  C   UNL d   1      27.468 -12.200  -9.951  0.00  0.00     0.006 C 
ATOM     15  C   UNL d   1      26.662 -10.945 -10.241  0.00  0.00     0.000 C 
ATOM     16  C   UNL d   1      26.655 -10.153  -8.936  0.00  0.00     0.000 C 
ATOM     17  C   UNL d   1      27.610 -10.866  -7.979  0.00  0.00     0.006 C 
ENDBRANCH  12  13
ENDBRANCH   9  12
ENDBRANCH   5   6
ENDBRANCH   2   5
BRANCH   3  18
ATOM     18  C   UNL d   1      26.395 -14.701  -1.181  0.00  0.00     0.142 C 
BRANCH  18  19
ATOM     19  C   UNL d   1      26.141 -15.726  -0.061  0.00  0.00     0.139 C 
BRANCH  19  20
ATOM     20  N   UNL d   1      25.805 -17.044  -0.592  0.00  0.00    -0.388 N 
ATOM     21  H   UNL d   1      26.481 -17.546  -1.159  0.00  0.00     0.159 HD
BRANCH  20  22
ATOM     22  C   UNL d   1      24.495 -17.497  -0.631  0.00  0.00     0.028 A 
ATOM     23  C   UNL d   1      23.452 -16.581  -0.824  0.00  0.00     0.031 A 
ATOM     24  C   UNL d   1      22.115 -17.001  -0.895  0.00  0.00     0.038 A 
ATOM     25  C   UNL d   1      21.821 -18.366  -0.830  0.00  0.00     0.103 A 
ATOM     26  C   UNL d   1      22.841 -19.294  -0.615  0.00  0.00     0.038 A 
ATOM     27  C   UNL d   1      24.165 -18.853  -0.518  0.00  0.00     0.031 A 
BRANCH  25  28
ATOM     28  N   UNL d   1      20.449 -18.838  -1.058  0.00  0.00    -0.116 N 
ATOM     29  O   UNL d   1      19.524 -18.202  -0.533  0.00  0.00    -0.532 OA
ATOM     30  O   UNL d   1      20.294 -19.830  -1.785  0.00  0.00    -0.532 OA
ENDBRANCH  25  28
ENDBRANCH  20  22
ENDBRANCH  19  20
ENDBRANCH  18  19
ENDBRANCH   3  18
TORSDOF 9
ENDMDL
MODEL 7
REMARK VINA RESULT:    -7.529      3.857      9.774
REMARK INTER + INTRA:         -11.246
REMARK INTER:                 -10.213
REMARK INTRA:                  -1.032
REMARK CONF_INDEPENDENT:        2.685
REMARK UNBOUND:                -1.032
REMARK  9 active torsions:
REMARK  status: ('A' for Active; 'I' for Inactive)
REMARK    1  A    between atoms: C_2  and  C_3 
REMARK       I    between atoms: C_2  and  N_14 
REMARK    2  A    between atoms: C_3  and  N_4 
REMARK       I    between atoms: N_4  and  C_5 
REMARK       I    between atoms: C_5  and  N_7 
REMARK    3  A    between atoms: N_7  and  C_8 
REMARK    4  A    between atoms: C_8  and  C_9 
REMARK    5  A    between atoms: N_14  and  C_15 
REMARK    6  A    between atoms: C_15  and  C_16 
REMARK    7  A    between atoms: C_16  and  N_17 
REMARK    8  A    between atoms: N_17  and  C_18 
REMARK    9  A    between atoms: C_21  and  N_22 
ROOT
ATOM      1  O   UNL d   1      27.297 -12.753   0.360  0.00  0.00    -0.272 OA
ATOM      2  C   UNL d   1      27.342 -13.799   1.009  0.00  0.00     0.235 C 
ATOM      3  N   UNL d   1      27.679 -14.971   0.374  0.00  0.00    -0.358 N 
ATOM      4  H   UNL d   1      27.861 -14.863  -0.620  0.00  0.00     0.162 HD
ENDROOT
BRANCH   2   5
ATOM      5  C   UNL d   1      27.035 -13.850   2.513  0.00  0.00     0.227 C 
BRANCH   5   6
ATOM      6  N   UNL d   1      28.129 -14.359   3.329  0.00  0.00    -0.334 N 
ATOM      7  C   UNL d   1      28.550 -13.667   4.436  0.00  0.00     0.316 C 
ATOM      8  O   UNL d   1      28.031 -12.615   4.803  0.00  0.00    -0.247 OA
ATOM      9  N   UNL d   1      29.601 -14.255   5.081  0.00  0.00    -0.343 N 
ATOM     10  H   UNL d   1      29.922 -15.130   4.707  0.00  0.00     0.164 HD
ATOM     11  H   UNL d   1      28.554 -15.235   3.052  0.00  0.00     0.164 HD
BRANCH   9  12
ATOM     12  C   UNL d   1      30.174 -13.719   6.314  0.00  0.00     0.129 C 
BRANCH  12  13
ATOM     13  C   UNL d   1      29.173 -13.455   7.459  0.00  0.00     0.003 C 
ATOM     14  C   UNL d   1      29.218 -14.446   8.619  0.00  0.00     0.006 C 
ATOM     15  C   UNL d   1      28.518 -13.744   9.769  0.00  0.00     0.000 C 
ATOM     16  C   UNL d   1      28.737 -12.252   9.533  0.00  0.00     0.000 C 
ATOM     17  C   UNL d   1      29.391 -12.112   8.158  0.00  0.00     0.006 C 
ENDBRANCH  12  13
ENDBRANCH   9  12
ENDBRANCH   5   6
ENDBRANCH   2   5
BRANCH   3  18
ATOM     18  C   UNL d   1      27.769 -16.297   0.976  0.00  0.00     0.142 C 
BRANCH  18  19
ATOM     19  C   UNL d   1      26.859 -17.342   0.306  0.00  0.00     0.139 C 
BRANCH  19  20
ATOM     20  N   UNL d   1      25.828 -16.721  -0.519  0.00  0.00    -0.388 N 
ATOM     21  H   UNL d   1      25.967 -15.780  -0.874  0.00  0.00     0.159 HD
BRANCH  20  22
ATOM     22  C   UNL d   1      24.538 -17.226  -0.569  0.00  0.00     0.028 A 
ATOM     23  C   UNL d   1      23.459 -16.350  -0.756  0.00  0.00     0.031 A 
ATOM     24  C   UNL d   1      22.140 -16.823  -0.838  0.00  0.00     0.038 A 
ATOM     25  C   UNL d   1      21.901 -18.200  -0.792  0.00  0.00     0.103 A 
ATOM     26  C   UNL d   1      22.958 -19.089  -0.584  0.00  0.00     0.038 A 
ATOM     27  C   UNL d   1      24.262 -18.595  -0.476  0.00  0.00     0.031 A 
BRANCH  25  28
ATOM     28  N   UNL d   1      20.551 -18.724  -1.031  0.00  0.00    -0.116 N 
ATOM     29  O   UNL d   1      20.439 -19.925  -1.316  0.00  0.00    -0.532 OA
ATOM     30  O   UNL d   1      19.599 -17.940  -0.909  0.00  0.00    -0.532 OA
ENDBRANCH  25  28
ENDBRANCH  20  22
ENDBRANCH  19  20
ENDBRANCH  18  19
ENDBRANCH   3  18
TORSDOF 9
ENDMDL
MODEL 8
REMARK VINA RESULT:    -6.771      4.191      5.629
REMARK INTER + INTRA:         -11.614
REMARK INTER:                  -9.456
REMARK INTRA:                  -2.158
REMARK CONF_INDEPENDENT:        2.685
REMARK UNBOUND:                -2.158
REMARK  9 active torsions:
REMARK  status: ('A' for Active; 'I' for Inactive)
REMARK    1  A    between atoms: C_2  and  C_3 
REMARK       I    between atoms: C_2  and  N_14 
REMARK    2  A    between atoms: C_3  and  N_4 
REMARK       I    between atoms: N_4  and  C_5 
REMARK       I    between atoms: C_5  and  N_7 
REMARK    3  A    between atoms: N_7  and  C_8 
REMARK    4  A    between atoms: C_8  and  C_9 
REMARK    5  A    between atoms: N_14  and  C_15 
REMARK    6  A    between atoms: C_15  and  C_16 
REMARK    7  A    between atoms: C_16  and  N_17 
REMARK    8  A    between atoms: N_17  and  C_18 
REMARK    9  A    between atoms: C_21  and  N_22 
ROOT
ATOM      1  O   UNL d   1      31.898 -13.055   2.366  0.00  0.00    -0.272 OA
ATOM      2  C   UNL d   1      30.849 -13.619   2.682  0.00  0.00     0.235 C 
ATOM      3  N   UNL d   1      30.712 -14.121   3.954  0.00  0.00    -0.358 N 
ATOM      4  H   UNL d   1      31.528 -13.982   4.542  0.00  0.00     0.162 HD
ENDROOT
BRANCH   2   5
ATOM      5  C   UNL d   1      29.676 -13.785   1.705  0.00  0.00     0.227 C 
BRANCH   5   6
ATOM      6  N   UNL d   1      29.420 -15.162   1.304  0.00  0.00    -0.334 N 
ATOM      7  C   UNL d   1      28.159 -15.555   0.937  0.00  0.00     0.316 C 
ATOM      8  O   UNL d   1      27.201 -14.786   0.908  0.00  0.00    -0.247 OA
ATOM      9  N   UNL d   1      28.072 -16.880   0.616  0.00  0.00    -0.343 N 
ATOM     10  H   UNL d   1      28.927 -17.405   0.647  0.00  0.00     0.164 HD
ATOM     11  H   UNL d   1      30.203 -15.804   1.303  0.00  0.00     0.164 HD
BRANCH   9  12
ATOM     12  C   UNL d   1      26.836 -17.502   0.144  0.00  0.00     0.129 C 
BRANCH  12  13
ATOM     13  C   UNL d   1      26.292 -16.975  -1.201  0.00  0.00     0.003 C 
ATOM     14  C   UNL d   1      25.148 -15.969  -1.103  0.00  0.00     0.006 C 
ATOM     15  C   UNL d   1      25.109 -15.278  -2.455  0.00  0.00     0.000 C 
ATOM     16  C   UNL d   1      26.540 -15.332  -2.984  0.00  0.00     0.000 C 
ATOM     17  C   UNL d   1      27.335 -16.215  -2.022  0.00  0.00     0.006 C 
ENDBRANCH  12  13
ENDBRANCH   9  12
ENDBRANCH   5   6
ENDBRANCH   2   5
BRANCH   3  18
ATOM     18  C   UNL d   1      29.553 -14.826   4.496  0.00  0.00     0.142 C 
BRANCH  18  19
ATOM     19  C   UNL d   1      28.382 -13.897   4.862  0.00  0.00     0.139 C 
BRANCH  19  20
ATOM     20  N   UNL d   1      27.578 -13.544   3.696  0.00  0.00    -0.388 N 
ATOM     21  H   UNL d   1      27.424 -14.231   2.964  0.00  0.00     0.159 HD
BRANCH  20  22
ATOM     22  C   UNL d   1      27.290 -12.223   3.387  0.00  0.00     0.028 A 
ATOM     23  C   UNL d   1      26.679 -11.917   2.163  0.00  0.00     0.031 A 
ATOM     24  C   UNL d   1      26.348 -10.596   1.822  0.00  0.00     0.038 A 
ATOM     25  C   UNL d   1      26.577  -9.572   2.745  0.00  0.00     0.103 A 
ATOM     26  C   UNL d   1      27.204  -9.851   3.961  0.00  0.00     0.038 A 
ATOM     27  C   UNL d   1      27.553 -11.169   4.270  0.00  0.00     0.031 A 
BRANCH  25  28
ATOM     28  N   UNL d   1      26.097  -8.211   2.473  0.00  0.00    -0.116 N 
ATOM     29  O   UNL d   1      26.575  -7.285   3.143  0.00  0.00    -0.532 OA
ATOM     30  O   UNL d   1      25.259  -8.065   1.571  0.00  0.00    -0.532 OA
ENDBRANCH  25  28
ENDBRANCH  20  22
ENDBRANCH  19  20
ENDBRANCH  18  19
ENDBRANCH   3  18
TORSDOF 9
ENDMDL
