MODEL 1
REMARK VINA RESULT:    -7.647      0.000      0.000
REMARK INTER + INTRA:         -11.153
REMARK INTER:                 -10.332
REMARK INTRA:                  -0.821
REMARK CONF_INDEPENDENT:        2.685
REMARK UNBOUND:                -0.821
REMARK  9 active torsions:
REMARK  status: ('A' for Active; 'I' for Inactive)
REMARK    1  A    between atoms: O_2  and  C_3 
REMARK    2  A    between atoms: C_5  and  C_6 
REMARK    3  A    between atoms: C_6  and  N_7 
REMARK       I    between atoms: N_7  and  C_8 
REMARK    4  A    between atoms: C_8  and  C_10 
REMARK    5  A    between atoms: C_10  and  C_11 
REMARK    6  A    between atoms: C_11  and  C_12 
REMARK    7  A    between atoms: C_12  and  N_13 
REMARK       I    between atoms: N_13  and  C_14 
REMARK    8  A    between atoms: C_14  and  C_16 
REMARK    9  A    between atoms: C_22  and  O_23 
ROOT
ATOM      1  N   UNL d   1      26.179 -16.107   0.053  0.00  0.00    -0.357 N 
ATOM      2  C   UNL d   1      26.112 -17.477   0.020  0.00  0.00     0.217 C 
ATOM      3  O   UNL d   1      27.018 -18.172  -0.436  0.00  0.00    -0.274 OA
ATOM      4  H   UNL d   1      25.393 -15.615   0.444  0.00  0.00     0.162 HD
ENDROOT
BRANCH   1   5
ATOM      5  C   UNL d   1      27.335 -15.371  -0.455  0.00  0.00     0.161 C 
BRANCH   5   6
ATOM      6  C   UNL d   1      27.445 -15.307  -1.970  0.00  0.00    -0.038 A 
ATOM      7  C   UNL d   1      26.294 -15.080  -2.758  0.00  0.00     0.048 A 
ATOM      8  C   UNL d   1      26.360 -15.018  -4.167  0.00  0.00     0.101 A 
ATOM      9  C   UNL d   1      27.603 -15.169  -4.793  0.00  0.00     0.099 A 
ATOM     10  C   UNL d   1      28.744 -15.394  -4.034  0.00  0.00     0.040 A 
ATOM     11  C   UNL d   1      28.662 -15.467  -2.645  0.00  0.00     0.012 A 
BRANCH   8  12
ATOM     12  O   UNL d   1      25.150 -14.809  -4.784  0.00  0.00    -0.353 OA
ATOM     13  C   UNL d   1      24.371 -13.716  -4.304  0.00  0.00     0.210 C 
ENDBRANCH   8  12
BRANCH   9  14
ATOM     14  O   UNL d   1      27.749 -15.103  -6.151  0.00  0.00    -0.358 OA
ATOM     15  H   UNL d   1      27.908 -14.187  -6.427  0.00  0.00     0.217 HD
ENDBRANCH   9  14
ENDBRANCH   5   6
ENDBRANCH   1   5
BRANCH   2  16
ATOM     16  C   UNL d   1      24.823 -18.058   0.600  0.00  0.00     0.104 C 
BRANCH  16  17
ATOM     17  C   UNL d   1      23.604 -17.512  -0.154  0.00  0.00     0.029 C 
BRANCH  17  18
ATOM     18  C   UNL d   1      22.933 -18.553  -1.043  0.00  0.00     0.123 C 
BRANCH  18  19
ATOM     19  N   UNL d   1      21.932 -19.332  -0.330  0.00  0.00    -0.360 N 
ATOM     20  C   UNL d   1      20.593 -19.001  -0.414  0.00  0.00     0.225 C 
ATOM     21  O   UNL d   1      20.218 -18.044  -1.091  0.00  0.00    -0.273 OA
ATOM     22  H   UNL d   1      22.226 -20.122   0.231  0.00  0.00     0.162 HD
BRANCH  20  23
ATOM     23  C   UNL d   1      19.604 -19.887   0.379  0.00  0.00     0.030 C 
ATOM     24  C   UNL d   1      20.277 -21.197   0.812  0.00  0.00     0.024 C 
ATOM     25  C   UNL d   1      19.083 -19.147   1.617  0.00  0.00     0.024 C 
ATOM     26  C   UNL d   1      18.401 -20.235  -0.520  0.00  0.00     0.024 C 
ENDBRANCH  20  23
ENDBRANCH  18  19
ENDBRANCH  17  18
ENDBRANCH  16  17
ENDBRANCH   2  16
TORSDOF 9
ENDMDL
MODEL 2
REMARK VINA RESULT:    -6.784      1.921      2.590
REMARK INTER + INTRA:          -9.944
REMARK INTER:                  -9.469
REMARK INTRA:                  -0.475
REMARK CONF_INDEPENDENT:        2.685
REMARK UNBOUND:                -0.475
REMARK  9 active torsions:
REMARK  status: ('A' for Active; 'I' for Inactive)
REMARK    1  A    between atoms: O_2  and  C_3 
REMARK    2  A    between atoms: C_5  and  C_6 
REMARK    3  A    between atoms: C_6  and  N_7 
REMARK       I    between atoms: N_7  and  C_8 
REMARK    4  A    between atoms: C_8  and  C_10 
REMARK    5  A    between atoms: C_10  and  C_11 
REMARK    6  A    between atoms: C_11  and  C_12 
REMARK    7  A    between atoms: C_12  and  N_13 
REMARK       I    between atoms: N_13  and  C_14 
REMARK    8  A    between atoms: C_14  and  C_16 
REMARK    9  A    between atoms: C_22  and  O_23 
ROOT
ATOM      1  N   UNL d   1      24.923 -16.172  -2.024  0.00  0.00    -0.357 N 
ATOM      2  C   UNL d   1      24.419 -16.682  -0.854  0.00  0.00     0.217 C 
ATOM      3  O   UNL d   1      23.653 -16.049  -0.131  0.00  0.00    -0.274 OA
ATOM      4  H   UNL d   1      25.545 -16.758  -2.555  0.00  0.00     0.162 HD
ENDROOT
BRANCH   1   5
ATOM      5  C   UNL d   1      24.585 -14.832  -2.498  0.00  0.00     0.161 C 
BRANCH   5   6
ATOM      6  C   UNL d   1      25.605 -14.200  -3.432  0.00  0.00    -0.038 A 
ATOM      7  C   UNL d   1      26.296 -14.996  -4.373  0.00  0.00     0.048 A 
ATOM      8  C   UNL d   1      27.252 -14.443  -5.253  0.00  0.00     0.101 A 
ATOM      9  C   UNL d   1      27.504 -13.067  -5.199  0.00  0.00     0.099 A 
ATOM     10  C   UNL d   1      26.834 -12.271  -4.280  0.00  0.00     0.040 A 
ATOM     11  C   UNL d   1      25.904 -12.832  -3.409  0.00  0.00     0.012 A 
BRANCH   8  12
ATOM     12  O   UNL d   1      27.846 -15.355  -6.092  0.00  0.00    -0.353 OA
ATOM     13  C   UNL d   1      29.115 -15.863  -5.687  0.00  0.00     0.210 C 
ENDBRANCH   8  12
BRANCH   9  14
ATOM     14  O   UNL d   1      28.401 -12.457  -6.031  0.00  0.00    -0.358 OA
ATOM     15  H   UNL d   1      28.657 -11.593  -5.673  0.00  0.00     0.217 HD
ENDBRANCH   9  14
ENDBRANCH   5   6
ENDBRANCH   1   5
BRANCH   2  16
ATOM     16  C   UNL d   1      24.891 -18.100  -0.532  0.00  0.00     0.104 C 
BRANCH  16  17
ATOM     17  C   UNL d   1      23.690 -19.039  -0.366  0.00  0.00     0.029 C 
BRANCH  17  18
ATOM     18  C   UNL d   1      22.350 -18.314  -0.413  0.00  0.00     0.123 C 
BRANCH  18  19
ATOM     19  N   UNL d   1      21.420 -18.796   0.599  0.00  0.00    -0.360 N 
ATOM     20  C   UNL d   1      20.413 -19.679   0.262  0.00  0.00     0.225 C 
ATOM     21  O   UNL d   1      20.278 -20.076  -0.895  0.00  0.00    -0.273 OA
ATOM     22  H   UNL d   1      21.520 -18.477   1.554  0.00  0.00     0.162 HD
BRANCH  20  23
ATOM     23  C   UNL d   1      19.475 -20.134   1.405  0.00  0.00     0.030 C 
ATOM     24  C   UNL d   1      18.671 -21.373   0.987  0.00  0.00     0.024 C 
ATOM     25  C   UNL d   1      20.278 -20.450   2.673  0.00  0.00     0.024 C 
ATOM     26  C   UNL d   1      18.483 -19.000   1.729  0.00  0.00     0.024 C 
ENDBRANCH  20  23
ENDBRANCH  18  19
ENDBRANCH  17  18
ENDBRANCH  16  17
ENDBRANCH   2  16
TORSDOF 9
ENDMDL
MODEL 3
REMARK VINA RESULT:    -6.752      3.372      7.929
REMARK INTER + INTRA:         -10.435
REMARK INTER:                  -9.436
REMARK INTRA:                  -0.998
REMARK CONF_INDEPENDENT:        2.685
REMARK UNBOUND:                -0.998
REMARK  9 active torsions:
REMARK  status: ('A' for Active; 'I' for Inactive)
REMARK    1  A    between atoms: O_2  and  C_3 
REMARK    2  A    between atoms: C_5  and  C_6 
REMARK    3  A    between atoms: C_6  and  N_7 
REMARK       I    between atoms: N_7  and  C_8 
REMARK    4  A    between atoms: C_8  and  C_10 
REMARK    5  A    between atoms: C_10  and  C_11 
REMARK    6  A    between atoms: C_11  and  C_12 
REMARK    7  A    between atoms: C_12  and  N_13 
REMARK       I    between atoms: N_13  and  C_14 
REMARK    8  A    between atoms: C_14  and  C_16 
REMARK    9  A    between atoms: C_22  and  O_23 
ROOT
ATOM      1  N   UNL d   1      26.825 -17.375   0.220  0.00  0.00    -0.357 N 
ATOM      2  C   UNL d   1      27.119 -16.721  -0.950  0.00  0.00     0.217 C 
ATOM      3  O   UNL d   1      26.561 -16.985  -2.013  0.00  0.00    -0.274 OA
ATOM      4  H   UNL d   1      27.330 -17.097   1.045  0.00  0.00     0.162 HD
ENDROOT
BRANCH   1   5
ATOM      5  C   UNL d   1      25.823 -18.436   0.289  0.00  0.00     0.161 C 
BRANCH   5   6
ATOM      6  C   UNL d   1      24.420 -18.027  -0.133  0.00  0.00    -0.038 A 
ATOM      7  C   UNL d   1      23.389 -18.991  -0.200  0.00  0.00     0.048 A 
ATOM      8  C   UNL d   1      22.076 -18.647  -0.591  0.00  0.00     0.101 A 
ATOM      9  C   UNL d   1      21.791 -17.312  -0.902  0.00  0.00     0.099 A 
ATOM     10  C   UNL d   1      22.793 -16.353  -0.843  0.00  0.00     0.040 A 
ATOM     11  C   UNL d   1      24.087 -16.709  -0.469  0.00  0.00     0.012 A 
BRANCH   8  12
ATOM     12  O   UNL d   1      21.198 -19.703  -0.621  0.00  0.00    -0.353 OA
ATOM     13  C   UNL d   1      20.566 -20.042   0.611  0.00  0.00     0.210 C 
ENDBRANCH   8  12
BRANCH   9  14
ATOM     14  O   UNL d   1      20.541 -16.900  -1.270  0.00  0.00    -0.358 OA
ATOM     15  H   UNL d   1      19.917 -17.642  -1.228  0.00  0.00     0.217 HD
ENDBRANCH   9  14
ENDBRANCH   5   6
ENDBRANCH   1   5
BRANCH   2  16
ATOM     16  C   UNL d   1      28.194 -15.643  -0.815  0.00  0.00     0.104 C 
BRANCH  16  17
ATOM     17  C   UNL d   1      27.958 -14.807   0.448  0.00  0.00     0.029 C 
BRANCH  17  18
ATOM     18  C   UNL d   1      29.247 -14.286   1.073  0.00  0.00     0.123 C 
BRANCH  18  19
ATOM     19  N   UNL d   1      29.271 -14.454   2.520  0.00  0.00    -0.360 N 
ATOM     20  C   UNL d   1      28.464 -13.679   3.330  0.00  0.00     0.225 C 
ATOM     21  O   UNL d   1      27.709 -12.834   2.851  0.00  0.00    -0.273 OA
ATOM     22  H   UNL d   1      29.888 -15.147   2.927  0.00  0.00     0.162 HD
BRANCH  20  23
ATOM     23  C   UNL d   1      28.560 -13.930   4.853  0.00  0.00     0.030 C 
ATOM     24  C   UNL d   1      27.779 -15.192   5.246  0.00  0.00     0.024 C 
ATOM     25  C   UNL d   1      30.023 -14.078   5.289  0.00  0.00     0.024 C 
ATOM     26  C   UNL d   1      27.950 -12.730   5.604  0.00  0.00     0.024 C 
ENDBRANCH  20  23
ENDBRANCH  18  19
ENDBRANCH  17  18
ENDBRANCH  16  17
ENDBRANCH   2  16
TORSDOF 9
ENDMDL
MODEL 4
REMARK VINA RESULT:    -6.564      1.195      2.255
REMARK INTER + INTRA:         -10.153
REMARK INTER:                  -9.248
REMARK INTRA:                  -0.905
REMARK CONF_INDEPENDENT:        2.685
REMARK UNBOUND:                -0.905
REMARK  9 active torsions:
REMARK  status: ('A' for Active; 'I' for Inactive)
REMARK    1  A    between atoms: O_2  and  C_3 
REMARK    2  A    between atoms: C_5  and  C_6 
REMARK    3  A    between atoms: C_6  and  N_7 
REMARK       I    between atoms: N_7  and  C_8 
REMARK    4  A    between atoms: C_8  and  C_10 
REMARK    5  A    between atoms: C_10  and  C_11 
REMARK    6  A    between atoms: C_11  and  C_12 
REMARK    7  A    between atoms: C_12  and  N_13 
REMARK       I    between atoms: N_13  and  C_14 
REMARK    8  A    between atoms: C_14  and  C_16 
REMARK    9  A    between atoms: C_22  and  O_23 
ROOT
ATOM      1  N   UNL d   1      25.246 -16.166  -0.301  0.00  0.00    -0.357 N 
ATOM      2  C   UNL d   1      25.251 -17.491   0.056  0.00  0.00     0.217 C 
ATOM      3  O   UNL d   1      26.285 -18.150   0.140  0.00  0.00    -0.274 OA
ATOM      4  H   UNL d   1      24.355 -15.702  -0.346  0.00  0.00     0.162 HD
ENDROOT
BRANCH   1   5
ATOM      5  C   UNL d   1      26.475 -15.439  -0.610  0.00  0.00     0.161 C 
BRANCH   5   6
ATOM      6  C   UNL d   1      26.821 -15.354  -2.089  0.00  0.00    -0.038 A 
ATOM      7  C   UNL d   1      28.142 -15.602  -2.525  0.00  0.00     0.048 A 
ATOM      8  C   UNL d   1      28.500 -15.528  -3.889  0.00  0.00     0.101 A 
ATOM      9  C   UNL d   1      27.511 -15.219  -4.831  0.00  0.00     0.099 A 
ATOM     10  C   UNL d   1      26.208 -14.972  -4.419  0.00  0.00     0.040 A 
ATOM     11  C   UNL d   1      25.873 -15.034  -3.068  0.00  0.00     0.012 A 
BRANCH   8  12
ATOM     12  O   UNL d   1      29.826 -15.778  -4.143  0.00  0.00    -0.353 OA
ATOM     13  C   UNL d   1      30.305 -17.078  -3.809  0.00  0.00     0.210 C 
ENDBRANCH   8  12
BRANCH   9  14
ATOM     14  O   UNL d   1      27.776 -15.148  -6.170  0.00  0.00    -0.358 OA
ATOM     15  H   UNL d   1      28.673 -14.810  -6.317  0.00  0.00     0.217 HD
ENDBRANCH   9  14
ENDBRANCH   5   6
ENDBRANCH   1   5
BRANCH   2  16
ATOM     16  C   UNL d   1      23.865 -18.070   0.341  0.00  0.00     0.104 C 
BRANCH  16  17
ATOM     17  C   UNL d   1      23.364 -18.876  -0.863  0.00  0.00     0.029 C 
BRANCH  17  18
ATOM     18  C   UNL d   1      21.846 -18.871  -0.999  0.00  0.00     0.123 C 
BRANCH  18  19
ATOM     19  N   UNL d   1      21.188 -19.587   0.085  0.00  0.00    -0.360 N 
ATOM     20  C   UNL d   1      19.842 -19.401   0.333  0.00  0.00     0.225 C 
ATOM     21  O   UNL d   1      19.171 -18.631  -0.353  0.00  0.00    -0.273 OA
ATOM     22  H   UNL d   1      21.728 -20.224   0.657  0.00  0.00     0.162 HD
BRANCH  20  23
ATOM     23  C   UNL d   1      19.232 -20.205   1.505  0.00  0.00     0.030 C 
ATOM     24  C   UNL d   1      20.280 -20.449   2.599  0.00  0.00     0.024 C 
ATOM     25  C   UNL d   1      18.030 -19.464   2.105  0.00  0.00     0.024 C 
ATOM     26  C   UNL d   1      18.747 -21.572   0.985  0.00  0.00     0.024 C 
ENDBRANCH  20  23
ENDBRANCH  18  19
ENDBRANCH  17  18
ENDBRANCH  16  17
ENDBRANCH   2  16
TORSDOF 9
ENDMDL
MODEL 5
REMARK VINA RESULT:    -6.099      2.079      8.602
REMARK INTER + INTRA:         -10.173
REMARK INTER:                  -8.784
REMARK INTRA:                  -1.389
REMARK CONF_INDEPENDENT:        2.685
REMARK UNBOUND:                -1.389
REMARK  9 active torsions:
REMARK  status: ('A' for Active; 'I' for Inactive)
REMARK    1  A    between atoms: O_2  and  C_3 
REMARK    2  A    between atoms: C_5  and  C_6 
REMARK    3  A    between atoms: C_6  and  N_7 
REMARK       I    between atoms: N_7  and  C_8 
REMARK    4  A    between atoms: C_8  and  C_10 
REMARK    5  A    between atoms: C_10  and  C_11 
REMARK    6  A    between atoms: C_11  and  C_12 
REMARK    7  A    between atoms: C_12  and  N_13 
REMARK       I    between atoms: N_13  and  C_14 
REMARK    8  A    between atoms: C_14  and  C_16 
REMARK    9  A    between atoms: C_22  and  O_23 
ROOT
ATOM      1  N   UNL d   1      23.545 -18.680  -0.647  0.00  0.00    -0.357 N 
ATOM      2  C   UNL d   1      24.477 -17.705  -0.398  0.00  0.00     0.217 C 
ATOM      3  O   UNL d   1      24.267 -16.515  -0.624  0.00  0.00    -0.274 OA
ATOM      4  H   UNL d   1      23.799 -19.630  -0.433  0.00  0.00     0.162 HD
ENDROOT
BRANCH   1   5
ATOM      5  C   UNL d   1      22.227 -18.374  -1.200  0.00  0.00     0.161 C 
BRANCH   5   6
ATOM      6  C   UNL d   1      21.056 -19.020  -0.475  0.00  0.00    -0.038 A 
ATOM      7  C   UNL d   1      21.050 -19.101   0.935  0.00  0.00     0.048 A 
ATOM      8  C   UNL d   1      19.981 -19.697   1.640  0.00  0.00     0.101 A 
ATOM      9  C   UNL d   1      18.894 -20.203   0.917  0.00  0.00     0.099 A 
ATOM     10  C   UNL d   1      18.885 -20.133  -0.469  0.00  0.00     0.040 A 
ATOM     11  C   UNL d   1      19.953 -19.555  -1.152  0.00  0.00     0.012 A 
BRANCH   8  12
ATOM     12  O   UNL d   1      20.139 -19.711   3.005  0.00  0.00    -0.353 OA
ATOM     13  C   UNL d   1      19.585 -20.825   3.700  0.00  0.00     0.210 C 
ENDBRANCH   8  12
BRANCH   9  14
ATOM     14  O   UNL d   1      17.815 -20.777   1.530  0.00  0.00    -0.358 OA
ATOM     15  H   UNL d   1      18.095 -21.246   2.332  0.00  0.00     0.217 HD
ENDBRANCH   9  14
ENDBRANCH   5   6
ENDBRANCH   1   5
BRANCH   2  16
ATOM     16  C   UNL d   1      25.792 -18.226   0.182  0.00  0.00     0.104 C 
BRANCH  16  17
ATOM     17  C   UNL d   1      26.818 -17.092   0.285  0.00  0.00     0.029 C 
BRANCH  17  18
ATOM     18  C   UNL d   1      27.511 -16.787  -1.038  0.00  0.00     0.123 C 
BRANCH  18  19
ATOM     19  N   UNL d   1      26.656 -16.048  -1.956  0.00  0.00    -0.360 N 
ATOM     20  C   UNL d   1      27.151 -14.968  -2.662  0.00  0.00     0.225 C 
ATOM     21  O   UNL d   1      28.320 -14.608  -2.532  0.00  0.00    -0.273 OA
ATOM     22  H   UNL d   1      25.691 -16.334  -2.073  0.00  0.00     0.162 HD
BRANCH  20  23
ATOM     23  C   UNL d   1      26.167 -14.247  -3.613  0.00  0.00     0.030 C 
ATOM     24  C   UNL d   1      26.456 -12.740  -3.651  0.00  0.00     0.024 C 
ATOM     25  C   UNL d   1      26.262 -14.822  -5.032  0.00  0.00     0.024 C 
ATOM     26  C   UNL d   1      24.727 -14.451  -3.102  0.00  0.00     0.024 C 
ENDBRANCH  20  23
ENDBRANCH  18  19
ENDBRANCH  17  18
ENDBRANCH  16  17
ENDBRANCH   2  16
TORSDOF 9
ENDMDL
MODEL 6
REMARK VINA RESULT:    -5.853      2.231      7.101
REMARK INTER + INTRA:         -10.590
REMARK INTER:                  -8.538
REMARK INTRA:                  -2.052
REMARK CONF_INDEPENDENT:        2.685
REMARK UNBOUND:                -2.052
REMARK  9 active torsions:
REMARK  status: ('A' for Active; 'I' for Inactive)
REMARK    1  A    between atoms: O_2  and  C_3 
REMARK    2  A    between atoms: C_5  and  C_6 
REMARK    3  A    between atoms: C_6  and  N_7 
REMARK       I    between atoms: N_7  and  C_8 
REMARK    4  A    between atoms: C_8  and  C_10 
REMARK    5  A    between atoms: C_10  and  C_11 
REMARK    6  A    between atoms: C_11  and  C_12 
REMARK    7  A    between atoms: C_12  and  N_13 
REMARK       I    between atoms: N_13  and  C_14 
REMARK    8  A    between atoms: C_14  and  C_16 
REMARK    9  A    between atoms: C_22  and  O_23 
ROOT
ATOM      1  N   UNL d   1      26.877 -17.147   0.509  0.00  0.00    -0.357 N 
ATOM      2  C   UNL d   1      27.645 -16.633  -0.506  0.00  0.00     0.217 C 
ATOM      3  O   UNL d   1      27.633 -17.096  -1.644  0.00  0.00    -0.274 OA
ATOM      4  H   UNL d   1      26.948 -16.707   1.411  0.00  0.00     0.162 HD
ENDROOT
BRANCH   1   5
ATOM      5  C   UNL d   1      25.986 -18.287   0.309  0.00  0.00     0.161 C 
BRANCH   5   6
ATOM      6  C   UNL d   1      24.570 -17.933  -0.118  0.00  0.00    -0.038 A 
ATOM      7  C   UNL d   1      23.570 -18.930  -0.165  0.00  0.00     0.048 A 
ATOM      8  C   UNL d   1      22.247 -18.637  -0.561  0.00  0.00     0.101 A 
ATOM      9  C   UNL d   1      21.918 -17.318  -0.897  0.00  0.00     0.099 A 
ATOM     10  C   UNL d   1      22.888 -16.326  -0.857  0.00  0.00     0.040 A 
ATOM     11  C   UNL d   1      24.193 -16.633  -0.478  0.00  0.00     0.012 A 
BRANCH   8  12
ATOM     12  O   UNL d   1      21.403 -19.722  -0.569  0.00  0.00    -0.353 OA
ATOM     13  C   UNL d   1      20.341 -19.711   0.381  0.00  0.00     0.210 C 
ENDBRANCH   8  12
BRANCH   9  14
ATOM     14  O   UNL d   1      20.655 -16.955  -1.271  0.00  0.00    -0.358 OA
ATOM     15  H   UNL d   1      20.012 -17.614  -0.967  0.00  0.00     0.217 HD
ENDBRANCH   9  14
ENDBRANCH   5   6
ENDBRANCH   1   5
BRANCH   2  16
ATOM     16  C   UNL d   1      28.509 -15.440  -0.097  0.00  0.00     0.104 C 
BRANCH  16  17
ATOM     17  C   UNL d   1      27.679 -14.424   0.696  0.00  0.00     0.029 C 
BRANCH  17  18
ATOM     18  C   UNL d   1      26.337 -14.108   0.047  0.00  0.00     0.123 C 
BRANCH  18  19
ATOM     19  N   UNL d   1      26.323 -14.407  -1.378  0.00  0.00    -0.360 N 
ATOM     20  C   UNL d   1      26.356 -13.386  -2.308  0.00  0.00     0.225 C 
ATOM     21  O   UNL d   1      26.398 -12.208  -1.957  0.00  0.00    -0.273 OA
ATOM     22  H   UNL d   1      26.289 -15.372  -1.681  0.00  0.00     0.162 HD
BRANCH  20  23
ATOM     23  C   UNL d   1      26.339 -13.801  -3.799  0.00  0.00     0.030 C 
ATOM     24  C   UNL d   1      25.797 -15.228  -3.958  0.00  0.00     0.024 C 
ATOM     25  C   UNL d   1      25.480 -12.833  -4.622  0.00  0.00     0.024 C 
ATOM     26  C   UNL d   1      27.777 -13.765  -4.352  0.00  0.00     0.024 C 
ENDBRANCH  20  23
ENDBRANCH  18  19
ENDBRANCH  17  18
ENDBRANCH  16  17
ENDBRANCH   2  16
TORSDOF 9
ENDMDL
MODEL 7
REMARK VINA RESULT:    -5.557      3.475      6.093
REMARK INTER + INTRA:         -10.384
REMARK INTER:                  -8.242
REMARK INTRA:                  -2.142
REMARK CONF_INDEPENDENT:        2.685
REMARK UNBOUND:                -2.142
REMARK  9 active torsions:
REMARK  status: ('A' for Active; 'I' for Inactive)
REMARK    1  A    between atoms: O_2  and  C_3 
REMARK    2  A    between atoms: C_5  and  C_6 
REMARK    3  A    between atoms: C_6  and  N_7 
REMARK       I    between atoms: N_7  and  C_8 
REMARK    4  A    between atoms: C_8  and  C_10 
REMARK    5  A    between atoms: C_10  and  C_11 
REMARK    6  A    between atoms: C_11  and  C_12 
REMARK    7  A    between atoms: C_12  and  N_13 
REMARK       I    between atoms: N_13  and  C_14 
REMARK    8  A    between atoms: C_14  and  C_16 
REMARK    9  A    between atoms: C_22  and  O_23 
ROOT
ATOM      1  N   UNL d   1      25.144 -16.130  -0.937  0.00  0.00    -0.357 N 
ATOM      2  C   UNL d   1      25.038 -17.446  -0.564  0.00  0.00     0.217 C 
ATOM      3  O   UNL d   1      24.265 -18.229  -1.112  0.00  0.00    -0.274 OA
ATOM      4  H   UNL d   1      25.802 -15.559  -0.436  0.00  0.00     0.162 HD
ENDROOT
BRANCH   1   5
ATOM      5  C   UNL d   1      24.341 -15.561  -2.017  0.00  0.00     0.161 C 
BRANCH   5   6
ATOM      6  C   UNL d   1      25.124 -14.781  -3.062  0.00  0.00    -0.038 A 
ATOM      7  C   UNL d   1      25.959 -15.461  -3.978  0.00  0.00     0.048 A 
ATOM      8  C   UNL d   1      26.703 -14.769  -4.958  0.00  0.00     0.101 A 
ATOM      9  C   UNL d   1      26.593 -13.375  -5.032  0.00  0.00     0.099 A 
ATOM     10  C   UNL d   1      25.778 -12.692  -4.139  0.00  0.00     0.040 A 
ATOM     11  C   UNL d   1      25.060 -13.387  -3.168  0.00  0.00     0.012 A 
BRANCH   8  12
ATOM     12  O   UNL d   1      27.478 -15.575  -5.757  0.00  0.00    -0.353 OA
ATOM     13  C   UNL d   1      28.890 -15.421  -5.640  0.00  0.00     0.210 C 
ENDBRANCH   8  12
BRANCH   9  14
ATOM     14  O   UNL d   1      27.266 -12.638  -5.966  0.00  0.00    -0.358 OA
ATOM     15  H   UNL d   1      27.800 -13.219  -6.530  0.00  0.00     0.217 HD
ENDBRANCH   9  14
ENDBRANCH   5   6
ENDBRANCH   1   5
BRANCH   2  16
ATOM     16  C   UNL d   1      25.963 -17.851   0.584  0.00  0.00     0.104 C 
BRANCH  16  17
ATOM     17  C   UNL d   1      27.416 -17.924   0.101  0.00  0.00     0.029 C 
BRANCH  17  18
ATOM     18  C   UNL d   1      27.967 -16.576  -0.352  0.00  0.00     0.123 C 
BRANCH  18  19
ATOM     19  N   UNL d   1      28.264 -15.693   0.767  0.00  0.00    -0.360 N 
ATOM     20  C   UNL d   1      27.558 -14.518   0.940  0.00  0.00     0.225 C 
ATOM     21  O   UNL d   1      26.665 -14.193   0.158  0.00  0.00    -0.273 OA
ATOM     22  H   UNL d   1      28.996 -15.948   1.418  0.00  0.00     0.162 HD
BRANCH  20  23
ATOM     23  C   UNL d   1      27.946 -13.645   2.157  0.00  0.00     0.030 C 
ATOM     24  C   UNL d   1      27.084 -12.376   2.211  0.00  0.00     0.024 C 
ATOM     25  C   UNL d   1      27.782 -14.431   3.464  0.00  0.00     0.024 C 
ATOM     26  C   UNL d   1      29.423 -13.222   2.027  0.00  0.00     0.024 C 
ENDBRANCH  20  23
ENDBRANCH  18  19
ENDBRANCH  17  18
ENDBRANCH  16  17
ENDBRANCH   2  16
TORSDOF 9
ENDMDL
MODEL 8
REMARK VINA RESULT:    -4.969      3.011      5.779
REMARK INTER + INTRA:         -10.353
REMARK INTER:                  -7.653
REMARK INTRA:                  -2.699
REMARK CONF_INDEPENDENT:        2.685
REMARK UNBOUND:                -2.699
REMARK  9 active torsions:
REMARK  status: ('A' for Active; 'I' for Inactive)
REMARK    1  A    between atoms: O_2  and  C_3 
REMARK    2  A    between atoms: C_5  and  C_6 
REMARK    3  A    between atoms: C_6  and  N_7 
REMARK       I    between atoms: N_7  and  C_8 
REMARK    4  A    between atoms: C_8  and  C_10 
REMARK    5  A    between atoms: C_10  and  C_11 
REMARK    6  A    between atoms: C_11  and  C_12 
REMARK    7  A    between atoms: C_12  and  N_13 
REMARK       I    between atoms: N_13  and  C_14 
REMARK    8  A    between atoms: C_14  and  C_16 
REMARK    9  A    between atoms: C_22  and  O_23 
ROOT
ATOM      1  N   UNL d   1      24.686 -16.169  -2.025  0.00  0.00    -0.357 N 
ATOM      2  C   UNL d   1      23.910 -16.817  -1.098  0.00  0.00     0.217 C 
ATOM      3  O   UNL d   1      22.902 -16.311  -0.608  0.00  0.00    -0.274 OA
ATOM      4  H   UNL d   1      25.494 -16.655  -2.374  0.00  0.00     0.162 HD
ENDROOT
BRANCH   1   5
ATOM      5  C   UNL d   1      24.369 -14.824  -2.501  0.00  0.00     0.161 C 
BRANCH   5   6
ATOM      6  C   UNL d   1      25.352 -14.247  -3.508  0.00  0.00    -0.038 A 
ATOM      7  C   UNL d   1      26.149 -15.108  -4.297  0.00  0.00     0.048 A 
ATOM      8  C   UNL d   1      27.074 -14.606  -5.239  0.00  0.00     0.101 A 
ATOM      9  C   UNL d   1      27.186 -13.221  -5.404  0.00  0.00     0.099 A 
ATOM     10  C   UNL d   1      26.411 -12.361  -4.637  0.00  0.00     0.040 A 
ATOM     11  C   UNL d   1      25.513 -12.870  -3.702  0.00  0.00     0.012 A 
BRANCH   8  12
ATOM     12  O   UNL d   1      27.782 -15.574  -5.909  0.00  0.00    -0.353 OA
ATOM     13  C   UNL d   1      29.201 -15.532  -5.778  0.00  0.00     0.210 C 
ENDBRANCH   8  12
BRANCH   9  14
ATOM     14  O   UNL d   1      28.045 -12.662  -6.310  0.00  0.00    -0.358 OA
ATOM     15  H   UNL d   1      28.431 -13.349  -6.875  0.00  0.00     0.217 HD
ENDBRANCH   9  14
ENDBRANCH   5   6
ENDBRANCH   1   5
BRANCH   2  16
ATOM     16  C   UNL d   1      24.406 -18.216  -0.731  0.00  0.00     0.104 C 
BRANCH  16  17
ATOM     17  C   UNL d   1      25.082 -18.200   0.646  0.00  0.00     0.029 C 
BRANCH  17  18
ATOM     18  C   UNL d   1      26.592 -18.391   0.576  0.00  0.00     0.123 C 
BRANCH  18  19
ATOM     19  N   UNL d   1      27.309 -17.127   0.486  0.00  0.00    -0.360 N 
ATOM     20  C   UNL d   1      27.550 -16.542  -0.742  0.00  0.00     0.225 C 
ATOM     21  O   UNL d   1      27.165 -17.072  -1.783  0.00  0.00    -0.273 OA
ATOM     22  H   UNL d   1      27.631 -16.680   1.336  0.00  0.00     0.162 HD
BRANCH  20  23
ATOM     23  C   UNL d   1      28.319 -15.200  -0.736  0.00  0.00     0.030 C 
ATOM     24  C   UNL d   1      27.366 -14.029  -0.462  0.00  0.00     0.024 C 
ATOM     25  C   UNL d   1      29.428 -15.215   0.324  0.00  0.00     0.024 C 
ATOM     26  C   UNL d   1      28.970 -14.982  -2.116  0.00  0.00     0.024 C 
ENDBRANCH  20  23
ENDBRANCH  18  19
ENDBRANCH  17  18
ENDBRANCH  16  17
ENDBRANCH   2  16
TORSDOF 9
ENDMDL
MODEL 9
REMARK VINA RESULT:    -4.943      3.308      7.286
REMARK INTER + INTRA:          -9.897
REMARK INTER:                  -7.628
REMARK INTRA:                  -2.269
REMARK CONF_INDEPENDENT:        2.685
REMARK UNBOUND:                -2.269
REMARK  9 active torsions:
REMARK  status: ('A' for Active; 'I' for Inactive)
REMARK    1  A    between atoms: O_2  and  C_3 
REMARK    2  A    between atoms: C_5  and  C_6 
REMARK    3  A    between atoms: C_6  and  N_7 
REMARK       I    between atoms: N_7  and  C_8 
REMARK    4  A    between atoms: C_8  and  C_10 
REMARK    5  A    between atoms: C_10  and  C_11 
REMARK    6  A    between atoms: C_11  and  C_12 
REMARK    7  A    between atoms: C_12  and  N_13 
REMARK       I    between atoms: N_13  and  C_14 
REMARK    8  A    between atoms: C_14  and  C_16 
REMARK    9  A    between atoms: C_22  and  O_23 
ROOT
ATOM      1  N   UNL d   1      28.634 -16.026  -3.234  0.00  0.00    -0.357 N 
ATOM      2  C   UNL d   1      29.773 -16.733  -3.525  0.00  0.00     0.217 C 
ATOM      3  O   UNL d   1      30.566 -17.096  -2.658  0.00  0.00    -0.274 OA
ATOM      4  H   UNL d   1      28.040 -15.768  -4.003  0.00  0.00     0.162 HD
ENDROOT
BRANCH   1   5
ATOM      5  C   UNL d   1      28.278 -15.653  -1.866  0.00  0.00     0.161 C 
BRANCH   5   6
ATOM      6  C   UNL d   1      27.159 -16.474  -1.243  0.00  0.00    -0.038 A 
ATOM      7  C   UNL d   1      25.818 -16.259  -1.633  0.00  0.00     0.048 A 
ATOM      8  C   UNL d   1      24.755 -17.000  -1.072  0.00  0.00     0.101 A 
ATOM      9  C   UNL d   1      25.045 -17.984  -0.119  0.00  0.00     0.099 A 
ATOM     10  C   UNL d   1      26.358 -18.207   0.275  0.00  0.00     0.040 A 
ATOM     11  C   UNL d   1      27.395 -17.459  -0.276  0.00  0.00     0.012 A 
BRANCH   8  12
ATOM     12  O   UNL d   1      23.512 -16.657  -1.545  0.00  0.00    -0.353 OA
ATOM     13  C   UNL d   1      22.526 -16.327  -0.570  0.00  0.00     0.210 C 
ENDBRANCH   8  12
BRANCH   9  14
ATOM     14  O   UNL d   1      24.072 -18.754   0.453  0.00  0.00    -0.358 OA
ATOM     15  H   UNL d   1      23.234 -18.644  -0.022  0.00  0.00     0.217 HD
ENDBRANCH   9  14
ENDBRANCH   5   6
ENDBRANCH   1   5
BRANCH   2  16
ATOM     16  C   UNL d   1      29.968 -17.027  -5.012  0.00  0.00     0.104 C 
BRANCH  16  17
ATOM     17  C   UNL d   1      30.239 -15.730  -5.783  0.00  0.00     0.029 C 
BRANCH  17  18
ATOM     18  C   UNL d   1      29.013 -15.200  -6.517  0.00  0.00     0.123 C 
BRANCH  18  19
ATOM     19  N   UNL d   1      28.278 -14.217  -5.734  0.00  0.00    -0.360 N 
ATOM     20  C   UNL d   1      26.999 -14.488  -5.288  0.00  0.00     0.225 C 
ATOM     21  O   UNL d   1      26.454 -15.562  -5.541  0.00  0.00    -0.273 OA
ATOM     22  H   UNL d   1      28.715 -13.329  -5.518  0.00  0.00     0.162 HD
BRANCH  20  23
ATOM     23  C   UNL d   1      26.299 -13.382  -4.464  0.00  0.00     0.030 C 
ATOM     24  C   UNL d   1      27.213 -12.883  -3.337  0.00  0.00     0.024 C 
ATOM     25  C   UNL d   1      25.904 -12.203  -5.362  0.00  0.00     0.024 C 
ATOM     26  C   UNL d   1      25.017 -13.958  -3.828  0.00  0.00     0.024 C 
ENDBRANCH  20  23
ENDBRANCH  18  19
ENDBRANCH  17  18
ENDBRANCH  16  17
ENDBRANCH   2  16
TORSDOF 9
ENDMDL
