MODEL 1
REMARK VINA RESULT:   -10.952      0.000      0.000
REMARK INTER + INTRA:         -14.812
REMARK INTER:                 -13.637
REMARK INTRA:                  -1.174
REMARK CONF_INDEPENDENT:        2.685
REMARK UNBOUND:                -1.174
REMARK  9 active torsions:
REMARK  status: ('A' for Active; 'I' for Inactive)
REMARK    1  A    between atoms: C_2  and  C_3 
REMARK       I    between atoms: C_2  and  N_20 
REMARK    2  A    between atoms: C_3  and  N_4 
REMARK    3  A    between atoms: N_4  and  C_5 
REMARK    4  A    between atoms: C_8  and  C_9 
REMARK       I    between atoms: C_9  and  N_11 
REMARK    5  A    between atoms: N_11  and  C_12 
REMARK    6  A    between atoms: C_12  and  C_13 
REMARK    7  A    between atoms: N_20  and  C_21 
REMARK    8  A    between atoms: C_25  and  C_26 
REMARK       I    between atoms: C_26  and  N_28 
REMARK    9  A    between atoms: N_28  and  C_29 
ROOT
ATOM      1  O   UNL d   1      26.438 -13.244  -0.357  0.00  0.00    -0.271 OA
ATOM      2  C   UNL d   1      27.283 -13.709   0.412  0.00  0.00     0.239 C 
ATOM      3  N   UNL d   1      27.341 -13.250   1.719  0.00  0.00    -0.326 N 
ATOM      4  H   UNL d   1      26.579 -12.633   1.978  0.00  0.00     0.169 HD
ENDROOT
BRANCH   2   5
ATOM      5  C   UNL d   1      28.212 -14.869   0.013  0.00  0.00     0.223 C 
BRANCH   5   6
ATOM      6  N   UNL d   1      27.818 -16.164   0.548  0.00  0.00    -0.381 N 
ATOM      7  H   UNL d   1      28.482 -16.671   1.125  0.00  0.00     0.160 HD
BRANCH   6   8
ATOM      8  C   UNL d   1      26.593 -16.701   0.198  0.00  0.00     0.028 A 
ATOM      9  C   UNL d   1      25.708 -16.019  -0.640  0.00  0.00     0.030 A 
ATOM     10  C   UNL d   1      24.472 -16.591  -1.003  0.00  0.00     0.019 A 
ATOM     11  C   UNL d   1      24.127 -17.890  -0.591  0.00  0.00     0.032 A 
ATOM     12  C   UNL d   1      25.010 -18.567   0.247  0.00  0.00     0.019 A 
ATOM     13  C   UNL d   1      26.223 -17.981   0.619  0.00  0.00     0.030 A 
BRANCH  11  14
ATOM     14  C   UNL d   1      22.871 -18.531  -1.100  0.00  0.00     0.251 C 
ATOM     15  O   UNL d   1      22.907 -19.202  -2.133  0.00  0.00    -0.268 OA
ATOM     16  N   UNL d   1      21.706 -18.377  -0.366  0.00  0.00    -0.351 N 
ATOM     17  H   UNL d   1      21.659 -17.837   0.483  0.00  0.00     0.163 HD
BRANCH  16  18
ATOM     18  C   UNL d   1      20.479 -19.000  -0.802  0.00  0.00     0.187 C 
BRANCH  18  19
ATOM     19  C   UNL d   1      19.770 -19.734   0.287  0.00  0.00     0.070 A 
ATOM     20  C   UNL d   1      18.753 -20.667   0.226  0.00  0.00     0.036 A 
ATOM     21  C   UNL d   1      18.407 -20.987   1.558  0.00  0.00     0.027 A 
ATOM     22  C   UNL d   1      19.239 -20.237   2.356  0.00  0.00     0.142 A 
ATOM     23  O   UNL d   1      20.076 -19.473   1.596  0.00  0.00    -0.325 OA
ENDBRANCH  18  19
ENDBRANCH  16  18
ENDBRANCH  11  14
ENDBRANCH   6   8
ENDBRANCH   5   6
ENDBRANCH   2   5
BRANCH   3  24
ATOM     24  C   UNL d   1      28.298 -13.565   2.700  0.00  0.00     0.035 A 
ATOM     25  C   UNL d   1      29.574 -13.990   2.340  0.00  0.00     0.029 A 
ATOM     26  C   UNL d   1      30.494 -14.336   3.338  0.00  0.00     0.003 A 
ATOM     27  C   UNL d   1      30.154 -14.202   4.691  0.00  0.00     0.017 A 
ATOM     28  C   UNL d   1      28.867 -13.798   5.058  0.00  0.00     0.034 A 
ATOM     29  C   UNL d   1      27.947 -13.539   4.048  0.00  0.00     0.046 A 
BRANCH  28  30
ATOM     30  C   UNL d   1      28.480 -13.700   6.495  0.00  0.00     0.252 C 
ATOM     31  O   UNL d   1      27.551 -12.949   6.799  0.00  0.00    -0.268 OA
ATOM     32  N   UNL d   1      29.181 -14.447   7.441  0.00  0.00    -0.352 N 
ATOM     33  H   UNL d   1      29.964 -15.034   7.197  0.00  0.00     0.163 HD
BRANCH  32  34
ATOM     34  C   UNL d   1      28.903 -14.284   8.862  0.00  0.00     0.084 C 
ATOM     35  C   UNL d   1      29.948 -14.957   9.776  0.00  0.00     0.025 C 
ATOM     36  C   UNL d   1      29.594 -14.743  11.254  0.00  0.00     0.002 C 
ATOM     37  C   UNL d   1      29.436 -13.261  11.592  0.00  0.00     0.000 C 
ATOM     38  C   UNL d   1      28.421 -12.597  10.670  0.00  0.00     0.002 C 
ATOM     39  C   UNL d   1      28.796 -12.793   9.211  0.00  0.00     0.025 C 
ENDBRANCH  32  34
ENDBRANCH  28  30
ENDBRANCH   3  24
TORSDOF 9
ENDMDL
MODEL 2
REMARK VINA RESULT:   -10.920      1.762     10.385
REMARK INTER + INTRA:         -15.314
REMARK INTER:                 -13.604
REMARK INTRA:                  -1.709
REMARK CONF_INDEPENDENT:        2.685
REMARK UNBOUND:                -1.709
REMARK  9 active torsions:
REMARK  status: ('A' for Active; 'I' for Inactive)
REMARK    1  A    between atoms: C_2  and  C_3 
REMARK       I    between atoms: C_2  and  N_20 
REMARK    2  A    between atoms: C_3  and  N_4 
REMARK    3  A    between atoms: N_4  and  C_5 
REMARK    4  A    between atoms: C_8  and  C_9 
REMARK       I    between atoms: C_9  and  N_11 
REMARK    5  A    between atoms: N_11  and  C_12 
REMARK    6  A    between atoms: C_12  and  C_13 
REMARK    7  A    between atoms: N_20  and  C_21 
REMARK    8  A    between atoms: C_25  and  C_26 
REMARK       I    between atoms: C_26  and  N_28 
REMARK    9  A    between atoms: N_28  and  C_29 
ROOT
ATOM      1  O   UNL d   1      26.372 -13.598  -3.789  0.00  0.00    -0.271 OA
ATOM      2  C   UNL d   1      26.148 -14.230  -2.754  0.00  0.00     0.239 C 
ATOM      3  N   UNL d   1      25.858 -15.584  -2.832  0.00  0.00    -0.326 N 
ATOM      4  H   UNL d   1      25.976 -15.983  -3.757  0.00  0.00     0.169 HD
ENDROOT
BRANCH   2   5
ATOM      5  C   UNL d   1      26.288 -13.602  -1.357  0.00  0.00     0.223 C 
BRANCH   5   6
ATOM      6  N   UNL d   1      27.646 -13.597  -0.835  0.00  0.00    -0.381 N 
ATOM      7  H   UNL d   1      28.418 -13.606  -1.494  0.00  0.00     0.160 HD
BRANCH   6   8
ATOM      8  C   UNL d   1      27.850 -13.658   0.531  0.00  0.00     0.028 A 
ATOM      9  C   UNL d   1      26.824 -13.377   1.437  0.00  0.00     0.030 A 
ATOM     10  C   UNL d   1      27.045 -13.463   2.827  0.00  0.00     0.019 A 
ATOM     11  C   UNL d   1      28.279 -13.904   3.337  0.00  0.00     0.032 A 
ATOM     12  C   UNL d   1      29.301 -14.181   2.432  0.00  0.00     0.019 A 
ATOM     13  C   UNL d   1      29.078 -14.069   1.057  0.00  0.00     0.030 A 
BRANCH  11  14
ATOM     14  C   UNL d   1      28.448 -14.120   4.811  0.00  0.00     0.251 C 
ATOM     15  O   UNL d   1      27.451 -14.245   5.524  0.00  0.00    -0.268 OA
ATOM     16  N   UNL d   1      29.731 -14.210   5.323  0.00  0.00    -0.351 N 
ATOM     17  H   UNL d   1      30.558 -14.117   4.755  0.00  0.00     0.163 HD
BRANCH  16  18
ATOM     18  C   UNL d   1      29.943 -14.448   6.731  0.00  0.00     0.187 C 
BRANCH  18  19
ATOM     19  C   UNL d   1      29.393 -13.367   7.602  0.00  0.00     0.070 A 
ATOM     20  C   UNL d   1      29.612 -12.003   7.587  0.00  0.00     0.036 A 
ATOM     21  C   UNL d   1      28.895 -11.459   8.677  0.00  0.00     0.027 A 
ATOM     22  C   UNL d   1      28.273 -12.521   9.289  0.00  0.00     0.142 A 
ATOM     23  O   UNL d   1      28.564 -13.688   8.644  0.00  0.00    -0.325 OA
ENDBRANCH  18  19
ENDBRANCH  16  18
ENDBRANCH  11  14
ENDBRANCH   6   8
ENDBRANCH   5   6
ENDBRANCH   2   5
BRANCH   3  24
ATOM     24  C   UNL d   1      25.462 -16.441  -1.789  0.00  0.00     0.035 A 
ATOM     25  C   UNL d   1      26.407 -17.021  -0.946  0.00  0.00     0.029 A 
ATOM     26  C   UNL d   1      25.987 -17.902   0.058  0.00  0.00     0.003 A 
ATOM     27  C   UNL d   1      24.622 -18.156   0.252  0.00  0.00     0.017 A 
ATOM     28  C   UNL d   1      23.672 -17.595  -0.606  0.00  0.00     0.034 A 
ATOM     29  C   UNL d   1      24.121 -16.788  -1.645  0.00  0.00     0.046 A 
BRANCH  28  30
ATOM     30  C   UNL d   1      22.221 -17.899  -0.439  0.00  0.00     0.252 C 
ATOM     31  O   UNL d   1      21.402 -17.099  -0.895  0.00  0.00    -0.268 OA
ATOM     32  N   UNL d   1      21.843 -19.062   0.230  0.00  0.00    -0.352 N 
ATOM     33  H   UNL d   1      22.513 -19.698   0.634  0.00  0.00     0.163 HD
BRANCH  32  34
ATOM     34  C   UNL d   1      20.438 -19.326   0.510  0.00  0.00     0.084 C 
ATOM     35  C   UNL d   1      19.774 -20.278  -0.506  0.00  0.00     0.025 C 
ATOM     36  C   UNL d   1      18.300 -20.513  -0.148  0.00  0.00     0.002 C 
ATOM     37  C   UNL d   1      18.138 -21.029   1.281  0.00  0.00     0.000 C 
ATOM     38  C   UNL d   1      18.815 -20.098   2.278  0.00  0.00     0.002 C 
ATOM     39  C   UNL d   1      20.280 -19.894   1.928  0.00  0.00     0.025 C 
ENDBRANCH  32  34
ENDBRANCH  28  30
ENDBRANCH   3  24
TORSDOF 9
ENDMDL
MODEL 3
REMARK VINA RESULT:   -10.524      1.478     10.880
REMARK INTER + INTRA:         -14.908
REMARK INTER:                 -13.208
REMARK INTRA:                  -1.700
REMARK CONF_INDEPENDENT:        2.685
REMARK UNBOUND:                -1.700
REMARK  9 active torsions:
REMARK  status: ('A' for Active; 'I' for Inactive)
REMARK    1  A    between atoms: C_2  and  C_3 
REMARK       I    between atoms: C_2  and  N_20 
REMARK    2  A    between atoms: C_3  and  N_4 
REMARK    3  A    between atoms: N_4  and  C_5 
REMARK    4  A    between atoms: C_8  and  C_9 
REMARK       I    between atoms: C_9  and  N_11 
REMARK    5  A    between atoms: N_11  and  C_12 
REMARK    6  A    between atoms: C_12  and  C_13 
REMARK    7  A    between atoms: N_20  and  C_21 
REMARK    8  A    between atoms: C_25  and  C_26 
REMARK       I    between atoms: C_26  and  N_28 
REMARK    9  A    between atoms: N_28  and  C_29 
ROOT
ATOM      1  O   UNL d   1      26.882 -12.639  -1.159  0.00  0.00    -0.271 OA
ATOM      2  C   UNL d   1      26.634 -13.711  -0.602  0.00  0.00     0.239 C 
ATOM      3  N   UNL d   1      26.200 -14.788  -1.359  0.00  0.00    -0.326 N 
ATOM      4  H   UNL d   1      26.236 -14.635  -2.361  0.00  0.00     0.169 HD
ENDROOT
BRANCH   2   5
ATOM      5  C   UNL d   1      26.897 -13.942   0.896  0.00  0.00     0.223 C 
BRANCH   5   6
ATOM      6  N   UNL d   1      27.298 -12.749   1.626  0.00  0.00    -0.381 N 
ATOM      7  H   UNL d   1      27.206 -11.847   1.168  0.00  0.00     0.160 HD
BRANCH   6   8
ATOM      8  C   UNL d   1      27.862 -12.877   2.882  0.00  0.00     0.028 A 
ATOM      9  C   UNL d   1      28.945 -12.090   3.282  0.00  0.00     0.030 A 
ATOM     10  C   UNL d   1      29.494 -12.221   4.573  0.00  0.00     0.019 A 
ATOM     11  C   UNL d   1      28.924 -13.094   5.517  0.00  0.00     0.032 A 
ATOM     12  C   UNL d   1      27.847 -13.879   5.115  0.00  0.00     0.019 A 
ATOM     13  C   UNL d   1      27.325 -13.758   3.825  0.00  0.00     0.030 A 
BRANCH  11  14
ATOM     14  C   UNL d   1      29.439 -13.116   6.925  0.00  0.00     0.251 C 
ATOM     15  O   UNL d   1      29.483 -12.069   7.572  0.00  0.00    -0.268 OA
ATOM     16  N   UNL d   1      29.816 -14.332   7.471  0.00  0.00    -0.351 N 
ATOM     17  H   UNL d   1      29.781 -15.200   6.960  0.00  0.00     0.163 HD
BRANCH  16  18
ATOM     18  C   UNL d   1      30.290 -14.407   8.833  0.00  0.00     0.187 C 
BRANCH  18  19
ATOM     19  C   UNL d   1      29.327 -13.845   9.825  0.00  0.00     0.070 A 
ATOM     20  C   UNL d   1      29.522 -12.944  10.855  0.00  0.00     0.036 A 
ATOM     21  C   UNL d   1      28.286 -12.813  11.527  0.00  0.00     0.027 A 
ATOM     22  C   UNL d   1      27.405 -13.635  10.865  0.00  0.00     0.142 A 
ATOM     23  O   UNL d   1      28.024 -14.266   9.825  0.00  0.00    -0.325 OA
ENDBRANCH  18  19
ENDBRANCH  16  18
ENDBRANCH  11  14
ENDBRANCH   6   8
ENDBRANCH   5   6
ENDBRANCH   2   5
BRANCH   3  24
ATOM     24  C   UNL d   1      25.757 -16.041  -0.899  0.00  0.00     0.035 A 
ATOM     25  C   UNL d   1      26.669 -17.023  -0.519  0.00  0.00     0.029 A 
ATOM     26  C   UNL d   1      26.201 -18.275  -0.103  0.00  0.00     0.003 A 
ATOM     27  C   UNL d   1      24.825 -18.524  -0.014  0.00  0.00     0.017 A 
ATOM     28  C   UNL d   1      23.905 -17.550  -0.417  0.00  0.00     0.034 A 
ATOM     29  C   UNL d   1      24.397 -16.344  -0.902  0.00  0.00     0.046 A 
BRANCH  28  30
ATOM     30  C   UNL d   1      22.439 -17.822  -0.374  0.00  0.00     0.252 C 
ATOM     31  O   UNL d   1      21.677 -16.990  -0.870  0.00  0.00    -0.268 OA
ATOM     32  N   UNL d   1      21.983 -18.993   0.230  0.00  0.00    -0.352 N 
ATOM     33  H   UNL d   1      22.604 -19.656   0.667  0.00  0.00     0.163 HD
BRANCH  32  34
ATOM     34  C   UNL d   1      20.554 -19.230   0.390  0.00  0.00     0.084 C 
ATOM     35  C   UNL d   1      19.938 -20.075  -0.743  0.00  0.00     0.025 C 
ATOM     36  C   UNL d   1      18.436 -20.287  -0.507  0.00  0.00     0.002 C 
ATOM     37  C   UNL d   1      18.157 -20.908   0.861  0.00  0.00     0.000 C 
ATOM     38  C   UNL d   1      18.789 -20.082   1.974  0.00  0.00     0.002 C 
ATOM     39  C   UNL d   1      20.280 -19.901   1.743  0.00  0.00     0.025 C 
ENDBRANCH  32  34
ENDBRANCH  28  30
ENDBRANCH   3  24
TORSDOF 9
ENDMDL
MODEL 4
REMARK VINA RESULT:   -10.466      6.106     11.307
REMARK INTER + INTRA:         -14.777
REMARK INTER:                 -13.151
REMARK INTRA:                  -1.627
REMARK CONF_INDEPENDENT:        2.685
REMARK UNBOUND:                -1.627
REMARK  9 active torsions:
REMARK  status: ('A' for Active; 'I' for Inactive)
REMARK    1  A    between atoms: C_2  and  C_3 
REMARK       I    between atoms: C_2  and  N_20 
REMARK    2  A    between atoms: C_3  and  N_4 
REMARK    3  A    between atoms: N_4  and  C_5 
REMARK    4  A    between atoms: C_8  and  C_9 
REMARK       I    between atoms: C_9  and  N_11 
REMARK    5  A    between atoms: N_11  and  C_12 
REMARK    6  A    between atoms: C_12  and  C_13 
REMARK    7  A    between atoms: N_20  and  C_21 
REMARK    8  A    between atoms: C_25  and  C_26 
REMARK       I    between atoms: C_26  and  N_28 
REMARK    9  A    between atoms: N_28  and  C_29 
ROOT
ATOM      1  O   UNL d   1      26.229 -12.740  -2.110  0.00  0.00    -0.271 OA
ATOM      2  C   UNL d   1      25.739 -13.868  -2.024  0.00  0.00     0.239 C 
ATOM      3  N   UNL d   1      25.913 -14.600  -0.859  0.00  0.00    -0.326 N 
ATOM      4  H   UNL d   1      26.344 -14.081  -0.101  0.00  0.00     0.169 HD
ENDROOT
BRANCH   2   5
ATOM      5  C   UNL d   1      24.836 -14.461  -3.120  0.00  0.00     0.223 C 
BRANCH   5   6
ATOM      6  N   UNL d   1      25.154 -14.011  -4.467  0.00  0.00    -0.381 N 
ATOM      7  H   UNL d   1      24.389 -13.758  -5.085  0.00  0.00     0.160 HD
BRANCH   6   8
ATOM      8  C   UNL d   1      26.469 -14.014  -4.893  0.00  0.00     0.028 A 
ATOM      9  C   UNL d   1      27.225 -15.189  -4.924  0.00  0.00     0.030 A 
ATOM     10  C   UNL d   1      28.559 -15.176  -5.380  0.00  0.00     0.019 A 
ATOM     11  C   UNL d   1      29.141 -13.999  -5.883  0.00  0.00     0.032 A 
ATOM     12  C   UNL d   1      28.386 -12.829  -5.848  0.00  0.00     0.019 A 
ATOM     13  C   UNL d   1      27.072 -12.848  -5.373  0.00  0.00     0.030 A 
BRANCH  11  14
ATOM     14  C   UNL d   1      30.511 -14.039  -6.489  0.00  0.00     0.251 C 
ATOM     15  O   UNL d   1      31.489 -14.248  -5.768  0.00  0.00    -0.268 OA
ATOM     16  N   UNL d   1      30.633 -13.875  -7.859  0.00  0.00    -0.351 N 
ATOM     17  H   UNL d   1      29.845 -13.710  -8.466  0.00  0.00     0.163 HD
BRANCH  16  18
ATOM     18  C   UNL d   1      31.929 -13.936  -8.492  0.00  0.00     0.187 C 
BRANCH  18  19
ATOM     19  C   UNL d   1      32.491 -15.318  -8.557  0.00  0.00     0.070 A 
ATOM     20  C   UNL d   1      33.656 -15.787  -9.134  0.00  0.00     0.036 A 
ATOM     21  C   UNL d   1      33.663 -17.190  -8.964  0.00  0.00     0.027 A 
ATOM     22  C   UNL d   1      32.506 -17.495  -8.286  0.00  0.00     0.142 A 
ATOM     23  O   UNL d   1      31.785 -16.366  -8.029  0.00  0.00    -0.325 OA
ENDBRANCH  18  19
ENDBRANCH  16  18
ENDBRANCH  11  14
ENDBRANCH   6   8
ENDBRANCH   5   6
ENDBRANCH   2   5
BRANCH   3  24
ATOM     24  C   UNL d   1      25.538 -15.933  -0.616  0.00  0.00     0.035 A 
ATOM     25  C   UNL d   1      26.502 -16.926  -0.458  0.00  0.00     0.029 A 
ATOM     26  C   UNL d   1      26.100 -18.253  -0.257  0.00  0.00     0.003 A 
ATOM     27  C   UNL d   1      24.739 -18.573  -0.159  0.00  0.00     0.017 A 
ATOM     28  C   UNL d   1      23.767 -17.584  -0.341  0.00  0.00     0.034 A 
ATOM     29  C   UNL d   1      24.192 -16.290  -0.619  0.00  0.00     0.046 A 
BRANCH  28  30
ATOM     30  C   UNL d   1      22.316 -17.924  -0.288  0.00  0.00     0.252 C 
ATOM     31  O   UNL d   1      21.525 -17.199  -0.894  0.00  0.00    -0.268 OA
ATOM     32  N   UNL d   1      21.904 -19.035   0.447  0.00  0.00    -0.352 N 
ATOM     33  H   UNL d   1      22.547 -19.608   0.971  0.00  0.00     0.163 HD
BRANCH  32  34
ATOM     34  C   UNL d   1      20.486 -19.324   0.612  0.00  0.00     0.084 C 
ATOM     35  C   UNL d   1      19.895 -20.186  -0.522  0.00  0.00     0.025 C 
ATOM     36  C   UNL d   1      18.403 -20.453  -0.280  0.00  0.00     0.002 C 
ATOM     37  C   UNL d   1      18.153 -21.090   1.086  0.00  0.00     0.000 C 
ATOM     38  C   UNL d   1      18.759 -20.246   2.200  0.00  0.00     0.002 C 
ATOM     39  C   UNL d   1      20.242 -20.011   1.963  0.00  0.00     0.025 C 
ENDBRANCH  32  34
ENDBRANCH  28  30
ENDBRANCH   3  24
TORSDOF 9
ENDMDL
MODEL 5
REMARK VINA RESULT:   -10.389      6.195     10.959
REMARK INTER + INTRA:         -15.054
REMARK INTER:                 -13.074
REMARK INTRA:                  -1.980
REMARK CONF_INDEPENDENT:        2.685
REMARK UNBOUND:                -1.980
REMARK  9 active torsions:
REMARK  status: ('A' for Active; 'I' for Inactive)
REMARK    1  A    between atoms: C_2  and  C_3 
REMARK       I    between atoms: C_2  and  N_20 
REMARK    2  A    between atoms: C_3  and  N_4 
REMARK    3  A    between atoms: N_4  and  C_5 
REMARK    4  A    between atoms: C_8  and  C_9 
REMARK       I    between atoms: C_9  and  N_11 
REMARK    5  A    between atoms: N_11  and  C_12 
REMARK    6  A    between atoms: C_12  and  C_13 
REMARK    7  A    between atoms: N_20  and  C_21 
REMARK    8  A    between atoms: C_25  and  C_26 
REMARK       I    between atoms: C_26  and  N_28 
REMARK    9  A    between atoms: N_28  and  C_29 
ROOT
ATOM      1  O   UNL d   1      26.178 -12.633  -2.196  0.00  0.00    -0.271 OA
ATOM      2  C   UNL d   1      25.674 -13.756  -2.108  0.00  0.00     0.239 C 
ATOM      3  N   UNL d   1      25.914 -14.524  -0.979  0.00  0.00    -0.326 N 
ATOM      4  H   UNL d   1      26.405 -14.035  -0.239  0.00  0.00     0.169 HD
ENDROOT
BRANCH   2   5
ATOM      5  C   UNL d   1      24.689 -14.302  -3.156  0.00  0.00     0.223 C 
BRANCH   5   6
ATOM      6  N   UNL d   1      25.026 -13.963  -4.531  0.00  0.00    -0.381 N 
ATOM      7  H   UNL d   1      24.285 -13.640  -5.145  0.00  0.00     0.160 HD
BRANCH   6   8
ATOM      8  C   UNL d   1      26.317 -14.163  -4.983  0.00  0.00     0.028 A 
ATOM      9  C   UNL d   1      26.987 -15.371  -4.775  0.00  0.00     0.030 A 
ATOM     10  C   UNL d   1      28.296 -15.563  -5.262  0.00  0.00     0.019 A 
ATOM     11  C   UNL d   1      28.934 -14.573  -6.030  0.00  0.00     0.032 A 
ATOM     12  C   UNL d   1      28.265 -13.369  -6.234  0.00  0.00     0.019 A 
ATOM     13  C   UNL d   1      26.977 -13.181  -5.728  0.00  0.00     0.030 A 
BRANCH  11  14
ATOM     14  C   UNL d   1      30.269 -14.853  -6.652  0.00  0.00     0.251 C 
ATOM     15  O   UNL d   1      31.098 -13.945  -6.746  0.00  0.00    -0.268 OA
ATOM     16  N   UNL d   1      30.546 -16.143  -7.073  0.00  0.00    -0.351 N 
ATOM     17  H   UNL d   1      29.884 -16.899  -6.999  0.00  0.00     0.163 HD
BRANCH  16  18
ATOM     18  C   UNL d   1      31.829 -16.466  -7.651  0.00  0.00     0.187 C 
BRANCH  18  19
ATOM     19  C   UNL d   1      31.904 -17.857  -8.185  0.00  0.00     0.070 A 
ATOM     20  C   UNL d   1      32.753 -18.415  -9.122  0.00  0.00     0.036 A 
ATOM     21  C   UNL d   1      32.340 -19.753  -9.307  0.00  0.00     0.027 A 
ATOM     22  C   UNL d   1      31.267 -19.938  -8.467  0.00  0.00     0.142 A 
ATOM     23  O   UNL d   1      30.993 -18.794  -7.776  0.00  0.00    -0.325 OA
ENDBRANCH  18  19
ENDBRANCH  16  18
ENDBRANCH  11  14
ENDBRANCH   6   8
ENDBRANCH   5   6
ENDBRANCH   2   5
BRANCH   3  24
ATOM     24  C   UNL d   1      25.532 -15.858  -0.749  0.00  0.00     0.035 A 
ATOM     25  C   UNL d   1      26.490 -16.864  -0.644  0.00  0.00     0.029 A 
ATOM     26  C   UNL d   1      26.080 -18.189  -0.454  0.00  0.00     0.003 A 
ATOM     27  C   UNL d   1      24.719 -18.497  -0.314  0.00  0.00     0.017 A 
ATOM     28  C   UNL d   1      23.753 -17.494  -0.442  0.00  0.00     0.034 A 
ATOM     29  C   UNL d   1      24.183 -16.199  -0.710  0.00  0.00     0.046 A 
BRANCH  28  30
ATOM     30  C   UNL d   1      22.301 -17.818  -0.343  0.00  0.00     0.252 C 
ATOM     31  O   UNL d   1      21.493 -17.038  -0.850  0.00  0.00    -0.268 OA
ATOM     32  N   UNL d   1      21.907 -18.978   0.322  0.00  0.00    -0.352 N 
ATOM     33  H   UNL d   1      22.565 -19.599   0.768  0.00  0.00     0.163 HD
BRANCH  32  34
ATOM     34  C   UNL d   1      20.494 -19.262   0.535  0.00  0.00     0.084 C 
ATOM     35  C   UNL d   1      19.886 -20.201  -0.527  0.00  0.00     0.025 C 
ATOM     36  C   UNL d   1      18.400 -20.457  -0.238  0.00  0.00     0.002 C 
ATOM     37  C   UNL d   1      18.181 -21.001   1.173  0.00  0.00     0.000 C 
ATOM     38  C   UNL d   1      18.804 -20.082   2.215  0.00  0.00     0.002 C 
ATOM     39  C   UNL d   1      20.280 -19.857   1.934  0.00  0.00     0.025 C 
ENDBRANCH  32  34
ENDBRANCH  28  30
ENDBRANCH   3  24
TORSDOF 9
ENDMDL
MODEL 6
REMARK VINA RESULT:   -10.076      6.102     11.617
REMARK INTER + INTRA:         -14.244
REMARK INTER:                 -12.761
REMARK INTRA:                  -1.483
REMARK CONF_INDEPENDENT:        2.685
REMARK UNBOUND:                -1.483
REMARK  9 active torsions:
REMARK  status: ('A' for Active; 'I' for Inactive)
REMARK    1  A    between atoms: C_2  and  C_3 
REMARK       I    between atoms: C_2  and  N_20 
REMARK    2  A    between atoms: C_3  and  N_4 
REMARK    3  A    between atoms: N_4  and  C_5 
REMARK    4  A    between atoms: C_8  and  C_9 
REMARK       I    between atoms: C_9  and  N_11 
REMARK    5  A    between atoms: N_11  and  C_12 
REMARK    6  A    between atoms: C_12  and  C_13 
REMARK    7  A    between atoms: N_20  and  C_21 
REMARK    8  A    between atoms: C_25  and  C_26 
REMARK       I    between atoms: C_26  and  N_28 
REMARK    9  A    between atoms: N_28  and  C_29 
ROOT
ATOM      1  O   UNL d   1      26.308 -12.767  -2.203  0.00  0.00    -0.271 OA
ATOM      2  C   UNL d   1      25.774 -13.869  -2.057  0.00  0.00     0.239 C 
ATOM      3  N   UNL d   1      26.080 -14.633  -0.941  0.00  0.00    -0.326 N 
ATOM      4  H   UNL d   1      26.648 -14.153  -0.251  0.00  0.00     0.169 HD
ENDROOT
BRANCH   2   5
ATOM      5  C   UNL d   1      24.686 -14.391  -3.011  0.00  0.00     0.223 C 
BRANCH   5   6
ATOM      6  N   UNL d   1      24.914 -14.074  -4.413  0.00  0.00    -0.381 N 
ATOM      7  H   UNL d   1      24.110 -13.899  -5.006  0.00  0.00     0.160 HD
BRANCH   6   8
ATOM      8  C   UNL d   1      26.203 -14.096  -4.914  0.00  0.00     0.028 A 
ATOM      9  C   UNL d   1      26.779 -12.966  -5.501  0.00  0.00     0.030 A 
ATOM     10  C   UNL d   1      28.101 -13.002  -5.988  0.00  0.00     0.019 A 
ATOM     11  C   UNL d   1      28.899 -14.149  -5.833  0.00  0.00     0.032 A 
ATOM     12  C   UNL d   1      28.322 -15.275  -5.250  0.00  0.00     0.019 A 
ATOM     13  C   UNL d   1      27.003 -15.235  -4.791  0.00  0.00     0.030 A 
BRANCH  11  14
ATOM     14  C   UNL d   1      30.343 -14.119  -6.235  0.00  0.00     0.251 C 
ATOM     15  O   UNL d   1      31.217 -14.186  -5.368  0.00  0.00    -0.268 OA
ATOM     16  N   UNL d   1      30.653 -14.053  -7.583  0.00  0.00    -0.351 N 
ATOM     17  H   UNL d   1      29.953 -14.004  -8.307  0.00  0.00     0.163 HD
BRANCH  16  18
ATOM     18  C   UNL d   1      32.029 -14.052  -8.019  0.00  0.00     0.187 C 
BRANCH  18  19
ATOM     19  C   UNL d   1      32.459 -12.753  -8.616  0.00  0.00     0.070 A 
ATOM     20  C   UNL d   1      32.880 -12.449  -9.896  0.00  0.00     0.036 A 
ATOM     21  C   UNL d   1      33.233 -11.081  -9.900  0.00  0.00     0.027 A 
ATOM     22  C   UNL d   1      33.000 -10.626  -8.623  0.00  0.00     0.142 A 
ATOM     23  O   UNL d   1      32.526 -11.632  -7.832  0.00  0.00    -0.325 OA
ENDBRANCH  18  19
ENDBRANCH  16  18
ENDBRANCH  11  14
ENDBRANCH   6   8
ENDBRANCH   5   6
ENDBRANCH   2   5
BRANCH   3  24
ATOM     24  C   UNL d   1      25.672 -15.949  -0.660  0.00  0.00     0.035 A 
ATOM     25  C   UNL d   1      26.612 -16.959  -0.466  0.00  0.00     0.029 A 
ATOM     26  C   UNL d   1      26.177 -18.269  -0.227  0.00  0.00     0.003 A 
ATOM     27  C   UNL d   1      24.808 -18.553  -0.127  0.00  0.00     0.017 A 
ATOM     28  C   UNL d   1      23.861 -17.548  -0.345  0.00  0.00     0.034 A 
ATOM     29  C   UNL d   1      24.318 -16.273  -0.659  0.00  0.00     0.046 A 
BRANCH  28  30
ATOM     30  C   UNL d   1      22.401 -17.851  -0.289  0.00  0.00     0.252 C 
ATOM     31  O   UNL d   1      21.622 -17.064  -0.830  0.00  0.00    -0.268 OA
ATOM     32  N   UNL d   1      21.971 -18.999   0.374  0.00  0.00    -0.352 N 
ATOM     33  H   UNL d   1      22.605 -19.623   0.847  0.00  0.00     0.163 HD
BRANCH  32  34
ATOM     34  C   UNL d   1      20.547 -19.260   0.544  0.00  0.00     0.084 C 
ATOM     35  C   UNL d   1      19.964 -20.217  -0.516  0.00  0.00     0.025 C 
ATOM     36  C   UNL d   1      18.466 -20.448  -0.273  0.00  0.00     0.002 C 
ATOM     37  C   UNL d   1      18.191 -20.956   1.142  0.00  0.00     0.000 C 
ATOM     38  C   UNL d   1      18.790 -20.020   2.183  0.00  0.00     0.002 C 
ATOM     39  C   UNL d   1      20.278 -19.820   1.948  0.00  0.00     0.025 C 
ENDBRANCH  32  34
ENDBRANCH  28  30
ENDBRANCH   3  24
TORSDOF 9
ENDMDL
MODEL 7
REMARK VINA RESULT:   -10.012      6.018      9.234
REMARK INTER + INTRA:         -14.244
REMARK INTER:                 -12.697
REMARK INTRA:                  -1.547
REMARK CONF_INDEPENDENT:        2.685
REMARK UNBOUND:                -1.547
REMARK  9 active torsions:
REMARK  status: ('A' for Active; 'I' for Inactive)
REMARK    1  A    between atoms: C_2  and  C_3 
REMARK       I    between atoms: C_2  and  N_20 
REMARK    2  A    between atoms: C_3  and  N_4 
REMARK    3  A    between atoms: N_4  and  C_5 
REMARK    4  A    between atoms: C_8  and  C_9 
REMARK       I    between atoms: C_9  and  N_11 
REMARK    5  A    between atoms: N_11  and  C_12 
REMARK    6  A    between atoms: C_12  and  C_13 
REMARK    7  A    between atoms: N_20  and  C_21 
REMARK    8  A    between atoms: C_25  and  C_26 
REMARK       I    between atoms: C_26  and  N_28 
REMARK    9  A    between atoms: N_28  and  C_29 
ROOT
ATOM      1  O   UNL d   1      30.984 -17.173  -0.150  0.00  0.00    -0.271 OA
ATOM      2  C   UNL d   1      30.462 -17.133  -1.267  0.00  0.00     0.239 C 
ATOM      3  N   UNL d   1      31.258 -17.251  -2.396  0.00  0.00    -0.326 N 
ATOM      4  H   UNL d   1      32.225 -17.488  -2.201  0.00  0.00     0.169 HD
ENDROOT
BRANCH   2   5
ATOM      5  C   UNL d   1      28.938 -17.070  -1.463  0.00  0.00     0.223 C 
BRANCH   5   6
ATOM      6  N   UNL d   1      28.167 -17.320  -0.255  0.00  0.00    -0.381 N 
ATOM      7  H   UNL d   1      28.667 -17.525   0.605  0.00  0.00     0.160 HD
BRANCH   6   8
ATOM      8  C   UNL d   1      26.786 -17.349  -0.323  0.00  0.00     0.028 A 
ATOM      9  C   UNL d   1      26.083 -16.576  -1.250  0.00  0.00     0.030 A 
ATOM     10  C   UNL d   1      24.676 -16.634  -1.318  0.00  0.00     0.019 A 
ATOM     11  C   UNL d   1      23.948 -17.523  -0.507  0.00  0.00     0.032 A 
ATOM     12  C   UNL d   1      24.651 -18.291   0.418  0.00  0.00     0.019 A 
ATOM     13  C   UNL d   1      26.044 -18.208   0.493  0.00  0.00     0.030 A 
BRANCH  11  14
ATOM     14  C   UNL d   1      22.467 -17.667  -0.692  0.00  0.00     0.251 C 
ATOM     15  O   UNL d   1      21.780 -16.664  -0.892  0.00  0.00    -0.268 OA
ATOM     16  N   UNL d   1      21.919 -18.939  -0.669  0.00  0.00    -0.351 N 
ATOM     17  H   UNL d   1      22.465 -19.771  -0.514  0.00  0.00     0.163 HD
BRANCH  16  18
ATOM     18  C   UNL d   1      20.503 -19.129  -0.873  0.00  0.00     0.187 C 
BRANCH  18  19
ATOM     19  C   UNL d   1      19.809 -19.722   0.308  0.00  0.00     0.070 A 
ATOM     20  C   UNL d   1      20.104 -19.640   1.656  0.00  0.00     0.036 A 
ATOM     21  C   UNL d   1      19.162 -20.448   2.332  0.00  0.00     0.027 A 
ATOM     22  C   UNL d   1      18.342 -20.970   1.360  0.00  0.00     0.142 A 
ATOM     23  O   UNL d   1      18.722 -20.534   0.124  0.00  0.00    -0.325 OA
ENDBRANCH  18  19
ENDBRANCH  16  18
ENDBRANCH  11  14
ENDBRANCH   6   8
ENDBRANCH   5   6
ENDBRANCH   2   5
BRANCH   3  24
ATOM     24  C   UNL d   1      30.872 -17.111  -3.740  0.00  0.00     0.035 A 
ATOM     25  C   UNL d   1      31.489 -17.858  -4.741  0.00  0.00     0.029 A 
ATOM     26  C   UNL d   1      31.112 -17.669  -6.076  0.00  0.00     0.003 A 
ATOM     27  C   UNL d   1      30.081 -16.776  -6.401  0.00  0.00     0.017 A 
ATOM     28  C   UNL d   1      29.475 -16.006  -5.404  0.00  0.00     0.034 A 
ATOM     29  C   UNL d   1      29.923 -16.155  -4.096  0.00  0.00     0.046 A 
BRANCH  28  30
ATOM     30  C   UNL d   1      28.411 -15.018  -5.746  0.00  0.00     0.252 C 
ATOM     31  O   UNL d   1      27.237 -15.395  -5.727  0.00  0.00    -0.268 OA
ATOM     32  N   UNL d   1      28.777 -13.715  -6.082  0.00  0.00    -0.352 N 
ATOM     33  H   UNL d   1      29.738 -13.417  -6.132  0.00  0.00     0.163 HD
BRANCH  32  34
ATOM     34  C   UNL d   1      27.771 -12.761  -6.532  0.00  0.00     0.084 C 
ATOM     35  C   UNL d   1      26.940 -12.153  -5.384  0.00  0.00     0.025 C 
ATOM     36  C   UNL d   1      25.907 -11.158  -5.930  0.00  0.00     0.002 C 
ATOM     37  C   UNL d   1      26.560 -10.067  -6.778  0.00  0.00     0.000 C 
ATOM     38  C   UNL d   1      27.399 -10.674  -7.895  0.00  0.00     0.002 C 
ATOM     39  C   UNL d   1      28.435 -11.637  -7.339  0.00  0.00     0.025 C 
ENDBRANCH  32  34
ENDBRANCH  28  30
ENDBRANCH   3  24
TORSDOF 9
ENDMDL
MODEL 8
REMARK VINA RESULT:    -9.733      4.764      8.678
REMARK INTER + INTRA:         -14.652
REMARK INTER:                 -12.418
REMARK INTRA:                  -2.234
REMARK CONF_INDEPENDENT:        2.685
REMARK UNBOUND:                -2.234
REMARK  9 active torsions:
REMARK  status: ('A' for Active; 'I' for Inactive)
REMARK    1  A    between atoms: C_2  and  C_3 
REMARK       I    between atoms: C_2  and  N_20 
REMARK    2  A    between atoms: C_3  and  N_4 
REMARK    3  A    between atoms: N_4  and  C_5 
REMARK    4  A    between atoms: C_8  and  C_9 
REMARK       I    between atoms: C_9  and  N_11 
REMARK    5  A    between atoms: N_11  and  C_12 
REMARK    6  A    between atoms: C_12  and  C_13 
REMARK    7  A    between atoms: N_20  and  C_21 
REMARK    8  A    between atoms: C_25  and  C_26 
REMARK       I    between atoms: C_26  and  N_28 
REMARK    9  A    between atoms: N_28  and  C_29 
ROOT
ATOM      1  O   UNL d   1      28.807 -12.553   1.428  0.00  0.00    -0.271 OA
ATOM      2  C   UNL d   1      28.110 -13.058   0.545  0.00  0.00     0.239 C 
ATOM      3  N   UNL d   1      28.346 -12.729  -0.781  0.00  0.00    -0.326 N 
ATOM      4  H   UNL d   1      29.180 -12.172  -0.930  0.00  0.00     0.169 HD
ENDROOT
BRANCH   2   5
ATOM      5  C   UNL d   1      27.053 -14.135   0.844  0.00  0.00     0.223 C 
BRANCH   5   6
ATOM      6  N   UNL d   1      27.340 -15.436   0.258  0.00  0.00    -0.381 N 
ATOM      7  H   UNL d   1      28.310 -15.708   0.137  0.00  0.00     0.160 HD
BRANCH   6   8
ATOM      8  C   UNL d   1      26.296 -16.227  -0.186  0.00  0.00     0.028 A 
ATOM      9  C   UNL d   1      26.059 -17.495   0.351  0.00  0.00     0.030 A 
ATOM     10  C   UNL d   1      24.978 -18.279  -0.101  0.00  0.00     0.019 A 
ATOM     11  C   UNL d   1      24.069 -17.779  -1.050  0.00  0.00     0.032 A 
ATOM     12  C   UNL d   1      24.308 -16.516  -1.585  0.00  0.00     0.019 A 
ATOM     13  C   UNL d   1      25.396 -15.757  -1.147  0.00  0.00     0.030 A 
BRANCH  11  14
ATOM     14  C   UNL d   1      22.851 -18.574  -1.413  0.00  0.00     0.251 C 
ATOM     15  O   UNL d   1      22.885 -19.326  -2.389  0.00  0.00    -0.268 OA
ATOM     16  N   UNL d   1      21.727 -18.466  -0.611  0.00  0.00    -0.351 N 
ATOM     17  H   UNL d   1      21.682 -17.862   0.194  0.00  0.00     0.163 HD
BRANCH  16  18
ATOM     18  C   UNL d   1      20.541 -19.236  -0.905  0.00  0.00     0.187 C 
BRANCH  18  19
ATOM     19  C   UNL d   1      19.900 -19.819   0.310  0.00  0.00     0.070 A 
ATOM     20  C   UNL d   1      18.856 -20.718   0.430  0.00  0.00     0.036 A 
ATOM     21  C   UNL d   1      18.606 -20.875   1.812  0.00  0.00     0.027 A 
ATOM     22  C   UNL d   1      19.517 -20.070   2.456  0.00  0.00     0.142 A 
ATOM     23  O   UNL d   1      20.312 -19.425   1.555  0.00  0.00    -0.325 OA
ENDBRANCH  18  19
ENDBRANCH  16  18
ENDBRANCH  11  14
ENDBRANCH   6   8
ENDBRANCH   5   6
ENDBRANCH   2   5
BRANCH   3  24
ATOM     24  C   UNL d   1      27.592 -13.102  -1.908  0.00  0.00     0.035 A 
ATOM     25  C   UNL d   1      26.267 -12.694  -2.045  0.00  0.00     0.029 A 
ATOM     26  C   UNL d   1      25.528 -13.114  -3.158  0.00  0.00     0.003 A 
ATOM     27  C   UNL d   1      26.130 -13.891  -4.156  0.00  0.00     0.017 A 
ATOM     28  C   UNL d   1      27.452 -14.323  -4.012  0.00  0.00     0.034 A 
ATOM     29  C   UNL d   1      28.139 -13.960  -2.859  0.00  0.00     0.046 A 
BRANCH  28  30
ATOM     30  C   UNL d   1      28.087 -15.192  -5.045  0.00  0.00     0.252 C 
ATOM     31  O   UNL d   1      27.600 -15.202  -6.177  0.00  0.00    -0.268 OA
ATOM     32  N   UNL d   1      29.194 -15.964  -4.696  0.00  0.00    -0.352 N 
ATOM     33  H   UNL d   1      29.570 -15.983  -3.761  0.00  0.00     0.163 HD
BRANCH  32  34
ATOM     34  C   UNL d   1      29.763 -16.908  -5.650  0.00  0.00     0.084 C 
ATOM     35  C   UNL d   1      30.767 -16.267  -6.629  0.00  0.00     0.025 C 
ATOM     36  C   UNL d   1      31.327 -17.317  -7.598  0.00  0.00     0.002 C 
ATOM     37  C   UNL d   1      31.953 -18.499  -6.858  0.00  0.00     0.000 C 
ATOM     38  C   UNL d   1      30.964 -19.112  -5.875  0.00  0.00     0.002 C 
ATOM     39  C   UNL d   1      30.438 -18.068  -4.904  0.00  0.00     0.025 C 
ENDBRANCH  32  34
ENDBRANCH  28  30
ENDBRANCH   3  24
TORSDOF 9
ENDMDL
