MODEL 1
REMARK VINA RESULT:    -9.061      0.000      0.000
REMARK INTER + INTRA:         -12.951
REMARK INTER:                 -11.448
REMARK INTRA:                  -1.503
REMARK CONF_INDEPENDENT:        2.386
REMARK UNBOUND:                -1.503
REMARK  8 active torsions:
REMARK  status: ('A' for Active; 'I' for Inactive)
REMARK    1  A    between atoms: C_2  and  N_5 
REMARK       I    between atoms: N_5  and  C_6 
REMARK    2  A    between atoms: C_6  and  C_8 
REMARK    3  A    between atoms: C_11  and  C_12 
REMARK       I    between atoms: C_12  and  N_14 
REMARK    4  A    between atoms: N_14  and  N_15 
REMARK       I    between atoms: N_15  and  C_16 
REMARK    5  A    between atoms: C_16  and  C_18 
REMARK    6  A    between atoms: C_18  and  C_19 
REMARK    7  A    between atoms: C_19  and  C_20 
REMARK    8  A    between atoms: C_20  and  C_21 
ROOT
ATOM      1  C   UNL d   1      26.918 -16.837  -0.152  0.00  0.00     0.270 C 
ATOM      2  O   UNL d   1      27.725 -17.237  -0.994  0.00  0.00    -0.266 OA
ATOM      3  N   UNL d   1      27.303 -15.998   0.884  0.00  0.00    -0.263 N 
ATOM      4  H   UNL d   1      26.679 -15.617   1.591  0.00  0.00     0.190 HD
ENDROOT
BRANCH   1   5
ATOM      5  C   UNL d   1      25.459 -17.223  -0.249  0.00  0.00     0.033 A 
ATOM      6  C   UNL d   1      25.077 -18.549   0.035  0.00  0.00     0.018 A 
ATOM      7  C   UNL d   1      23.748 -18.974  -0.147  0.00  0.00     0.018 A 
ATOM      8  C   UNL d   1      22.762 -18.064  -0.552  0.00  0.00     0.032 A 
ATOM      9  C   UNL d   1      23.122 -16.739  -0.802  0.00  0.00     0.018 A 
ATOM     10  C   UNL d   1      24.457 -16.324  -0.649  0.00  0.00     0.018 A 
BRANCH   8  11
ATOM     11  C   UNL d   1      21.333 -18.462  -0.512  0.00  0.00     0.252 C 
ATOM     12  N   UNL d   1      20.959 -19.493   0.336  0.00  0.00    -0.349 N 
ATOM     13  H   UNL d   1      21.642 -19.879   0.975  0.00  0.00     0.163 HD
ATOM     14  O   UNL d   1      20.558 -17.869  -1.264  0.00  0.00    -0.268 OA
BRANCH  12  15
ATOM     15  C   UNL d   1      19.572 -20.003   0.408  0.00  0.00     0.022 C 
ATOM     16  C   UNL d   1      19.570 -21.534   0.605  0.00  0.00     0.037 C 
ATOM     17  C   UNL d   1      18.823 -19.700  -0.901  0.00  0.00     0.037 C 
ATOM     18  C   UNL d   1      18.829 -19.380   1.601  0.00  0.00     0.037 C 
ENDBRANCH  12  15
ENDBRANCH   8  11
ENDBRANCH   1   5
BRANCH   3  19
ATOM     19  N   UNL d   1      28.644 -15.547   0.980  0.00  0.00    -0.267 N 
ATOM     20  C   UNL d   1      28.864 -14.265   1.450  0.00  0.00     0.236 C 
ATOM     21  O   UNL d   1      27.926 -13.531   1.771  0.00  0.00    -0.272 OA
ATOM     22  H   UNL d   1      29.375 -16.198   0.704  0.00  0.00     0.190 HD
BRANCH  20  23
ATOM     23  C   UNL d   1      30.329 -13.838   1.543  0.00  0.00     0.105 C 
BRANCH  23  24
ATOM     24  C   UNL d   1      30.685 -13.475   2.985  0.00  0.00     0.014 C 
BRANCH  24  25
ATOM     25  C   UNL d   1      30.227 -14.500   4.028  0.00  0.00     0.039 C 
BRANCH  25  26
ATOM     26  C   UNL d   1      29.419 -13.887   5.156  0.00  0.00    -0.058 A 
ATOM     27  C   UNL d   1      28.582 -12.789   4.907  0.00  0.00     0.007 A 
ATOM     28  C   UNL d   1      27.975 -12.109   5.968  0.00  0.00     0.001 A 
ATOM     29  C   UNL d   1      28.134 -12.560   7.278  0.00  0.00     0.000 A 
ATOM     30  C   UNL d   1      28.926 -13.671   7.535  0.00  0.00     0.001 A 
ATOM     31  C   UNL d   1      29.572 -14.317   6.484  0.00  0.00     0.007 A 
ENDBRANCH  25  26
ENDBRANCH  24  25
ENDBRANCH  23  24
ENDBRANCH  20  23
ENDBRANCH   3  19
TORSDOF 8
ENDMDL
MODEL 2
REMARK VINA RESULT:    -8.795      2.681      9.992
REMARK INTER + INTRA:         -13.120
REMARK INTER:                 -11.182
REMARK INTRA:                  -1.938
REMARK CONF_INDEPENDENT:        2.386
REMARK UNBOUND:                -1.938
REMARK  8 active torsions:
REMARK  status: ('A' for Active; 'I' for Inactive)
REMARK    1  A    between atoms: C_2  and  N_5 
REMARK       I    between atoms: N_5  and  C_6 
REMARK    2  A    between atoms: C_6  and  C_8 
REMARK    3  A    between atoms: C_11  and  C_12 
REMARK       I    between atoms: C_12  and  N_14 
REMARK    4  A    between atoms: N_14  and  N_15 
REMARK       I    between atoms: N_15  and  C_16 
REMARK    5  A    between atoms: C_16  and  C_18 
REMARK    6  A    between atoms: C_18  and  C_19 
REMARK    7  A    between atoms: C_19  and  C_20 
REMARK    8  A    between atoms: C_20  and  C_21 
ROOT
ATOM      1  C   UNL d   1      27.596 -13.918   2.334  0.00  0.00     0.270 C 
ATOM      2  O   UNL d   1      27.121 -12.970   1.704  0.00  0.00    -0.266 OA
ATOM      3  N   UNL d   1      27.890 -15.126   1.719  0.00  0.00    -0.263 N 
ATOM      4  H   UNL d   1      28.305 -15.932   2.181  0.00  0.00     0.190 HD
ENDROOT
BRANCH   1   5
ATOM      5  C   UNL d   1      27.914 -13.773   3.806  0.00  0.00     0.033 A 
ATOM      6  C   UNL d   1      27.780 -12.512   4.418  0.00  0.00     0.018 A 
ATOM      7  C   UNL d   1      28.167 -12.311   5.756  0.00  0.00     0.018 A 
ATOM      8  C   UNL d   1      28.633 -13.386   6.526  0.00  0.00     0.032 A 
ATOM      9  C   UNL d   1      28.736 -14.648   5.941  0.00  0.00     0.018 A 
ATOM     10  C   UNL d   1      28.377 -14.838   4.594  0.00  0.00     0.018 A 
BRANCH   8  11
ATOM     11  C   UNL d   1      28.812 -13.217   7.990  0.00  0.00     0.252 C 
ATOM     12  N   UNL d   1      29.163 -14.326   8.745  0.00  0.00    -0.349 N 
ATOM     13  H   UNL d   1      29.386 -15.194   8.273  0.00  0.00     0.163 HD
ATOM     14  O   UNL d   1      28.606 -12.097   8.461  0.00  0.00    -0.268 OA
BRANCH  12  15
ATOM     15  C   UNL d   1      29.309 -14.277  10.216  0.00  0.00     0.022 C 
ATOM     16  C   UNL d   1      30.032 -15.540  10.729  0.00  0.00     0.037 C 
ATOM     17  C   UNL d   1      27.925 -14.227  10.888  0.00  0.00     0.037 C 
ATOM     18  C   UNL d   1      30.147 -13.058  10.635  0.00  0.00     0.037 C 
ENDBRANCH  12  15
ENDBRANCH   8  11
ENDBRANCH   1   5
BRANCH   3  19
ATOM     19  N   UNL d   1      27.680 -15.292   0.327  0.00  0.00    -0.267 N 
ATOM     20  C   UNL d   1      27.433 -16.569  -0.143  0.00  0.00     0.236 C 
ATOM     21  O   UNL d   1      27.400 -17.537   0.621  0.00  0.00    -0.272 OA
ATOM     22  H   UNL d   1      27.716 -14.456  -0.252  0.00  0.00     0.190 HD
BRANCH  20  23
ATOM     23  C   UNL d   1      27.203 -16.685  -1.651  0.00  0.00     0.105 C 
BRANCH  23  24
ATOM     24  C   UNL d   1      25.818 -16.151  -2.018  0.00  0.00     0.014 C 
BRANCH  24  25
ATOM     25  C   UNL d   1      24.879 -15.951  -0.824  0.00  0.00     0.039 C 
BRANCH  25  26
ATOM     26  C   UNL d   1      23.839 -17.047  -0.689  0.00  0.00    -0.058 A 
ATOM     27  C   UNL d   1      24.239 -18.374  -0.467  0.00  0.00     0.007 A 
ATOM     28  C   UNL d   1      23.303 -19.412  -0.520  0.00  0.00     0.001 A 
ATOM     29  C   UNL d   1      21.950 -19.132  -0.717  0.00  0.00     0.000 A 
ATOM     30  C   UNL d   1      21.535 -17.820  -0.895  0.00  0.00     0.001 A 
ATOM     31  C   UNL d   1      22.474 -16.792  -0.895  0.00  0.00     0.007 A 
ENDBRANCH  25  26
ENDBRANCH  24  25
ENDBRANCH  23  24
ENDBRANCH  20  23
ENDBRANCH   3  19
TORSDOF 8
ENDMDL
MODEL 3
REMARK VINA RESULT:    -8.364      5.019      7.203
REMARK INTER + INTRA:         -12.894
REMARK INTER:                 -10.750
REMARK INTRA:                  -2.144
REMARK CONF_INDEPENDENT:        2.386
REMARK UNBOUND:                -2.144
REMARK  8 active torsions:
REMARK  status: ('A' for Active; 'I' for Inactive)
REMARK    1  A    between atoms: C_2  and  N_5 
REMARK       I    between atoms: N_5  and  C_6 
REMARK    2  A    between atoms: C_6  and  C_8 
REMARK    3  A    between atoms: C_11  and  C_12 
REMARK       I    between atoms: C_12  and  N_14 
REMARK    4  A    between atoms: N_14  and  N_15 
REMARK       I    between atoms: N_15  and  C_16 
REMARK    5  A    between atoms: C_16  and  C_18 
REMARK    6  A    between atoms: C_18  and  C_19 
REMARK    7  A    between atoms: C_19  and  C_20 
REMARK    8  A    between atoms: C_20  and  C_21 
ROOT
ATOM      1  C   UNL d   1      26.187 -16.281  -1.650  0.00  0.00     0.270 C 
ATOM      2  O   UNL d   1      27.052 -15.973  -0.828  0.00  0.00    -0.266 OA
ATOM      3  N   UNL d   1      26.351 -16.036  -3.006  0.00  0.00    -0.263 N 
ATOM      4  H   UNL d   1      25.684 -16.291  -3.731  0.00  0.00     0.190 HD
ENDROOT
BRANCH   1   5
ATOM      5  C   UNL d   1      24.924 -16.983  -1.202  0.00  0.00     0.033 A 
ATOM      6  C   UNL d   1      23.690 -16.313  -1.309  0.00  0.00     0.018 A 
ATOM      7  C   UNL d   1      22.508 -16.887  -0.806  0.00  0.00     0.018 A 
ATOM      8  C   UNL d   1      22.528 -18.172  -0.246  0.00  0.00     0.032 A 
ATOM      9  C   UNL d   1      23.739 -18.859  -0.166  0.00  0.00     0.018 A 
ATOM     10  C   UNL d   1      24.924 -18.270  -0.642  0.00  0.00     0.018 A 
BRANCH   8  11
ATOM     11  C   UNL d   1      21.249 -18.859   0.063  0.00  0.00     0.252 C 
ATOM     12  N   UNL d   1      21.002 -19.238   1.373  0.00  0.00    -0.349 N 
ATOM     13  H   UNL d   1      21.646 -18.952   2.100  0.00  0.00     0.163 HD
ATOM     14  O   UNL d   1      20.485 -19.083  -0.878  0.00  0.00    -0.268 OA
BRANCH  12  15
ATOM     15  C   UNL d   1      19.786 -19.978   1.775  0.00  0.00     0.022 C 
ATOM     16  C   UNL d   1      19.925 -20.501   3.220  0.00  0.00     0.037 C 
ATOM     17  C   UNL d   1      19.574 -21.195   0.856  0.00  0.00     0.037 C 
ATOM     18  C   UNL d   1      18.555 -19.059   1.728  0.00  0.00     0.037 C 
ENDBRANCH  12  15
ENDBRANCH   8  11
ENDBRANCH   1   5
BRANCH   3  19
ATOM     19  N   UNL d   1      27.546 -15.447  -3.489  0.00  0.00    -0.267 N 
ATOM     20  C   UNL d   1      27.619 -15.140  -4.835  0.00  0.00     0.236 C 
ATOM     21  O   UNL d   1      26.677 -15.374  -5.596  0.00  0.00    -0.272 OA
ATOM     22  H   UNL d   1      28.287 -15.276  -2.812  0.00  0.00     0.190 HD
BRANCH  20  23
ATOM     23  C   UNL d   1      28.928 -14.496  -5.296  0.00  0.00     0.105 C 
BRANCH  23  24
ATOM     24  C   UNL d   1      29.306 -15.003  -6.688  0.00  0.00     0.014 C 
BRANCH  24  25
ATOM     25  C   UNL d   1      30.621 -15.788  -6.740  0.00  0.00     0.039 C 
BRANCH  25  26
ATOM     26  C   UNL d   1      30.566 -17.102  -5.983  0.00  0.00    -0.058 A 
ATOM     27  C   UNL d   1      30.742 -17.120  -4.591  0.00  0.00     0.007 A 
ATOM     28  C   UNL d   1      30.870 -18.336  -3.912  0.00  0.00     0.001 A 
ATOM     29  C   UNL d   1      30.749 -19.544  -4.598  0.00  0.00     0.000 A 
ATOM     30  C   UNL d   1      30.532 -19.540  -5.969  0.00  0.00     0.001 A 
ATOM     31  C   UNL d   1      30.456 -18.330  -6.654  0.00  0.00     0.007 A 
ENDBRANCH  25  26
ENDBRANCH  24  25
ENDBRANCH  23  24
ENDBRANCH  20  23
ENDBRANCH   3  19
TORSDOF 8
ENDMDL
MODEL 4
REMARK VINA RESULT:    -8.337      3.023      9.925
REMARK INTER + INTRA:         -12.874
REMARK INTER:                 -10.723
REMARK INTRA:                  -2.151
REMARK CONF_INDEPENDENT:        2.386
REMARK UNBOUND:                -2.151
REMARK  8 active torsions:
REMARK  status: ('A' for Active; 'I' for Inactive)
REMARK    1  A    between atoms: C_2  and  N_5 
REMARK       I    between atoms: N_5  and  C_6 
REMARK    2  A    between atoms: C_6  and  C_8 
REMARK    3  A    between atoms: C_11  and  C_12 
REMARK       I    between atoms: C_12  and  N_14 
REMARK    4  A    between atoms: N_14  and  N_15 
REMARK       I    between atoms: N_15  and  C_16 
REMARK    5  A    between atoms: C_16  and  C_18 
REMARK    6  A    between atoms: C_18  and  C_19 
REMARK    7  A    between atoms: C_19  and  C_20 
REMARK    8  A    between atoms: C_20  and  C_21 
ROOT
ATOM      1  C   UNL d   1      27.414 -13.918   2.689  0.00  0.00     0.270 C 
ATOM      2  O   UNL d   1      26.508 -13.216   2.234  0.00  0.00    -0.266 OA
ATOM      3  N   UNL d   1      28.125 -14.800   1.887  0.00  0.00    -0.263 N 
ATOM      4  H   UNL d   1      28.896 -15.383   2.201  0.00  0.00     0.190 HD
ENDROOT
BRANCH   1   5
ATOM      5  C   UNL d   1      27.808 -13.806   4.145  0.00  0.00     0.033 A 
ATOM      6  C   UNL d   1      27.781 -12.544   4.770  0.00  0.00     0.018 A 
ATOM      7  C   UNL d   1      28.242 -12.379   6.090  0.00  0.00     0.018 A 
ATOM      8  C   UNL d   1      28.675 -13.487   6.831  0.00  0.00     0.032 A 
ATOM      9  C   UNL d   1      28.673 -14.748   6.234  0.00  0.00     0.018 A 
ATOM     10  C   UNL d   1      28.241 -14.904   4.905  0.00  0.00     0.018 A 
BRANCH   8  11
ATOM     11  C   UNL d   1      28.932 -13.342   8.286  0.00  0.00     0.252 C 
ATOM     12  N   UNL d   1      29.476 -14.418   8.971  0.00  0.00    -0.349 N 
ATOM     13  H   UNL d   1      29.777 -15.233   8.452  0.00  0.00     0.163 HD
ATOM     14  O   UNL d   1      28.615 -12.275   8.814  0.00  0.00    -0.268 OA
BRANCH  12  15
ATOM     15  C   UNL d   1      29.717 -14.396  10.430  0.00  0.00     0.022 C 
ATOM     16  C   UNL d   1      30.404 -15.701  10.883  0.00  0.00     0.037 C 
ATOM     17  C   UNL d   1      28.382 -14.284  11.189  0.00  0.00     0.037 C 
ATOM     18  C   UNL d   1      30.641 -13.227  10.808  0.00  0.00     0.037 C 
ENDBRANCH  12  15
ENDBRANCH   8  11
ENDBRANCH   1   5
BRANCH   3  19
ATOM     19  N   UNL d   1      27.845 -14.892   0.500  0.00  0.00    -0.267 N 
ATOM     20  C   UNL d   1      28.650 -15.712  -0.269  0.00  0.00     0.236 C 
ATOM     21  O   UNL d   1      29.586 -16.341   0.230  0.00  0.00    -0.272 OA
ATOM     22  H   UNL d   1      27.059 -14.351   0.147  0.00  0.00     0.190 HD
BRANCH  20  23
ATOM     23  C   UNL d   1      28.294 -15.780  -1.755  0.00  0.00     0.105 C 
BRANCH  23  24
ATOM     24  C   UNL d   1      26.883 -16.339  -1.937  0.00  0.00     0.014 C 
BRANCH  24  25
ATOM     25  C   UNL d   1      26.463 -17.356  -0.871  0.00  0.00     0.039 C 
BRANCH  25  26
ATOM     26  C   UNL d   1      24.962 -17.412  -0.654  0.00  0.00    -0.058 A 
ATOM     27  C   UNL d   1      24.355 -18.606  -0.237  0.00  0.00     0.007 A 
ATOM     28  C   UNL d   1      22.961 -18.716  -0.208  0.00  0.00     0.001 A 
ATOM     29  C   UNL d   1      22.160 -17.618  -0.520  0.00  0.00     0.000 A 
ATOM     30  C   UNL d   1      22.748 -16.419  -0.894  0.00  0.00     0.001 A 
ATOM     31  C   UNL d   1      24.135 -16.324  -0.974  0.00  0.00     0.007 A 
ENDBRANCH  25  26
ENDBRANCH  24  25
ENDBRANCH  23  24
ENDBRANCH  20  23
ENDBRANCH   3  19
TORSDOF 8
ENDMDL
MODEL 5
REMARK VINA RESULT:    -7.921      5.473     10.931
REMARK INTER + INTRA:         -12.206
REMARK INTER:                 -10.307
REMARK INTRA:                  -1.899
REMARK CONF_INDEPENDENT:        2.386
REMARK UNBOUND:                -1.899
REMARK  8 active torsions:
REMARK  status: ('A' for Active; 'I' for Inactive)
REMARK    1  A    between atoms: C_2  and  N_5 
REMARK       I    between atoms: N_5  and  C_6 
REMARK    2  A    between atoms: C_6  and  C_8 
REMARK    3  A    between atoms: C_11  and  C_12 
REMARK       I    between atoms: C_12  and  N_14 
REMARK    4  A    between atoms: N_14  and  N_15 
REMARK       I    between atoms: N_15  and  C_16 
REMARK    5  A    between atoms: C_16  and  C_18 
REMARK    6  A    between atoms: C_18  and  C_19 
REMARK    7  A    between atoms: C_19  and  C_20 
REMARK    8  A    between atoms: C_20  and  C_21 
ROOT
ATOM      1  C   UNL d   1      25.772 -15.397  -3.330  0.00  0.00     0.270 C 
ATOM      2  O   UNL d   1      24.763 -14.722  -3.540  0.00  0.00    -0.266 OA
ATOM      3  N   UNL d   1      25.817 -16.346  -2.319  0.00  0.00    -0.263 N 
ATOM      4  H   UNL d   1      26.611 -16.949  -2.117  0.00  0.00     0.190 HD
ENDROOT
BRANCH   1   5
ATOM      5  C   UNL d   1      26.994 -15.237  -4.209  0.00  0.00     0.033 A 
ATOM      6  C   UNL d   1      28.208 -15.833  -3.814  0.00  0.00     0.018 A 
ATOM      7  C   UNL d   1      29.391 -15.618  -4.546  0.00  0.00     0.018 A 
ATOM      8  C   UNL d   1      29.367 -14.858  -5.724  0.00  0.00     0.032 A 
ATOM      9  C   UNL d   1      28.162 -14.293  -6.143  0.00  0.00     0.018 A 
ATOM     10  C   UNL d   1      26.988 -14.483  -5.393  0.00  0.00     0.018 A 
BRANCH   8  11
ATOM     11  C   UNL d   1      30.558 -14.836  -6.608  0.00  0.00     0.252 C 
ATOM     12  N   UNL d   1      31.208 -13.628  -6.811  0.00  0.00    -0.349 N 
ATOM     13  H   UNL d   1      30.920 -12.817  -6.278  0.00  0.00     0.163 HD
ATOM     14  O   UNL d   1      30.888 -15.897  -7.142  0.00  0.00    -0.268 OA
BRANCH  12  15
ATOM     15  C   UNL d   1      32.368 -13.488  -7.717  0.00  0.00     0.022 C 
ATOM     16  C   UNL d   1      31.906 -13.489  -9.189  0.00  0.00     0.037 C 
ATOM     17  C   UNL d   1      33.337 -14.670  -7.531  0.00  0.00     0.037 C 
ATOM     18  C   UNL d   1      33.098 -12.160  -7.458  0.00  0.00     0.037 C 
ENDBRANCH  12  15
ENDBRANCH   8  11
ENDBRANCH   1   5
BRANCH   3  19
ATOM     19  N   UNL d   1      24.676 -16.589  -1.513  0.00  0.00    -0.267 N 
ATOM     20  C   UNL d   1      24.725 -17.647  -0.624  0.00  0.00     0.236 C 
ATOM     21  O   UNL d   1      25.725 -18.363  -0.535  0.00  0.00    -0.272 OA
ATOM     22  H   UNL d   1      23.883 -15.963  -1.630  0.00  0.00     0.190 HD
BRANCH  20  23
ATOM     23  C   UNL d   1      23.471 -17.853   0.226  0.00  0.00     0.105 C 
BRANCH  23  24
ATOM     24  C   UNL d   1      22.216 -17.589  -0.607  0.00  0.00     0.014 C 
BRANCH  24  25
ATOM     25  C   UNL d   1      21.520 -18.854  -1.120  0.00  0.00     0.039 C 
BRANCH  25  26
ATOM     26  C   UNL d   1      20.560 -19.461  -0.114  0.00  0.00    -0.058 A 
ATOM     27  C   UNL d   1      19.377 -20.075  -0.551  0.00  0.00     0.007 A 
ATOM     28  C   UNL d   1      18.406 -20.476   0.372  0.00  0.00     0.001 A 
ATOM     29  C   UNL d   1      18.636 -20.339   1.741  0.00  0.00     0.000 A 
ATOM     30  C   UNL d   1      19.821 -19.771   2.189  0.00  0.00     0.001 A 
ATOM     31  C   UNL d   1      20.765 -19.325   1.268  0.00  0.00     0.007 A 
ENDBRANCH  25  26
ENDBRANCH  24  25
ENDBRANCH  23  24
ENDBRANCH  20  23
ENDBRANCH   3  19
TORSDOF 8
ENDMDL
MODEL 6
REMARK VINA RESULT:    -7.851      3.874     10.244
REMARK INTER + INTRA:         -12.062
REMARK INTER:                 -10.238
REMARK INTRA:                  -1.824
REMARK CONF_INDEPENDENT:        2.386
REMARK UNBOUND:                -1.824
REMARK  8 active torsions:
REMARK  status: ('A' for Active; 'I' for Inactive)
REMARK    1  A    between atoms: C_2  and  N_5 
REMARK       I    between atoms: N_5  and  C_6 
REMARK    2  A    between atoms: C_6  and  C_8 
REMARK    3  A    between atoms: C_11  and  C_12 
REMARK       I    between atoms: C_12  and  N_14 
REMARK    4  A    between atoms: N_14  and  N_15 
REMARK       I    between atoms: N_15  and  C_16 
REMARK    5  A    between atoms: C_16  and  C_18 
REMARK    6  A    between atoms: C_18  and  C_19 
REMARK    7  A    between atoms: C_19  and  C_20 
REMARK    8  A    between atoms: C_20  and  C_21 
ROOT
ATOM      1  C   UNL d   1      27.603 -13.960   2.591  0.00  0.00     0.270 C 
ATOM      2  O   UNL d   1      27.231 -12.979   1.945  0.00  0.00    -0.266 OA
ATOM      3  N   UNL d   1      27.777 -15.201   1.995  0.00  0.00    -0.263 N 
ATOM      4  H   UNL d   1      28.105 -16.038   2.472  0.00  0.00     0.190 HD
ENDROOT
BRANCH   1   5
ATOM      5  C   UNL d   1      27.924 -13.827   4.064  0.00  0.00     0.033 A 
ATOM      6  C   UNL d   1      27.780 -12.573   4.689  0.00  0.00     0.018 A 
ATOM      7  C   UNL d   1      28.170 -12.383   6.027  0.00  0.00     0.018 A 
ATOM      8  C   UNL d   1      28.648 -13.461   6.786  0.00  0.00     0.032 A 
ATOM      9  C   UNL d   1      28.761 -14.715   6.187  0.00  0.00     0.018 A 
ATOM     10  C   UNL d   1      28.400 -14.896   4.840  0.00  0.00     0.018 A 
BRANCH   8  11
ATOM     11  C   UNL d   1      28.830 -13.305   8.250  0.00  0.00     0.252 C 
ATOM     12  N   UNL d   1      29.364 -14.365   8.966  0.00  0.00    -0.349 N 
ATOM     13  H   UNL d   1      29.707 -15.175   8.466  0.00  0.00     0.163 HD
ATOM     14  O   UNL d   1      28.464 -12.243   8.757  0.00  0.00    -0.268 OA
BRANCH  12  15
ATOM     15  C   UNL d   1      29.532 -14.333  10.435  0.00  0.00     0.022 C 
ATOM     16  C   UNL d   1      30.309 -15.576  10.917  0.00  0.00     0.037 C 
ATOM     17  C   UNL d   1      28.158 -14.343  11.130  0.00  0.00     0.037 C 
ATOM     18  C   UNL d   1      30.332 -13.091  10.860  0.00  0.00     0.037 C 
ENDBRANCH  12  15
ENDBRANCH   8  11
ENDBRANCH   1   5
BRANCH   3  19
ATOM     19  N   UNL d   1      27.560 -15.365   0.604  0.00  0.00    -0.267 N 
ATOM     20  C   UNL d   1      27.177 -16.614   0.151  0.00  0.00     0.236 C 
ATOM     21  O   UNL d   1      27.031 -17.560   0.929  0.00  0.00    -0.272 OA
ATOM     22  H   UNL d   1      27.693 -14.548   0.013  0.00  0.00     0.190 HD
BRANCH  20  23
ATOM     23  C   UNL d   1      26.947 -16.728  -1.356  0.00  0.00     0.105 C 
BRANCH  23  24
ATOM     24  C   UNL d   1      25.465 -16.964  -1.650  0.00  0.00     0.014 C 
BRANCH  24  25
ATOM     25  C   UNL d   1      24.674 -15.694  -1.982  0.00  0.00     0.039 C 
BRANCH  25  26
ATOM     26  C   UNL d   1      25.271 -14.898  -3.128  0.00  0.00    -0.058 A 
ATOM     27  C   UNL d   1      25.916 -15.560  -4.184  0.00  0.00     0.007 A 
ATOM     28  C   UNL d   1      26.621 -14.832  -5.147  0.00  0.00     0.001 A 
ATOM     29  C   UNL d   1      26.627 -13.437  -5.113  0.00  0.00     0.000 A 
ATOM     30  C   UNL d   1      25.957 -12.769  -4.098  0.00  0.00     0.001 A 
ATOM     31  C   UNL d   1      25.299 -13.495  -3.109  0.00  0.00     0.007 A 
ENDBRANCH  25  26
ENDBRANCH  24  25
ENDBRANCH  23  24
ENDBRANCH  20  23
ENDBRANCH   3  19
TORSDOF 8
ENDMDL
MODEL 7
REMARK VINA RESULT:    -7.422      5.023      7.186
REMARK INTER + INTRA:         -11.697
REMARK INTER:                  -9.808
REMARK INTRA:                  -1.889
REMARK CONF_INDEPENDENT:        2.386
REMARK UNBOUND:                -1.889
REMARK  8 active torsions:
REMARK  status: ('A' for Active; 'I' for Inactive)
REMARK    1  A    between atoms: C_2  and  N_5 
REMARK       I    between atoms: N_5  and  C_6 
REMARK    2  A    between atoms: C_6  and  C_8 
REMARK    3  A    between atoms: C_11  and  C_12 
REMARK       I    between atoms: C_12  and  N_14 
REMARK    4  A    between atoms: N_14  and  N_15 
REMARK       I    between atoms: N_15  and  C_16 
REMARK    5  A    between atoms: C_16  and  C_18 
REMARK    6  A    between atoms: C_18  and  C_19 
REMARK    7  A    between atoms: C_19  and  C_20 
REMARK    8  A    between atoms: C_20  and  C_21 
ROOT
ATOM      1  C   UNL d   1      26.208 -16.398  -1.616  0.00  0.00     0.270 C 
ATOM      2  O   UNL d   1      27.174 -16.319  -0.853  0.00  0.00    -0.266 OA
ATOM      3  N   UNL d   1      26.266 -15.917  -2.916  0.00  0.00    -0.263 N 
ATOM      4  H   UNL d   1      25.512 -15.978  -3.596  0.00  0.00     0.190 HD
ENDROOT
BRANCH   1   5
ATOM      5  C   UNL d   1      24.930 -17.068  -1.162  0.00  0.00     0.033 A 
ATOM      6  C   UNL d   1      23.702 -16.402  -1.346  0.00  0.00     0.018 A 
ATOM      7  C   UNL d   1      22.504 -16.942  -0.842  0.00  0.00     0.018 A 
ATOM      8  C   UNL d   1      22.503 -18.190  -0.204  0.00  0.00     0.032 A 
ATOM      9  C   UNL d   1      23.708 -18.875  -0.048  0.00  0.00     0.018 A 
ATOM     10  C   UNL d   1      24.909 -18.318  -0.525  0.00  0.00     0.018 A 
BRANCH   8  11
ATOM     11  C   UNL d   1      21.213 -18.854   0.109  0.00  0.00     0.252 C 
ATOM     12  N   UNL d   1      20.974 -19.251   1.416  0.00  0.00    -0.349 N 
ATOM     13  H   UNL d   1      21.633 -18.992   2.139  0.00  0.00     0.163 HD
ATOM     14  O   UNL d   1      20.432 -19.045  -0.825  0.00  0.00    -0.268 OA
BRANCH  12  15
ATOM     15  C   UNL d   1      19.747 -19.971   1.820  0.00  0.00     0.022 C 
ATOM     16  C   UNL d   1      19.863 -20.457   3.280  0.00  0.00     0.037 C 
ATOM     17  C   UNL d   1      19.537 -21.209   0.931  0.00  0.00     0.037 C 
ATOM     18  C   UNL d   1      18.524 -19.043   1.734  0.00  0.00     0.037 C 
ENDBRANCH  12  15
ENDBRANCH   8  11
ENDBRANCH   1   5
BRANCH   3  19
ATOM     19  N   UNL d   1      27.463 -15.346  -3.417  0.00  0.00    -0.267 N 
ATOM     20  C   UNL d   1      27.580 -15.183  -4.785  0.00  0.00     0.236 C 
ATOM     21  O   UNL d   1      26.677 -15.528  -5.550  0.00  0.00    -0.272 OA
ATOM     22  H   UNL d   1      28.171 -15.079  -2.736  0.00  0.00     0.190 HD
BRANCH  20  23
ATOM     23  C   UNL d   1      28.888 -14.552  -5.265  0.00  0.00     0.105 C 
BRANCH  23  24
ATOM     24  C   UNL d   1      28.610 -13.215  -5.954  0.00  0.00     0.014 C 
BRANCH  24  25
ATOM     25  C   UNL d   1      27.154 -12.747  -5.864  0.00  0.00     0.039 C 
BRANCH  25  26
ATOM     26  C   UNL d   1      26.995 -11.247  -6.026  0.00  0.00    -0.058 A 
ATOM     27  C   UNL d   1      28.086 -10.395  -5.800  0.00  0.00     0.007 A 
ATOM     28  C   UNL d   1      27.904  -9.008  -5.772  0.00  0.00     0.001 A 
ATOM     29  C   UNL d   1      26.654  -8.455  -6.044  0.00  0.00     0.000 A 
ATOM     30  C   UNL d   1      25.574  -9.285  -6.311  0.00  0.00     0.001 A 
ATOM     31  C   UNL d   1      25.743 -10.668  -6.288  0.00  0.00     0.007 A 
ENDBRANCH  25  26
ENDBRANCH  24  25
ENDBRANCH  23  24
ENDBRANCH  20  23
ENDBRANCH   3  19
TORSDOF 8
ENDMDL
MODEL 8
REMARK VINA RESULT:    -7.297      3.380      9.555
REMARK INTER + INTRA:         -12.145
REMARK INTER:                  -9.683
REMARK INTRA:                  -2.462
REMARK CONF_INDEPENDENT:        2.386
REMARK UNBOUND:                -2.462
REMARK  8 active torsions:
REMARK  status: ('A' for Active; 'I' for Inactive)
REMARK    1  A    between atoms: C_2  and  N_5 
REMARK       I    between atoms: N_5  and  C_6 
REMARK    2  A    between atoms: C_6  and  C_8 
REMARK    3  A    between atoms: C_11  and  C_12 
REMARK       I    between atoms: C_12  and  N_14 
REMARK    4  A    between atoms: N_14  and  N_15 
REMARK       I    between atoms: N_15  and  C_16 
REMARK    5  A    between atoms: C_16  and  C_18 
REMARK    6  A    between atoms: C_18  and  C_19 
REMARK    7  A    between atoms: C_19  and  C_20 
REMARK    8  A    between atoms: C_20  and  C_21 
ROOT
ATOM      1  C   UNL d   1      27.690 -14.557   2.040  0.00  0.00     0.270 C 
ATOM      2  O   UNL d   1      27.616 -15.733   1.678  0.00  0.00    -0.266 OA
ATOM      3  N   UNL d   1      27.529 -13.508   1.147  0.00  0.00    -0.263 N 
ATOM      4  H   UNL d   1      27.554 -12.521   1.392  0.00  0.00     0.190 HD
ENDROOT
BRANCH   1   5
ATOM      5  C   UNL d   1      27.921 -14.220   3.497  0.00  0.00     0.033 A 
ATOM      6  C   UNL d   1      27.843 -12.877   3.913  0.00  0.00     0.018 A 
ATOM      7  C   UNL d   1      28.156 -12.509   5.235  0.00  0.00     0.018 A 
ATOM      8  C   UNL d   1      28.487 -13.488   6.183  0.00  0.00     0.032 A 
ATOM      9  C   UNL d   1      28.531 -14.826   5.790  0.00  0.00     0.018 A 
ATOM     10  C   UNL d   1      28.249 -15.187   4.461  0.00  0.00     0.018 A 
BRANCH   8  11
ATOM     11  C   UNL d   1      28.581 -13.119   7.617  0.00  0.00     0.252 C 
ATOM     12  N   UNL d   1      29.105 -14.046   8.504  0.00  0.00    -0.349 N 
ATOM     13  H   UNL d   1      29.501 -14.906   8.144  0.00  0.00     0.163 HD
ATOM     14  O   UNL d   1      28.156 -12.011   7.947  0.00  0.00    -0.268 OA
BRANCH  12  15
ATOM     15  C   UNL d   1      29.190 -13.800   9.960  0.00  0.00     0.022 C 
ATOM     16  C   UNL d   1      29.874 -14.987  10.670  0.00  0.00     0.037 C 
ATOM     17  C   UNL d   1      27.779 -13.649  10.559  0.00  0.00     0.037 C 
ATOM     18  C   UNL d   1      30.025 -12.542  10.247  0.00  0.00     0.037 C 
ENDBRANCH  12  15
ENDBRANCH   8  11
ENDBRANCH   1   5
BRANCH   3  19
ATOM     19  N   UNL d   1      27.239 -13.766  -0.217  0.00  0.00    -0.267 N 
ATOM     20  C   UNL d   1      27.030 -12.683  -1.051  0.00  0.00     0.236 C 
ATOM     21  O   UNL d   1      27.088 -11.527  -0.625  0.00  0.00    -0.272 OA
ATOM     22  H   UNL d   1      27.207 -14.740  -0.509  0.00  0.00     0.190 HD
BRANCH  20  23
ATOM     23  C   UNL d   1      26.732 -13.022  -2.512  0.00  0.00     0.105 C 
BRANCH  23  24
ATOM     24  C   UNL d   1      25.513 -13.939  -2.606  0.00  0.00     0.014 C 
BRANCH  24  25
ATOM     25  C   UNL d   1      25.847 -15.417  -2.834  0.00  0.00     0.039 C 
BRANCH  25  26
ATOM     26  C   UNL d   1      25.400 -16.315  -1.696  0.00  0.00    -0.058 A 
ATOM     27  C   UNL d   1      26.350 -17.003  -0.926  0.00  0.00     0.007 A 
ATOM     28  C   UNL d   1      25.943 -17.966   0.002  0.00  0.00     0.001 A 
ATOM     29  C   UNL d   1      24.587 -18.199   0.229  0.00  0.00     0.000 A 
ATOM     30  C   UNL d   1      23.635 -17.496  -0.495  0.00  0.00     0.001 A 
ATOM     31  C   UNL d   1      24.041 -16.574  -1.457  0.00  0.00     0.007 A 
ENDBRANCH  25  26
ENDBRANCH  24  25
ENDBRANCH  23  24
ENDBRANCH  20  23
ENDBRANCH   3  19
TORSDOF 8
ENDMDL
MODEL 9
REMARK VINA RESULT:    -6.862      7.581     10.557
REMARK INTER + INTRA:         -11.228
REMARK INTER:                  -9.249
REMARK INTRA:                  -1.979
REMARK CONF_INDEPENDENT:        2.386
REMARK UNBOUND:                -1.979
REMARK  8 active torsions:
REMARK  status: ('A' for Active; 'I' for Inactive)
REMARK    1  A    between atoms: C_2  and  N_5 
REMARK       I    between atoms: N_5  and  C_6 
REMARK    2  A    between atoms: C_6  and  C_8 
REMARK    3  A    between atoms: C_11  and  C_12 
REMARK       I    between atoms: C_12  and  N_14 
REMARK    4  A    between atoms: N_14  and  N_15 
REMARK       I    between atoms: N_15  and  C_16 
REMARK    5  A    between atoms: C_16  and  C_18 
REMARK    6  A    between atoms: C_18  and  C_19 
REMARK    7  A    between atoms: C_19  and  C_20 
REMARK    8  A    between atoms: C_20  and  C_21 
ROOT
ATOM      1  C   UNL d   1      30.077 -17.471  -4.608  0.00  0.00     0.270 C 
ATOM      2  O   UNL d   1      30.433 -17.405  -3.430  0.00  0.00    -0.266 OA
ATOM      3  N   UNL d   1      29.214 -16.536  -5.162  0.00  0.00    -0.263 N 
ATOM      4  H   UNL d   1      28.907 -16.527  -6.132  0.00  0.00     0.190 HD
ENDROOT
BRANCH   1   5
ATOM      5  C   UNL d   1      30.611 -18.566  -5.506  0.00  0.00     0.033 A 
ATOM      6  C   UNL d   1      30.663 -19.888  -5.023  0.00  0.00     0.018 A 
ATOM      7  C   UNL d   1      31.250 -20.915  -5.785  0.00  0.00     0.018 A 
ATOM      8  C   UNL d   1      31.737 -20.650  -7.073  0.00  0.00     0.032 A 
ATOM      9  C   UNL d   1      31.658 -19.352  -7.575  0.00  0.00     0.018 A 
ATOM     10  C   UNL d   1      31.099 -18.321  -6.799  0.00  0.00     0.018 A 
BRANCH   8  11
ATOM     11  C   UNL d   1      32.134 -21.777  -7.953  0.00  0.00     0.252 C 
ATOM     12  N   UNL d   1      31.670 -23.048  -7.650  0.00  0.00    -0.349 N 
ATOM     13  H   UNL d   1      30.996 -23.162  -6.903  0.00  0.00     0.163 HD
ATOM     14  O   UNL d   1      32.886 -21.522  -8.895  0.00  0.00    -0.268 OA
BRANCH  12  15
ATOM     15  C   UNL d   1      32.053 -24.245  -8.429  0.00  0.00     0.022 C 
ATOM     16  C   UNL d   1      31.906 -23.976  -9.941  0.00  0.00     0.037 C 
ATOM     17  C   UNL d   1      31.135 -25.429  -8.075  0.00  0.00     0.037 C 
ATOM     18  C   UNL d   1      33.522 -24.615  -8.163  0.00  0.00     0.037 C 
ENDBRANCH  12  15
ENDBRANCH   8  11
ENDBRANCH   1   5
BRANCH   3  19
ATOM     19  N   UNL d   1      28.741 -15.449  -4.386  0.00  0.00    -0.267 N 
ATOM     20  C   UNL d   1      27.573 -14.827  -4.787  0.00  0.00     0.236 C 
ATOM     21  O   UNL d   1      26.961 -15.201  -5.790  0.00  0.00    -0.272 OA
ATOM     22  H   UNL d   1      29.287 -15.189  -3.568  0.00  0.00     0.190 HD
BRANCH  20  23
ATOM     23  C   UNL d   1      27.105 -13.669  -3.904  0.00  0.00     0.105 C 
BRANCH  23  24
ATOM     24  C   UNL d   1      26.076 -14.159  -2.886  0.00  0.00     0.014 C 
BRANCH  24  25
ATOM     25  C   UNL d   1      25.531 -15.565  -3.163  0.00  0.00     0.039 C 
BRANCH  25  26
ATOM     26  C   UNL d   1      25.391 -16.410  -1.911  0.00  0.00    -0.058 A 
ATOM     27  C   UNL d   1      26.502 -16.635  -1.084  0.00  0.00     0.007 A 
ATOM     28  C   UNL d   1      26.426 -17.554  -0.033  0.00  0.00     0.001 A 
ATOM     29  C   UNL d   1      25.223 -18.200   0.253  0.00  0.00     0.000 A 
ATOM     30  C   UNL d   1      24.105 -17.956  -0.531  0.00  0.00     0.001 A 
ATOM     31  C   UNL d   1      24.194 -17.080  -1.610  0.00  0.00     0.007 A 
ENDBRANCH  25  26
ENDBRANCH  24  25
ENDBRANCH  23  24
ENDBRANCH  20  23
ENDBRANCH   3  19
TORSDOF 8
ENDMDL
