MODEL 1
REMARK VINA RESULT:    -8.802      0.000      0.000
REMARK INTER + INTRA:         -12.297
REMARK INTER:                 -10.591
REMARK INTRA:                  -1.706
REMARK CONF_INDEPENDENT:        1.790
REMARK UNBOUND:                -1.706
REMARK  6 active torsions:
REMARK  status: ('A' for Active; 'I' for Inactive)
REMARK    1  A    between atoms: N_4  and  C_5 
REMARK    2  A    between atoms: C_7  and  N_8 
REMARK    3  A    between atoms: N_11  and  C_12 
REMARK    4  A    between atoms: C_12  and  C_13 
REMARK    5  A    between atoms: C_22  and  N_23 
REMARK    6  A    between atoms: C_24  and  N_25 
ROOT
ATOM      1  C   UNL d   1      27.029  -9.489   0.627  0.00  0.00     0.182 A 
ATOM      2  N   UNL d   1      27.356 -10.755   0.210  0.00  0.00    -0.042 NA
ATOM      3  C   UNL d   1      27.460 -11.738   1.123  0.00  0.00     0.728 A 
ATOM      4  N   UNL d   1      27.287 -11.535   2.429  0.00  0.00    -0.043 NA
ATOM      5  C   UNL d   1      27.003 -10.289   2.858  0.00  0.00     0.177 A 
ATOM      6  C   UNL d   1      26.814  -9.231   1.979  0.00  0.00     0.195 A 
ENDROOT
BRANCH   3   7
ATOM      7  N   UNL d   1      27.725 -13.022   0.717  0.00  0.00    -0.211 N 
ATOM      8  C   UNL d   1      28.892 -13.305  -0.118  0.00  0.00     0.169 C 
ATOM      9  C   UNL d   1      29.748 -14.422   0.546  0.00  0.00     0.255 C 
ATOM     10  N   UNL d   1      28.887 -15.653   0.852  0.00  0.00    -0.064 N 
ATOM     11  C   UNL d   1      27.780 -15.200   1.821  0.00  0.00     0.255 C 
ATOM     12  H   UNL d   1      29.465 -16.340   1.354  0.00  0.00     0.280 HD
ATOM     13  C   UNL d   1      26.888 -14.137   1.138  0.00  0.00     0.169 C 
BRANCH  10  14
ATOM     14  C   UNL d   1      28.431 -16.343  -0.425  0.00  0.00     0.273 C 
BRANCH  14  15
ATOM     15  C   UNL d   1      26.988 -16.753  -0.454  0.00  0.00    -0.033 C 
ATOM     16  C   UNL d   1      26.514 -17.774   0.374  0.00  0.00     0.009 C 
ATOM     17  C   UNL d   1      25.197 -18.217   0.235  0.00  0.00     0.001 C 
ATOM     18  C   UNL d   1      24.311 -17.565  -0.624  0.00  0.00     0.000 C 
ATOM     19  C   UNL d   1      24.761 -16.533  -1.426  0.00  0.00     0.001 C 
ATOM     20  C   UNL d   1      26.103 -16.201  -1.396  0.00  0.00     0.009 C 
ENDBRANCH  14  15
ENDBRANCH  10  14
ENDBRANCH   3   7
BRANCH   1  21
ATOM     21  N   UNL d   1      26.996  -8.528  -0.352  0.00  0.00    -0.358 N 
ATOM     22  C   UNL d   1      28.059  -7.528  -0.536  0.00  0.00     0.156 C 
ATOM     23  C   UNL d   1      28.588  -7.622  -1.982  0.00  0.00     0.136 C 
ATOM     24  C   UNL d   1      29.359  -8.923  -2.198  0.00  0.00     0.041 C 
ATOM     25  O   UNL d   1      27.513  -7.489  -2.943  0.00  0.00    -0.378 OA
ATOM     26  C   UNL d   1      26.474  -8.469  -2.745  0.00  0.00     0.136 C 
ATOM     27  C   UNL d   1      25.902  -8.413  -1.315  0.00  0.00     0.156 C 
ATOM     28  C   UNL d   1      25.375  -8.250  -3.774  0.00  0.00     0.041 C 
ENDBRANCH   1  21
BRANCH   5  29
ATOM     29  N   UNL d   1      27.006 -10.166   4.231  0.00  0.00    -0.381 N 
ATOM     30  H   UNL d   1      26.454  -9.440   4.663  0.00  0.00     0.157 HD
ATOM     31  H   UNL d   1      27.684 -10.679   4.792  0.00  0.00     0.157 HD
ENDBRANCH   5  29
BRANCH   6  32
ATOM     32  N   UNL d   1      26.305  -7.944   2.467  0.00  0.00    -0.108 N 
ATOM     33  O   UNL d   1      25.530  -7.283   1.775  0.00  0.00    -0.532 OA
ATOM     34  O   UNL d   1      26.655  -7.573   3.605  0.00  0.00    -0.532 OA
ENDBRANCH   6  32
TORSDOF 6
ENDMDL
MODEL 2
REMARK VINA RESULT:    -8.562      4.406      6.611
REMARK INTER + INTRA:         -11.517
REMARK INTER:                 -10.352
REMARK INTRA:                  -1.165
REMARK CONF_INDEPENDENT:        1.790
REMARK UNBOUND:                -1.165
REMARK  6 active torsions:
REMARK  status: ('A' for Active; 'I' for Inactive)
REMARK    1  A    between atoms: N_4  and  C_5 
REMARK    2  A    between atoms: C_7  and  N_8 
REMARK    3  A    between atoms: N_11  and  C_12 
REMARK    4  A    between atoms: C_12  and  C_13 
REMARK    5  A    between atoms: C_22  and  N_23 
REMARK    6  A    between atoms: C_24  and  N_25 
ROOT
ATOM      1  C   UNL d   1      27.837 -14.956  -2.160  0.00  0.00     0.182 A 
ATOM      2  N   UNL d   1      26.621 -15.583  -2.059  0.00  0.00    -0.042 NA
ATOM      3  C   UNL d   1      26.474 -16.588  -1.177  0.00  0.00     0.728 A 
ATOM      4  N   UNL d   1      27.470 -17.028  -0.408  0.00  0.00    -0.043 NA
ATOM      5  C   UNL d   1      28.682 -16.447  -0.523  0.00  0.00     0.177 A 
ATOM      6  C   UNL d   1      28.903 -15.361  -1.361  0.00  0.00     0.195 A 
ENDROOT
BRANCH   3   7
ATOM      7  N   UNL d   1      25.249 -17.186  -1.018  0.00  0.00    -0.211 N 
ATOM      8  C   UNL d   1      25.122 -18.401  -0.214  0.00  0.00     0.169 C 
ATOM      9  C   UNL d   1      24.026 -18.195   0.872  0.00  0.00     0.255 C 
ATOM     10  N   UNL d   1      22.713 -17.730   0.232  0.00  0.00    -0.064 N 
ATOM     11  C   UNL d   1      23.004 -16.394  -0.475  0.00  0.00     0.255 C 
ATOM     12  H   UNL d   1      22.035 -17.533   0.981  0.00  0.00     0.280 HD
ATOM     13  C   UNL d   1      24.045 -16.610  -1.599  0.00  0.00     0.169 C 
BRANCH  10  14
ATOM     14  C   UNL d   1      22.090 -18.827  -0.618  0.00  0.00     0.273 C 
BRANCH  14  15
ATOM     15  C   UNL d   1      20.800 -19.390  -0.098  0.00  0.00    -0.033 C 
ATOM     16  C   UNL d   1      20.653 -19.719   1.252  0.00  0.00     0.009 C 
ATOM     17  C   UNL d   1      19.487 -20.357   1.682  0.00  0.00     0.001 C 
ATOM     18  C   UNL d   1      18.414 -20.546   0.810  0.00  0.00     0.000 C 
ATOM     19  C   UNL d   1      18.536 -20.196  -0.522  0.00  0.00     0.001 C 
ATOM     20  C   UNL d   1      19.748 -19.707  -0.974  0.00  0.00     0.009 C 
ENDBRANCH  14  15
ENDBRANCH  10  14
ENDBRANCH   3   7
BRANCH   1  21
ATOM     21  N   UNL d   1      27.927 -13.978  -3.119  0.00  0.00    -0.358 N 
ATOM     22  C   UNL d   1      27.820 -14.252  -4.561  0.00  0.00     0.156 C 
ATOM     23  C   UNL d   1      26.686 -13.389  -5.151  0.00  0.00     0.136 C 
ATOM     24  C   UNL d   1      25.322 -13.866  -4.654  0.00  0.00     0.041 C 
ATOM     25  O   UNL d   1      26.885 -11.986  -4.854  0.00  0.00    -0.378 OA
ATOM     26  C   UNL d   1      26.997 -11.734  -3.438  0.00  0.00     0.136 C 
ATOM     27  C   UNL d   1      28.125 -12.566  -2.797  0.00  0.00     0.156 C 
ATOM     28  C   UNL d   1      27.227 -10.248  -3.210  0.00  0.00     0.041 C 
ENDBRANCH   1  21
BRANCH   5  29
ATOM     29  N   UNL d   1      29.669 -17.084   0.198  0.00  0.00    -0.381 N 
ATOM     30  H   UNL d   1      29.837 -18.067   0.044  0.00  0.00     0.157 HD
ATOM     31  H   UNL d   1      30.103 -16.621   0.995  0.00  0.00     0.157 HD
ENDBRANCH   5  29
BRANCH   6  32
ATOM     32  N   UNL d   1      30.173 -14.629  -1.304  0.00  0.00    -0.108 N 
ATOM     33  O   UNL d   1      30.905 -14.736  -0.320  0.00  0.00    -0.532 OA
ATOM     34  O   UNL d   1      30.492 -13.937  -2.291  0.00  0.00    -0.532 OA
ENDBRANCH   6  32
TORSDOF 6
ENDMDL
MODEL 3
REMARK VINA RESULT:    -8.286      4.382      7.925
REMARK INTER + INTRA:         -11.727
REMARK INTER:                 -10.076
REMARK INTRA:                  -1.651
REMARK CONF_INDEPENDENT:        1.790
REMARK UNBOUND:                -1.651
REMARK  6 active torsions:
REMARK  status: ('A' for Active; 'I' for Inactive)
REMARK    1  A    between atoms: N_4  and  C_5 
REMARK    2  A    between atoms: C_7  and  N_8 
REMARK    3  A    between atoms: N_11  and  C_12 
REMARK    4  A    between atoms: C_12  and  C_13 
REMARK    5  A    between atoms: C_22  and  N_23 
REMARK    6  A    between atoms: C_24  and  N_25 
ROOT
ATOM      1  C   UNL d   1      26.365 -15.015  -0.702  0.00  0.00     0.182 A 
ATOM      2  N   UNL d   1      27.034 -14.904   0.491  0.00  0.00    -0.042 NA
ATOM      3  C   UNL d   1      27.641 -13.742   0.794  0.00  0.00     0.728 A 
ATOM      4  N   UNL d   1      27.651 -12.693  -0.028  0.00  0.00    -0.043 NA
ATOM      5  C   UNL d   1      27.030 -12.800  -1.220  0.00  0.00     0.177 A 
ATOM      6  C   UNL d   1      26.323 -13.939  -1.585  0.00  0.00     0.195 A 
ENDROOT
BRANCH   3   7
ATOM      7  N   UNL d   1      28.261 -13.592   2.010  0.00  0.00    -0.211 N 
ATOM      8  C   UNL d   1      27.491 -13.705   3.248  0.00  0.00     0.169 C 
ATOM      9  C   UNL d   1      28.160 -14.754   4.183  0.00  0.00     0.255 C 
ATOM     10  N   UNL d   1      29.640 -14.420   4.398  0.00  0.00    -0.064 N 
ATOM     11  C   UNL d   1      30.315 -14.449   3.014  0.00  0.00     0.255 C 
ATOM     12  H   UNL d   1      30.068 -15.170   4.957  0.00  0.00     0.280 HD
ATOM     13  C   UNL d   1      29.696 -13.362   2.105  0.00  0.00     0.169 C 
BRANCH  10  14
ATOM     14  C   UNL d   1      29.810 -13.144   5.209  0.00  0.00     0.273 C 
BRANCH  14  15
ATOM     15  C   UNL d   1      29.416 -13.243   6.654  0.00  0.00    -0.033 C 
ATOM     16  C   UNL d   1      28.412 -12.428   7.182  0.00  0.00     0.009 C 
ATOM     17  C   UNL d   1      28.155 -12.454   8.554  0.00  0.00     0.001 C 
ATOM     18  C   UNL d   1      28.793 -13.379   9.383  0.00  0.00     0.000 C 
ATOM     19  C   UNL d   1      29.767 -14.212   8.865  0.00  0.00     0.001 C 
ATOM     20  C   UNL d   1      30.126 -14.074   7.537  0.00  0.00     0.009 C 
ENDBRANCH  14  15
ENDBRANCH  10  14
ENDBRANCH   3   7
BRANCH   1  21
ATOM     21  N   UNL d   1      25.817 -16.245  -0.966  0.00  0.00    -0.358 N 
ATOM     22  C   UNL d   1      26.625 -17.450  -1.215  0.00  0.00     0.156 C 
ATOM     23  C   UNL d   1      26.211 -18.545  -0.211  0.00  0.00     0.136 C 
ATOM     24  C   UNL d   1      26.649 -18.178   1.206  0.00  0.00     0.041 C 
ATOM     25  O   UNL d   1      24.787 -18.796  -0.266  0.00  0.00    -0.378 OA
ATOM     26  C   UNL d   1      24.008 -17.606  -0.030  0.00  0.00     0.136 C 
ATOM     27  C   UNL d   1      24.375 -16.479  -1.014  0.00  0.00     0.156 C 
ATOM     28  C   UNL d   1      22.529 -17.946  -0.127  0.00  0.00     0.041 C 
ENDBRANCH   1  21
BRANCH   5  29
ATOM     29  N   UNL d   1      27.241 -11.719  -2.049  0.00  0.00    -0.381 N 
ATOM     30  H   UNL d   1      26.472 -11.357  -2.594  0.00  0.00     0.157 HD
ATOM     31  H   UNL d   1      28.188 -11.399  -2.246  0.00  0.00     0.157 HD
ENDBRANCH   5  29
BRANCH   6  32
ATOM     32  N   UNL d   1      25.494 -13.940  -2.795  0.00  0.00    -0.108 N 
ATOM     33  O   UNL d   1      25.265 -14.995  -3.387  0.00  0.00    -0.532 OA
ATOM     34  O   UNL d   1      25.010 -12.854  -3.171  0.00  0.00    -0.532 OA
ENDBRANCH   6  32
TORSDOF 6
ENDMDL
MODEL 4
REMARK VINA RESULT:    -8.249      0.980      2.032
REMARK INTER + INTRA:         -11.852
REMARK INTER:                 -10.039
REMARK INTRA:                  -1.813
REMARK CONF_INDEPENDENT:        1.790
REMARK UNBOUND:                -1.813
REMARK  6 active torsions:
REMARK  status: ('A' for Active; 'I' for Inactive)
REMARK    1  A    between atoms: N_4  and  C_5 
REMARK    2  A    between atoms: C_7  and  N_8 
REMARK    3  A    between atoms: N_11  and  C_12 
REMARK    4  A    between atoms: C_12  and  C_13 
REMARK    5  A    between atoms: C_22  and  N_23 
REMARK    6  A    between atoms: C_24  and  N_25 
ROOT
ATOM      1  C   UNL d   1      27.358  -9.403   0.843  0.00  0.00     0.182 A 
ATOM      2  N   UNL d   1      27.649 -10.667   0.391  0.00  0.00    -0.042 NA
ATOM      3  C   UNL d   1      27.596 -11.697   1.254  0.00  0.00     0.728 A 
ATOM      4  N   UNL d   1      27.301 -11.547   2.546  0.00  0.00    -0.043 NA
ATOM      5  C   UNL d   1      27.050 -10.307   3.012  0.00  0.00     0.177 A 
ATOM      6  C   UNL d   1      27.018  -9.197   2.177  0.00  0.00     0.195 A 
ENDROOT
BRANCH   3   7
ATOM      7  N   UNL d   1      27.823 -12.975   0.808  0.00  0.00    -0.211 N 
ATOM      8  C   UNL d   1      28.995 -13.270  -0.015  0.00  0.00     0.169 C 
ATOM      9  C   UNL d   1      29.798 -14.441   0.623  0.00  0.00     0.255 C 
ATOM     10  N   UNL d   1      28.888 -15.650   0.868  0.00  0.00    -0.064 N 
ATOM     11  C   UNL d   1      27.779 -15.191   1.833  0.00  0.00     0.255 C 
ATOM     12  H   UNL d   1      29.431 -16.375   1.356  0.00  0.00     0.280 HD
ATOM     13  C   UNL d   1      26.939 -14.073   1.173  0.00  0.00     0.169 C 
BRANCH  10  14
ATOM     14  C   UNL d   1      28.433 -16.277  -0.441  0.00  0.00     0.273 C 
BRANCH  14  15
ATOM     15  C   UNL d   1      27.021 -16.787  -0.453  0.00  0.00    -0.033 C 
ATOM     16  C   UNL d   1      25.996 -16.048  -1.050  0.00  0.00     0.009 C 
ATOM     17  C   UNL d   1      24.675 -16.486  -0.935  0.00  0.00     0.001 C 
ATOM     18  C   UNL d   1      24.380 -17.719  -0.352  0.00  0.00     0.000 C 
ATOM     19  C   UNL d   1      25.390 -18.474   0.215  0.00  0.00     0.001 C 
ATOM     20  C   UNL d   1      26.675 -17.961   0.234  0.00  0.00     0.009 C 
ENDBRANCH  14  15
ENDBRANCH  10  14
ENDBRANCH   3   7
BRANCH   1  21
ATOM     21  N   UNL d   1      27.485  -8.396  -0.080  0.00  0.00    -0.358 N 
ATOM     22  C   UNL d   1      26.782  -8.394  -1.373  0.00  0.00     0.156 C 
ATOM     23  C   UNL d   1      25.953  -7.098  -1.490  0.00  0.00     0.136 C 
ATOM     24  C   UNL d   1      24.781  -7.111  -0.510  0.00  0.00     0.041 C 
ATOM     25  O   UNL d   1      26.781  -5.927  -1.294  0.00  0.00    -0.378 OA
ATOM     26  C   UNL d   1      27.472  -5.947  -0.028  0.00  0.00     0.136 C 
ATOM     27  C   UNL d   1      28.325  -7.219   0.138  0.00  0.00     0.156 C 
ATOM     28  C   UNL d   1      28.334  -4.700   0.092  0.00  0.00     0.041 C 
ENDBRANCH   1  21
BRANCH   5  29
ATOM     29  N   UNL d   1      26.917 -10.251   4.383  0.00  0.00    -0.381 N 
ATOM     30  H   UNL d   1      27.020  -9.365   4.854  0.00  0.00     0.157 HD
ATOM     31  H   UNL d   1      26.890 -11.109   4.932  0.00  0.00     0.157 HD
ENDBRANCH   5  29
BRANCH   6  32
ATOM     32  N   UNL d   1      26.541  -7.905   2.682  0.00  0.00    -0.108 N 
ATOM     33  O   UNL d   1      25.654  -7.297   2.083  0.00  0.00    -0.532 OA
ATOM     34  O   UNL d   1      27.037  -7.474   3.742  0.00  0.00    -0.532 OA
ENDBRANCH   6  32
TORSDOF 6
ENDMDL
MODEL 5
REMARK VINA RESULT:    -7.508      2.555      5.110
REMARK INTER + INTRA:         -11.083
REMARK INTER:                  -9.298
REMARK INTRA:                  -1.785
REMARK CONF_INDEPENDENT:        1.790
REMARK UNBOUND:                -1.785
REMARK  6 active torsions:
REMARK  status: ('A' for Active; 'I' for Inactive)
REMARK    1  A    between atoms: N_4  and  C_5 
REMARK    2  A    between atoms: C_7  and  N_8 
REMARK    3  A    between atoms: N_11  and  C_12 
REMARK    4  A    between atoms: C_12  and  C_13 
REMARK    5  A    between atoms: C_22  and  N_23 
REMARK    6  A    between atoms: C_24  and  N_25 
ROOT
ATOM      1  C   UNL d   1      28.157 -10.772   3.728  0.00  0.00     0.182 A 
ATOM      2  N   UNL d   1      28.223 -11.978   3.076  0.00  0.00    -0.042 NA
ATOM      3  C   UNL d   1      27.779 -12.062   1.809  0.00  0.00     0.728 A 
ATOM      4  N   UNL d   1      27.248 -11.027   1.157  0.00  0.00    -0.043 NA
ATOM      5  C   UNL d   1      27.142  -9.845   1.797  0.00  0.00     0.177 A 
ATOM      6  C   UNL d   1      27.634  -9.655   3.082  0.00  0.00     0.195 A 
ENDROOT
BRANCH   3   7
ATOM      7  N   UNL d   1      27.895 -13.243   1.120  0.00  0.00    -0.211 N 
ATOM      8  C   UNL d   1      28.989 -13.437   0.169  0.00  0.00     0.169 C 
ATOM      9  C   UNL d   1      29.758 -14.745   0.519  0.00  0.00     0.255 C 
ATOM     10  N   UNL d   1      28.792 -15.932   0.609  0.00  0.00    -0.064 N 
ATOM     11  C   UNL d   1      27.780 -15.607   1.723  0.00  0.00     0.255 C 
ATOM     12  H   UNL d   1      29.318 -16.761   0.912  0.00  0.00     0.280 HD
ATOM     13  C   UNL d   1      26.970 -14.345   1.345  0.00  0.00     0.169 C 
BRANCH  10  14
ATOM     14  C   UNL d   1      28.211 -16.280  -0.754  0.00  0.00     0.273 C 
BRANCH  14  15
ATOM     15  C   UNL d   1      26.775 -16.713  -0.750  0.00  0.00    -0.033 C 
ATOM     16  C   UNL d   1      26.367 -17.845  -0.038  0.00  0.00     0.009 C 
ATOM     17  C   UNL d   1      25.051 -18.294  -0.155  0.00  0.00     0.001 C 
ATOM     18  C   UNL d   1      24.103 -17.553  -0.863  0.00  0.00     0.000 C 
ATOM     19  C   UNL d   1      24.488 -16.414  -1.546  0.00  0.00     0.001 C 
ATOM     20  C   UNL d   1      25.825 -16.061  -1.553  0.00  0.00     0.009 C 
ENDBRANCH  14  15
ENDBRANCH  10  14
ENDBRANCH   3   7
BRANCH   1  21
ATOM     21  N   UNL d   1      28.576 -10.776   5.035  0.00  0.00    -0.358 N 
ATOM     22  C   UNL d   1      27.780 -11.345   6.134  0.00  0.00     0.156 C 
ATOM     23  C   UNL d   1      28.623 -12.413   6.861  0.00  0.00     0.136 C 
ATOM     24  C   UNL d   1      28.831 -13.640   5.975  0.00  0.00     0.041 C 
ATOM     25  O   UNL d   1      29.890 -11.869   7.301  0.00  0.00    -0.378 OA
ATOM     26  C   UNL d   1      30.655 -11.307   6.216  0.00  0.00     0.136 C 
ATOM     27  C   UNL d   1      29.861 -10.225   5.458  0.00  0.00     0.156 C 
ATOM     28  C   UNL d   1      31.957 -10.738   6.761  0.00  0.00     0.041 C 
ENDBRANCH   1  21
BRANCH   5  29
ATOM     29  N   UNL d   1      26.435  -8.897   1.089  0.00  0.00    -0.381 N 
ATOM     30  H   UNL d   1      26.236  -8.006   1.518  0.00  0.00     0.157 HD
ATOM     31  H   UNL d   1      25.969  -9.148   0.218  0.00  0.00     0.157 HD
ENDBRANCH   5  29
BRANCH   6  32
ATOM     32  N   UNL d   1      27.685  -8.309   3.663  0.00  0.00    -0.108 N 
ATOM     33  O   UNL d   1      28.732  -7.888   4.156  0.00  0.00    -0.532 OA
ATOM     34  O   UNL d   1      26.655  -7.608   3.605  0.00  0.00    -0.532 OA
ENDBRANCH   6  32
TORSDOF 6
ENDMDL
MODEL 6
REMARK VINA RESULT:    -7.419      4.821      7.080
REMARK INTER + INTRA:         -10.884
REMARK INTER:                  -9.209
REMARK INTRA:                  -1.675
REMARK CONF_INDEPENDENT:        1.790
REMARK UNBOUND:                -1.675
REMARK  6 active torsions:
REMARK  status: ('A' for Active; 'I' for Inactive)
REMARK    1  A    between atoms: N_4  and  C_5 
REMARK    2  A    between atoms: C_7  and  N_8 
REMARK    3  A    between atoms: N_11  and  C_12 
REMARK    4  A    between atoms: C_12  and  C_13 
REMARK    5  A    between atoms: C_22  and  N_23 
REMARK    6  A    between atoms: C_24  and  N_25 
ROOT
ATOM      1  C   UNL d   1      27.196 -10.896   2.891  0.00  0.00     0.182 A 
ATOM      2  N   UNL d   1      27.828 -11.743   3.766  0.00  0.00    -0.042 NA
ATOM      3  C   UNL d   1      28.110 -11.310   5.008  0.00  0.00     0.728 A 
ATOM      4  N   UNL d   1      27.829 -10.075   5.426  0.00  0.00    -0.043 NA
ATOM      5  C   UNL d   1      27.243  -9.219   4.565  0.00  0.00     0.177 A 
ATOM      6  C   UNL d   1      26.858  -9.604   3.287  0.00  0.00     0.195 A 
ENDROOT
BRANCH   3   7
ATOM      7  N   UNL d   1      28.685 -12.163   5.916  0.00  0.00    -0.211 N 
ATOM      8  C   UNL d   1      28.906 -13.567   5.570  0.00  0.00     0.169 C 
ATOM      9  C   UNL d   1      30.399 -13.934   5.813  0.00  0.00     0.255 C 
ATOM     10  N   UNL d   1      30.819 -13.571   7.242  0.00  0.00    -0.064 N 
ATOM     11  C   UNL d   1      30.623 -12.051   7.397  0.00  0.00     0.255 C 
ATOM     12  H   UNL d   1      31.824 -13.758   7.345  0.00  0.00     0.280 HD
ATOM     13  C   UNL d   1      29.129 -11.693   7.221  0.00  0.00     0.169 C 
BRANCH  10  14
ATOM     14  C   UNL d   1      30.122 -14.453   8.267  0.00  0.00     0.273 C 
BRANCH  14  15
ATOM     15  C   UNL d   1      29.644 -13.749   9.503  0.00  0.00    -0.033 C 
ATOM     16  C   UNL d   1      28.280 -13.579   9.752  0.00  0.00     0.009 C 
ATOM     17  C   UNL d   1      27.870 -12.811  10.843  0.00  0.00     0.001 C 
ATOM     18  C   UNL d   1      28.799 -12.326  11.765  0.00  0.00     0.000 C 
ATOM     19  C   UNL d   1      30.151 -12.514  11.546  0.00  0.00     0.001 C 
ATOM     20  C   UNL d   1      30.557 -13.142  10.382  0.00  0.00     0.009 C 
ENDBRANCH  14  15
ENDBRANCH  10  14
ENDBRANCH   3   7
BRANCH   1  21
ATOM     21  N   UNL d   1      26.990 -11.388   1.627  0.00  0.00    -0.358 N 
ATOM     22  C   UNL d   1      27.466 -10.710   0.411  0.00  0.00     0.156 C 
ATOM     23  C   UNL d   1      28.355 -11.685  -0.389  0.00  0.00     0.136 C 
ATOM     24  C   UNL d   1      29.671 -11.948   0.342  0.00  0.00     0.041 C 
ATOM     25  O   UNL d   1      27.658 -12.922  -0.667  0.00  0.00    -0.378 OA
ATOM     26  C   UNL d   1      27.189 -13.571   0.532  0.00  0.00     0.136 C 
ATOM     27  C   UNL d   1      26.286 -12.643   1.368  0.00  0.00     0.156 C 
ATOM     28  C   UNL d   1      26.450 -14.846   0.157  0.00  0.00     0.041 C 
ENDBRANCH   1  21
BRANCH   5  29
ATOM     29  N   UNL d   1      27.147  -7.931   5.049  0.00  0.00    -0.381 N 
ATOM     30  H   UNL d   1      27.327  -7.156   4.429  0.00  0.00     0.157 HD
ATOM     31  H   UNL d   1      27.069  -7.764   6.051  0.00  0.00     0.157 HD
ENDBRANCH   5  29
BRANCH   6  32
ATOM     32  N   UNL d   1      26.041  -8.710   2.459  0.00  0.00    -0.108 N 
ATOM     33  O   UNL d   1      25.150  -9.172   1.745  0.00  0.00    -0.532 OA
ATOM     34  O   UNL d   1      26.259  -7.485   2.534  0.00  0.00    -0.532 OA
ENDBRANCH   6  32
TORSDOF 6
ENDMDL
MODEL 7
REMARK VINA RESULT:    -7.381      3.813      7.496
REMARK INTER + INTRA:         -10.807
REMARK INTER:                  -9.171
REMARK INTRA:                  -1.636
REMARK CONF_INDEPENDENT:        1.790
REMARK UNBOUND:                -1.636
REMARK  6 active torsions:
REMARK  status: ('A' for Active; 'I' for Inactive)
REMARK    1  A    between atoms: N_4  and  C_5 
REMARK    2  A    between atoms: C_7  and  N_8 
REMARK    3  A    between atoms: N_11  and  C_12 
REMARK    4  A    between atoms: C_12  and  C_13 
REMARK    5  A    between atoms: C_22  and  N_23 
REMARK    6  A    between atoms: C_24  and  N_25 
ROOT
ATOM      1  C   UNL d   1      26.111 -14.710  -1.678  0.00  0.00     0.182 A 
ATOM      2  N   UNL d   1      26.764 -14.167  -0.600  0.00  0.00    -0.042 NA
ATOM      3  C   UNL d   1      27.022 -12.846  -0.590  0.00  0.00     0.728 A 
ATOM      4  N   UNL d   1      26.697 -12.036  -1.598  0.00  0.00    -0.043 NA
ATOM      5  C   UNL d   1      26.090 -12.563  -2.680  0.00  0.00     0.177 A 
ATOM      6  C   UNL d   1      25.728 -13.902  -2.746  0.00  0.00     0.195 A 
ENDROOT
BRANCH   3   7
ATOM      7  N   UNL d   1      27.617 -12.274   0.507  0.00  0.00    -0.211 N 
ATOM      8  C   UNL d   1      28.850 -11.502   0.356  0.00  0.00     0.169 C 
ATOM      9  C   UNL d   1      28.663 -10.094   0.993  0.00  0.00     0.255 C 
ATOM     10  N   UNL d   1      28.178 -10.216   2.441  0.00  0.00    -0.064 N 
ATOM     11  C   UNL d   1      26.827 -10.955   2.403  0.00  0.00     0.255 C 
ATOM     12  H   UNL d   1      27.995  -9.273   2.807  0.00  0.00     0.280 HD
ATOM     13  C   UNL d   1      27.023 -12.379   1.832  0.00  0.00     0.169 C 
BRANCH  10  14
ATOM     14  C   UNL d   1      29.252 -10.812   3.339  0.00  0.00     0.273 C 
BRANCH  14  15
ATOM     15  C   UNL d   1      28.826 -11.998   4.153  0.00  0.00    -0.033 C 
ATOM     16  C   UNL d   1      28.100 -11.835   5.336  0.00  0.00     0.009 C 
ATOM     17  C   UNL d   1      27.827 -12.947   6.135  0.00  0.00     0.001 C 
ATOM     18  C   UNL d   1      28.149 -14.234   5.702  0.00  0.00     0.000 C 
ATOM     19  C   UNL d   1      28.840 -14.411   4.518  0.00  0.00     0.001 C 
ATOM     20  C   UNL d   1      29.243 -13.295   3.808  0.00  0.00     0.009 C 
ENDBRANCH  14  15
ENDBRANCH  10  14
ENDBRANCH   3   7
BRANCH   1  21
ATOM     21  N   UNL d   1      25.932 -16.071  -1.643  0.00  0.00    -0.358 N 
ATOM     22  C   UNL d   1      27.046 -17.028  -1.562  0.00  0.00     0.156 C 
ATOM     23  C   UNL d   1      26.840 -17.931  -0.328  0.00  0.00     0.136 C 
ATOM     24  C   UNL d   1      27.030 -17.139   0.964  0.00  0.00     0.041 C 
ATOM     25  O   UNL d   1      25.543 -18.573  -0.359  0.00  0.00    -0.378 OA
ATOM     26  C   UNL d   1      24.461 -17.623  -0.448  0.00  0.00     0.136 C 
ATOM     27  C   UNL d   1      24.612 -16.699  -1.672  0.00  0.00     0.156 C 
ATOM     28  C   UNL d   1      23.139 -18.372  -0.498  0.00  0.00     0.041 C 
ENDBRANCH   1  21
BRANCH   5  29
ATOM     29  N   UNL d   1      25.948 -11.669  -3.721  0.00  0.00    -0.381 N 
ATOM     30  H   UNL d   1      26.521 -10.839  -3.741  0.00  0.00     0.157 HD
ATOM     31  H   UNL d   1      25.161 -11.750  -4.364  0.00  0.00     0.157 HD
ENDBRANCH   5  29
BRANCH   6  32
ATOM     32  N   UNL d   1      24.889 -14.390  -3.846  0.00  0.00    -0.108 N 
ATOM     33  O   UNL d   1      23.958 -13.702  -4.265  0.00  0.00    -0.532 OA
ATOM     34  O   UNL d   1      25.175 -15.493  -4.353  0.00  0.00    -0.532 OA
ENDBRANCH   6  32
TORSDOF 6
ENDMDL
MODEL 8
REMARK VINA RESULT:    -7.347      4.976      7.162
REMARK INTER + INTRA:         -10.828
REMARK INTER:                  -9.137
REMARK INTRA:                  -1.691
REMARK CONF_INDEPENDENT:        1.790
REMARK UNBOUND:                -1.691
REMARK  6 active torsions:
REMARK  status: ('A' for Active; 'I' for Inactive)
REMARK    1  A    between atoms: N_4  and  C_5 
REMARK    2  A    between atoms: C_7  and  N_8 
REMARK    3  A    between atoms: N_11  and  C_12 
REMARK    4  A    between atoms: C_12  and  C_13 
REMARK    5  A    between atoms: C_22  and  N_23 
REMARK    6  A    between atoms: C_24  and  N_25 
ROOT
ATOM      1  C   UNL d   1      28.134 -14.002  -3.409  0.00  0.00     0.182 A 
ATOM      2  N   UNL d   1      28.634 -13.712  -2.164  0.00  0.00    -0.042 NA
ATOM      3  C   UNL d   1      27.916 -14.048  -1.077  0.00  0.00     0.728 A 
ATOM      4  N   UNL d   1      26.719 -14.629  -1.151  0.00  0.00    -0.043 NA
ATOM      5  C   UNL d   1      26.197 -14.886  -2.368  0.00  0.00     0.177 A 
ATOM      6  C   UNL d   1      26.899 -14.631  -3.539  0.00  0.00     0.195 A 
ENDROOT
BRANCH   3   7
ATOM      7  N   UNL d   1      28.428 -13.823   0.176  0.00  0.00    -0.211 N 
ATOM      8  C   UNL d   1      27.531 -13.691   1.324  0.00  0.00     0.169 C 
ATOM      9  C   UNL d   1      27.961 -14.689   2.439  0.00  0.00     0.255 C 
ATOM     10  N   UNL d   1      29.444 -14.508   2.782  0.00  0.00    -0.064 N 
ATOM     11  C   UNL d   1      30.242 -14.787   1.495  0.00  0.00     0.255 C 
ATOM     12  H   UNL d   1      29.713 -15.228   3.465  0.00  0.00     0.280 HD
ATOM     13  C   UNL d   1      29.863 -13.754   0.408  0.00  0.00     0.169 C 
BRANCH  10  14
ATOM     14  C   UNL d   1      29.698 -13.171   3.462  0.00  0.00     0.273 C 
BRANCH  14  15
ATOM     15  C   UNL d   1      29.322 -13.105   4.913  0.00  0.00    -0.033 C 
ATOM     16  C   UNL d   1      29.393 -14.240   5.726  0.00  0.00     0.009 C 
ATOM     17  C   UNL d   1      28.917 -14.179   7.037  0.00  0.00     0.001 C 
ATOM     18  C   UNL d   1      28.499 -12.967   7.588  0.00  0.00     0.000 C 
ATOM     19  C   UNL d   1      28.453 -11.830   6.803  0.00  0.00     0.001 C 
ATOM     20  C   UNL d   1      28.779 -11.932   5.463  0.00  0.00     0.009 C 
ENDBRANCH  14  15
ENDBRANCH  10  14
ENDBRANCH   3   7
BRANCH   1  21
ATOM     21  N   UNL d   1      28.895 -13.581  -4.471  0.00  0.00    -0.358 N 
ATOM     22  C   UNL d   1      30.317 -13.926  -4.630  0.00  0.00     0.156 C 
ATOM     23  C   UNL d   1      30.514 -14.617  -5.995  0.00  0.00     0.136 C 
ATOM     24  C   UNL d   1      29.867 -16.001  -6.004  0.00  0.00     0.041 C 
ATOM     25  O   UNL d   1      30.006 -13.798  -7.075  0.00  0.00    -0.378 OA
ATOM     26  C   UNL d   1      28.615 -13.460  -6.901  0.00  0.00     0.136 C 
ATOM     27  C   UNL d   1      28.362 -12.757  -5.554  0.00  0.00     0.156 C 
ATOM     28  C   UNL d   1      28.163 -12.583  -8.059  0.00  0.00     0.041 C 
ENDBRANCH   1  21
BRANCH   5  29
ATOM     29  N   UNL d   1      24.895 -15.336  -2.325  0.00  0.00    -0.381 N 
ATOM     30  H   UNL d   1      24.402 -15.505  -3.189  0.00  0.00     0.157 HD
ATOM     31  H   UNL d   1      24.378 -15.331  -1.447  0.00  0.00     0.157 HD
ENDBRANCH   5  29
BRANCH   6  32
ATOM     32  N   UNL d   1      26.387 -15.112  -4.827  0.00  0.00    -0.108 N 
ATOM     33  O   UNL d   1      27.161 -15.575  -5.666  0.00  0.00    -0.532 OA
ATOM     34  O   UNL d   1      25.156 -15.067  -5.019  0.00  0.00    -0.532 OA
ENDBRANCH   6  32
TORSDOF 6
ENDMDL
MODEL 9
REMARK VINA RESULT:    -7.098      1.841      3.539
REMARK INTER + INTRA:         -10.754
REMARK INTER:                  -8.888
REMARK INTRA:                  -1.866
REMARK CONF_INDEPENDENT:        1.790
REMARK UNBOUND:                -1.866
REMARK  6 active torsions:
REMARK  status: ('A' for Active; 'I' for Inactive)
REMARK    1  A    between atoms: N_4  and  C_5 
REMARK    2  A    between atoms: C_7  and  N_8 
REMARK    3  A    between atoms: N_11  and  C_12 
REMARK    4  A    between atoms: C_12  and  C_13 
REMARK    5  A    between atoms: C_22  and  N_23 
REMARK    6  A    between atoms: C_24  and  N_25 
ROOT
ATOM      1  C   UNL d   1      27.894 -10.244   0.640  0.00  0.00     0.182 A 
ATOM      2  N   UNL d   1      27.749 -11.608   0.597  0.00  0.00    -0.042 NA
ATOM      3  C   UNL d   1      28.427 -12.309  -0.329  0.00  0.00     0.728 A 
ATOM      4  N   UNL d   1      29.219 -11.736  -1.236  0.00  0.00    -0.043 NA
ATOM      5  C   UNL d   1      29.341 -10.393  -1.231  0.00  0.00     0.177 A 
ATOM      6  C   UNL d   1      28.729  -9.599  -0.269  0.00  0.00     0.195 A 
ENDROOT
BRANCH   3   7
ATOM      7  N   UNL d   1      28.343 -13.679  -0.347  0.00  0.00    -0.211 N 
ATOM      8  C   UNL d   1      29.413 -14.474  -0.950  0.00  0.00     0.169 C 
ATOM      9  C   UNL d   1      29.914 -15.534   0.073  0.00  0.00     0.255 C 
ATOM     10  N   UNL d   1      28.742 -16.367   0.605  0.00  0.00    -0.064 N 
ATOM     11  C   UNL d   1      27.773 -15.391   1.297  0.00  0.00     0.255 C 
ATOM     12  H   UNL d   1      29.096 -17.005   1.329  0.00  0.00     0.280 HD
ATOM     13  C   UNL d   1      27.223 -14.378   0.266  0.00  0.00     0.169 C 
BRANCH  10  14
ATOM     14  C   UNL d   1      28.152 -17.254  -0.482  0.00  0.00     0.273 C 
BRANCH  14  15
ATOM     15  C   UNL d   1      26.653 -17.314  -0.519  0.00  0.00    -0.033 C 
ATOM     16  C   UNL d   1      25.944 -18.111   0.383  0.00  0.00     0.009 C 
ATOM     17  C   UNL d   1      24.561 -18.245   0.243  0.00  0.00     0.001 C 
ATOM     18  C   UNL d   1      23.862 -17.489  -0.698  0.00  0.00     0.000 C 
ATOM     19  C   UNL d   1      24.550 -16.673  -1.577  0.00  0.00     0.001 C 
ATOM     20  C   UNL d   1      25.932 -16.663  -1.534  0.00  0.00     0.009 C 
ENDBRANCH  14  15
ENDBRANCH  10  14
ENDBRANCH   3   7
BRANCH   1  21
ATOM     21  N   UNL d   1      27.130  -9.592   1.575  0.00  0.00    -0.358 N 
ATOM     22  C   UNL d   1      27.036 -10.021   2.979  0.00  0.00     0.156 C 
ATOM     23  C   UNL d   1      27.443  -8.844   3.890  0.00  0.00     0.136 C 
ATOM     24  C   UNL d   1      28.937  -8.550   3.766  0.00  0.00     0.041 C 
ATOM     25  O   UNL d   1      26.656  -7.663   3.604  0.00  0.00    -0.378 OA
ATOM     26  C   UNL d   1      26.750  -7.260   2.223  0.00  0.00     0.136 C 
ATOM     27  C   UNL d   1      26.344  -8.398   1.267  0.00  0.00     0.156 C 
ATOM     28  C   UNL d   1      25.881  -6.032   1.998  0.00  0.00     0.041 C 
ENDBRANCH   1  21
BRANCH   5  29
ATOM     29  N   UNL d   1      30.052  -9.901  -2.305  0.00  0.00    -0.381 N 
ATOM     30  H   UNL d   1      30.848 -10.416  -2.649  0.00  0.00     0.157 HD
ATOM     31  H   UNL d   1      29.890  -8.951  -2.636  0.00  0.00     0.157 HD
ENDBRANCH   5  29
BRANCH   6  32
ATOM     32  N   UNL d   1      29.052  -8.171  -0.173  0.00  0.00    -0.108 N 
ATOM     33  O   UNL d   1      29.289  -7.664   0.924  0.00  0.00    -0.532 OA
ATOM     34  O   UNL d   1      29.110  -7.514  -1.231  0.00  0.00    -0.532 OA
ENDBRANCH   6  32
TORSDOF 6
ENDMDL
