MODEL 1
REMARK VINA RESULT:   -10.776      0.000      0.000
REMARK INTER + INTRA:         -14.911
REMARK INTER:                 -13.460
REMARK INTRA:                  -1.450
REMARK CONF_INDEPENDENT:        2.685
REMARK UNBOUND:                -1.450
REMARK  9 active torsions:
REMARK  status: ('A' for Active; 'I' for Inactive)
REMARK    1  A    between atoms: O_2  and  C_3 
REMARK    2  A    between atoms: C_3  and  C_5 
REMARK    3  A    between atoms: C_8  and  N_9 
REMARK    4  A    between atoms: N_9  and  C_10 
REMARK    5  A    between atoms: C_10  and  C_11 
REMARK       I    between atoms: C_11  and  N_13 
REMARK    6  A    between atoms: N_13  and  C_14 
REMARK    7  A    between atoms: C_18  and  C_19 
REMARK       I    between atoms: C_19  and  N_21 
REMARK    8  A    between atoms: C_22  and  N_21 
REMARK    9  A    between atoms: C_22  and  C_24 
ROOT
ATOM      1  C   UNL d   1      26.392 -14.614  -0.769  0.00  0.00     0.035 C 
ATOM      2  C   UNL d   1      25.847 -14.288  -1.974  0.00  0.00     0.029 C 
ATOM      3  C   UNL d   1      25.010 -15.243  -2.645  0.00  0.00     0.003 C 
ATOM      4  C   UNL d   1      24.767 -16.561  -2.159  0.00  0.00     0.017 C 
ATOM      5  C   UNL d   1      25.172 -16.873  -0.879  0.00  0.00     0.034 C 
ATOM      6  C   UNL d   1      25.778 -15.731  -0.254  0.00  0.00     0.046 C 
ENDROOT
BRANCH   1   7
ATOM      7  N   UNL d   1      27.163 -13.812   0.161  0.00  0.00    -0.326 N 
ATOM      8  C   UNL d   1      28.040 -14.380   1.128  0.00  0.00     0.239 C 
ATOM      9  O   UNL d   1      28.439 -15.547   1.080  0.00  0.00    -0.271 OA
ATOM     10  H   UNL d   1      26.898 -12.840   0.252  0.00  0.00     0.169 HD
BRANCH   8  11
ATOM     11  C   UNL d   1      28.595 -13.437   2.240  0.00  0.00     0.223 C 
BRANCH  11  12
ATOM     12  N   UNL d   1      29.161 -14.186   3.390  0.00  0.00    -0.381 N 
ATOM     13  H   UNL d   1      29.592 -15.084   3.170  0.00  0.00     0.160 HD
BRANCH  12  14
ATOM     14  C   UNL d   1      28.982 -13.824   4.717  0.00  0.00     0.028 A 
ATOM     15  C   UNL d   1      29.758 -14.391   5.743  0.00  0.00     0.030 A 
ATOM     16  C   UNL d   1      29.533 -14.073   7.102  0.00  0.00     0.020 A 
ATOM     17  C   UNL d   1      28.582 -13.111   7.456  0.00  0.00     0.039 A 
ATOM     18  C   UNL d   1      27.837 -12.503   6.448  0.00  0.00     0.020 A 
ATOM     19  C   UNL d   1      28.045 -12.857   5.104  0.00  0.00     0.030 A 
BRANCH  17  20
ATOM     20  C   UNL d   1      28.503 -12.636   8.873  0.00  0.00     0.292 C 
ATOM     21  O   UNL d   1      29.012 -11.617   9.247  0.00  0.00    -0.259 OA
BRANCH  20  22
ATOM     22  O   UNL d   1      27.781 -13.509   9.644  0.00  0.00    -0.323 OA
ATOM     23  C   UNL d   1      27.803 -13.188  11.044  0.00  0.00     0.213 C 
ENDBRANCH  20  22
ENDBRANCH  17  20
ENDBRANCH  12  14
ENDBRANCH  11  12
ENDBRANCH   8  11
ENDBRANCH   1   7
BRANCH   5  24
ATOM     24  C   UNL d   1      24.863 -18.344  -0.291  0.00  0.00     0.252 C 
ATOM     25  O   UNL d   1      25.792 -18.951   0.256  0.00  0.00    -0.268 OA
ATOM     26  N   UNL d   1      23.608 -19.022  -0.253  0.00  0.00    -0.349 N 
ATOM     27  H   UNL d   1      23.645 -19.966   0.117  0.00  0.00     0.163 HD
BRANCH  26  28
ATOM     28  C   UNL d   1      22.316 -18.636  -0.819  0.00  0.00     0.114 C 
ATOM     29  C   UNL d   1      22.156 -17.232  -0.544  0.00  0.00     0.037 C 
BRANCH  28  30
ATOM     30  C   UNL d   1      21.049 -19.144  -0.271  0.00  0.00    -0.036 C 
ATOM     31  C   UNL d   1      19.967 -19.569  -1.092  0.00  0.00     0.009 C 
ATOM     32  C   UNL d   1      18.788 -19.956  -0.527  0.00  0.00     0.001 C 
ATOM     33  C   UNL d   1      18.741 -20.040   0.854  0.00  0.00     0.000 C 
ATOM     34  C   UNL d   1      19.856 -19.753   1.657  0.00  0.00     0.001 C 
ATOM     35  C   UNL d   1      21.029 -19.316   1.093  0.00  0.00     0.009 C 
ENDBRANCH  28  30
ENDBRANCH  26  28
ENDBRANCH   5  24
TORSDOF 9
ENDMDL
MODEL 2
REMARK VINA RESULT:   -10.152      6.065     10.290
REMARK INTER + INTRA:         -13.884
REMARK INTER:                 -12.837
REMARK INTRA:                  -1.047
REMARK CONF_INDEPENDENT:        2.685
REMARK UNBOUND:                -1.047
REMARK  9 active torsions:
REMARK  status: ('A' for Active; 'I' for Inactive)
REMARK    1  A    between atoms: O_2  and  C_3 
REMARK    2  A    between atoms: C_3  and  C_5 
REMARK    3  A    between atoms: C_8  and  N_9 
REMARK    4  A    between atoms: N_9  and  C_10 
REMARK    5  A    between atoms: C_10  and  C_11 
REMARK       I    between atoms: C_11  and  N_13 
REMARK    6  A    between atoms: N_13  and  C_14 
REMARK    7  A    between atoms: C_18  and  C_19 
REMARK       I    between atoms: C_19  and  N_21 
REMARK    8  A    between atoms: C_22  and  N_21 
REMARK    9  A    between atoms: C_22  and  C_24 
ROOT
ATOM      1  C   UNL d   1      27.171 -15.516  -3.233  0.00  0.00     0.035 C 
ATOM      2  C   UNL d   1      26.219 -14.578  -3.495  0.00  0.00     0.029 C 
ATOM      3  C   UNL d   1      24.957 -14.654  -2.814  0.00  0.00     0.003 C 
ATOM      4  C   UNL d   1      24.602 -15.707  -1.920  0.00  0.00     0.017 C 
ATOM      5  C   UNL d   1      25.586 -16.583  -1.515  0.00  0.00     0.034 C 
ATOM      6  C   UNL d   1      26.848 -16.222  -2.099  0.00  0.00     0.046 C 
ENDROOT
BRANCH   1   7
ATOM      7  N   UNL d   1      28.547 -15.609  -3.682  0.00  0.00    -0.326 N 
ATOM      8  C   UNL d   1      28.905 -15.723  -5.055  0.00  0.00     0.239 C 
ATOM      9  O   UNL d   1      28.131 -15.471  -5.982  0.00  0.00    -0.271 OA
ATOM     10  H   UNL d   1      29.244 -15.810  -2.977  0.00  0.00     0.169 HD
BRANCH   8  11
ATOM     11  C   UNL d   1      30.386 -16.090  -5.386  0.00  0.00     0.223 C 
BRANCH  11  12
ATOM     12  N   UNL d   1      30.529 -16.726  -6.720  0.00  0.00    -0.381 N 
ATOM     13  H   UNL d   1      30.253 -16.156  -7.519  0.00  0.00     0.160 HD
BRANCH  12  14
ATOM     14  C   UNL d   1      30.839 -18.064  -6.913  0.00  0.00     0.028 A 
ATOM     15  C   UNL d   1      31.104 -18.577  -8.195  0.00  0.00     0.030 A 
ATOM     16  C   UNL d   1      31.356 -19.953  -8.403  0.00  0.00     0.020 A 
ATOM     17  C   UNL d   1      31.433 -20.831  -7.317  0.00  0.00     0.039 A 
ATOM     18  C   UNL d   1      31.221 -20.330  -6.035  0.00  0.00     0.020 A 
ATOM     19  C   UNL d   1      30.935 -18.967  -5.847  0.00  0.00     0.030 A 
BRANCH  17  20
ATOM     20  C   UNL d   1      31.905 -22.235  -7.533  0.00  0.00     0.292 C 
ATOM     21  O   UNL d   1      32.157 -22.983  -6.631  0.00  0.00    -0.259 OA
BRANCH  20  22
ATOM     22  O   UNL d   1      31.993 -22.522  -8.870  0.00  0.00    -0.323 OA
ATOM     23  C   UNL d   1      32.841 -23.645  -9.158  0.00  0.00     0.213 C 
ENDBRANCH  20  22
ENDBRANCH  17  20
ENDBRANCH  12  14
ENDBRANCH  11  12
ENDBRANCH   8  11
ENDBRANCH   1   7
BRANCH   5  24
ATOM     24  C   UNL d   1      25.217 -17.752  -0.465  0.00  0.00     0.252 C 
ATOM     25  O   UNL d   1      26.131 -18.203   0.237  0.00  0.00    -0.268 OA
ATOM     26  N   UNL d   1      23.928 -18.294  -0.181  0.00  0.00    -0.349 N 
ATOM     27  H   UNL d   1      23.926 -19.062   0.483  0.00  0.00     0.163 HD
BRANCH  26  28
ATOM     28  C   UNL d   1      22.639 -18.032  -0.820  0.00  0.00     0.114 C 
ATOM     29  C   UNL d   1      22.307 -16.663  -0.520  0.00  0.00     0.037 C 
BRANCH  28  30
ATOM     30  C   UNL d   1      21.405 -18.692  -0.370  0.00  0.00    -0.036 C 
ATOM     31  C   UNL d   1      20.410 -19.169  -1.270  0.00  0.00     0.009 C 
ATOM     32  C   UNL d   1      19.250 -19.701  -0.792  0.00  0.00     0.001 C 
ATOM     33  C   UNL d   1      19.147 -19.875   0.578  0.00  0.00     0.000 C 
ATOM     34  C   UNL d   1      20.188 -19.531   1.454  0.00  0.00     0.001 C 
ATOM     35  C   UNL d   1      21.337 -18.950   0.980  0.00  0.00     0.009 C 
ENDBRANCH  28  30
ENDBRANCH  26  28
ENDBRANCH   5  24
TORSDOF 9
ENDMDL
MODEL 3
REMARK VINA RESULT:    -9.992      2.203     10.629
REMARK INTER + INTRA:         -13.839
REMARK INTER:                 -12.677
REMARK INTRA:                  -1.162
REMARK CONF_INDEPENDENT:        2.685
REMARK UNBOUND:                -1.162
REMARK  9 active torsions:
REMARK  status: ('A' for Active; 'I' for Inactive)
REMARK    1  A    between atoms: O_2  and  C_3 
REMARK    2  A    between atoms: C_3  and  C_5 
REMARK    3  A    between atoms: C_8  and  N_9 
REMARK    4  A    between atoms: N_9  and  C_10 
REMARK    5  A    between atoms: C_10  and  C_11 
REMARK       I    between atoms: C_11  and  N_13 
REMARK    6  A    between atoms: N_13  and  C_14 
REMARK    7  A    between atoms: C_18  and  C_19 
REMARK       I    between atoms: C_19  and  N_21 
REMARK    8  A    between atoms: C_22  and  N_21 
REMARK    9  A    between atoms: C_22  and  C_24 
ROOT
ATOM      1  C   UNL d   1      27.385 -13.740   2.367  0.00  0.00     0.035 C 
ATOM      2  C   UNL d   1      27.067 -12.432   2.578  0.00  0.00     0.029 C 
ATOM      3  C   UNL d   1      27.506 -11.791   3.786  0.00  0.00     0.003 C 
ATOM      4  C   UNL d   1      28.204 -12.466   4.831  0.00  0.00     0.017 C 
ATOM      5  C   UNL d   1      28.674 -13.739   4.590  0.00  0.00     0.034 C 
ATOM      6  C   UNL d   1      28.361 -14.142   3.247  0.00  0.00     0.046 C 
ENDROOT
BRANCH   1   7
ATOM      7  N   UNL d   1      27.174 -14.582   1.206  0.00  0.00    -0.326 N 
ATOM      8  C   UNL d   1      26.506 -14.129   0.034  0.00  0.00     0.239 C 
ATOM      9  O   UNL d   1      26.308 -12.937  -0.216  0.00  0.00    -0.271 OA
ATOM     10  H   UNL d   1      27.321 -15.576   1.331  0.00  0.00     0.169 HD
BRANCH   8  11
ATOM     11  C   UNL d   1      26.102 -15.200  -1.026  0.00  0.00     0.223 C 
BRANCH  11  12
ATOM     12  N   UNL d   1      25.865 -16.536  -0.422  0.00  0.00    -0.381 N 
ATOM     13  H   UNL d   1      26.686 -17.005  -0.039  0.00  0.00     0.160 HD
BRANCH  12  14
ATOM     14  C   UNL d   1      24.664 -17.226  -0.509  0.00  0.00     0.028 A 
ATOM     15  C   UNL d   1      24.601 -18.615  -0.300  0.00  0.00     0.030 A 
ATOM     16  C   UNL d   1      23.392 -19.331  -0.452  0.00  0.00     0.020 A 
ATOM     17  C   UNL d   1      22.199 -18.655  -0.731  0.00  0.00     0.039 A 
ATOM     18  C   UNL d   1      22.236 -17.273  -0.893  0.00  0.00     0.020 A 
ATOM     19  C   UNL d   1      23.452 -16.579  -0.777  0.00  0.00     0.030 A 
BRANCH  17  20
ATOM     20  C   UNL d   1      20.900 -19.397  -0.682  0.00  0.00     0.292 C 
ATOM     21  O   UNL d   1      20.277 -19.685  -1.665  0.00  0.00    -0.259 OA
BRANCH  20  22
ATOM     22  O   UNL d   1      20.550 -19.688   0.610  0.00  0.00    -0.323 OA
ATOM     23  C   UNL d   1      19.131 -19.701   0.830  0.00  0.00     0.213 C 
ENDBRANCH  20  22
ENDBRANCH  17  20
ENDBRANCH  12  14
ENDBRANCH  11  12
ENDBRANCH   8  11
ENDBRANCH   1   7
BRANCH   5  24
ATOM     24  C   UNL d   1      29.508 -14.501   5.742  0.00  0.00     0.252 C 
ATOM     25  O   UNL d   1      30.339 -15.346   5.386  0.00  0.00    -0.268 OA
ATOM     26  N   UNL d   1      29.464 -14.270   7.149  0.00  0.00    -0.349 N 
ATOM     27  H   UNL d   1      30.037 -14.899   7.703  0.00  0.00     0.163 HD
BRANCH  26  28
ATOM     28  C   UNL d   1      28.597 -13.385   7.927  0.00  0.00     0.114 C 
ATOM     29  C   UNL d   1      29.118 -12.053   7.757  0.00  0.00     0.037 C 
BRANCH  28  30
ATOM     30  C   UNL d   1      28.548 -13.447   9.396  0.00  0.00    -0.036 C 
ATOM     31  C   UNL d   1      28.381 -12.294  10.213  0.00  0.00     0.009 C 
ATOM     32  C   UNL d   1      28.422 -12.403  11.571  0.00  0.00     0.001 C 
ATOM     33  C   UNL d   1      28.497 -13.678  12.105  0.00  0.00     0.000 C 
ATOM     34  C   UNL d   1      28.520 -14.825  11.296  0.00  0.00     0.001 C 
ATOM     35  C   UNL d   1      28.529 -14.715   9.928  0.00  0.00     0.009 C 
ENDBRANCH  28  30
ENDBRANCH  26  28
ENDBRANCH   5  24
TORSDOF 9
ENDMDL
MODEL 4
REMARK VINA RESULT:    -9.697      2.341     10.584
REMARK INTER + INTRA:         -13.927
REMARK INTER:                 -12.382
REMARK INTRA:                  -1.545
REMARK CONF_INDEPENDENT:        2.685
REMARK UNBOUND:                -1.545
REMARK  9 active torsions:
REMARK  status: ('A' for Active; 'I' for Inactive)
REMARK    1  A    between atoms: O_2  and  C_3 
REMARK    2  A    between atoms: C_3  and  C_5 
REMARK    3  A    between atoms: C_8  and  N_9 
REMARK    4  A    between atoms: N_9  and  C_10 
REMARK    5  A    between atoms: C_10  and  C_11 
REMARK       I    between atoms: C_11  and  N_13 
REMARK    6  A    between atoms: N_13  and  C_14 
REMARK    7  A    between atoms: C_18  and  C_19 
REMARK       I    between atoms: C_19  and  N_21 
REMARK    8  A    between atoms: C_22  and  N_21 
REMARK    9  A    between atoms: C_22  and  C_24 
ROOT
ATOM      1  C   UNL d   1      29.535 -14.531   1.875  0.00  0.00     0.035 C 
ATOM      2  C   UNL d   1      30.875 -14.287   1.907  0.00  0.00     0.029 C 
ATOM      3  C   UNL d   1      31.390 -13.333   2.848  0.00  0.00     0.003 C 
ATOM      4  C   UNL d   1      30.568 -12.556   3.717  0.00  0.00     0.017 C 
ATOM      5  C   UNL d   1      29.233 -12.882   3.822  0.00  0.00     0.034 C 
ATOM      6  C   UNL d   1      28.929 -14.017   2.997  0.00  0.00     0.046 C 
ENDROOT
BRANCH   1   7
ATOM      7  N   UNL d   1      28.776 -15.510   1.121  0.00  0.00    -0.326 N 
ATOM      8  C   UNL d   1      27.456 -15.266   0.647  0.00  0.00     0.239 C 
ATOM      9  O   UNL d   1      26.957 -14.140   0.580  0.00  0.00    -0.271 OA
ATOM     10  H   UNL d   1      29.127 -16.460   1.124  0.00  0.00     0.169 HD
BRANCH   8  11
ATOM     11  C   UNL d   1      26.652 -16.484   0.095  0.00  0.00     0.223 C 
BRANCH  11  12
ATOM     12  N   UNL d   1      25.445 -16.070  -0.665  0.00  0.00    -0.381 N 
ATOM     13  H   UNL d   1      25.456 -15.122  -1.040  0.00  0.00     0.160 HD
BRANCH  12  14
ATOM     14  C   UNL d   1      24.277 -16.816  -0.733  0.00  0.00     0.028 A 
ATOM     15  C   UNL d   1      23.023 -16.200  -0.891  0.00  0.00     0.030 A 
ATOM     16  C   UNL d   1      21.826 -16.952  -0.896  0.00  0.00     0.020 A 
ATOM     17  C   UNL d   1      21.866 -18.349  -0.830  0.00  0.00     0.039 A 
ATOM     18  C   UNL d   1      23.104 -18.978  -0.723  0.00  0.00     0.020 A 
ATOM     19  C   UNL d   1      24.283 -18.215  -0.681  0.00  0.00     0.030 A 
BRANCH  17  20
ATOM     20  C   UNL d   1      20.612 -19.136  -1.046  0.00  0.00     0.292 C 
ATOM     21  O   UNL d   1      20.413 -19.785  -2.035  0.00  0.00    -0.259 OA
BRANCH  20  22
ATOM     22  O   UNL d   1      19.762 -19.009   0.021  0.00  0.00    -0.323 OA
ATOM     23  C   UNL d   1      20.263 -19.609   1.225  0.00  0.00     0.213 C 
ENDBRANCH  20  22
ENDBRANCH  17  20
ENDBRANCH  12  14
ENDBRANCH  11  12
ENDBRANCH   8  11
ENDBRANCH   1   7
BRANCH   5  24
ATOM     24  C   UNL d   1      28.296 -12.047   4.837  0.00  0.00     0.252 C 
ATOM     25  O   UNL d   1      27.398 -11.350   4.348  0.00  0.00    -0.268 OA
ATOM     26  N   UNL d   1      28.321 -12.066   6.263  0.00  0.00    -0.349 N 
ATOM     27  H   UNL d   1      27.675 -11.424   6.710  0.00  0.00     0.163 HD
BRANCH  26  28
ATOM     28  C   UNL d   1      29.246 -12.738   7.176  0.00  0.00     0.114 C 
ATOM     29  C   UNL d   1      29.478 -14.049   6.627  0.00  0.00     0.037 C 
BRANCH  28  30
ATOM     30  C   UNL d   1      28.851 -13.107   8.544  0.00  0.00    -0.036 C 
ATOM     31  C   UNL d   1      28.303 -12.173   9.468  0.00  0.00     0.009 C 
ATOM     32  C   UNL d   1      28.030 -12.555  10.748  0.00  0.00     0.001 C 
ATOM     33  C   UNL d   1      28.181 -13.896  11.058  0.00  0.00     0.000 C 
ATOM     34  C   UNL d   1      28.589 -14.841  10.104  0.00  0.00     0.001 C 
ATOM     35  C   UNL d   1      28.912 -14.451   8.829  0.00  0.00     0.009 C 
ENDBRANCH  28  30
ENDBRANCH  26  28
ENDBRANCH   5  24
TORSDOF 9
ENDMDL
MODEL 5
REMARK VINA RESULT:    -9.592      2.715     10.017
REMARK INTER + INTRA:         -14.594
REMARK INTER:                 -12.277
REMARK INTRA:                  -2.317
REMARK CONF_INDEPENDENT:        2.685
REMARK UNBOUND:                -2.317
REMARK  9 active torsions:
REMARK  status: ('A' for Active; 'I' for Inactive)
REMARK    1  A    between atoms: O_2  and  C_3 
REMARK    2  A    between atoms: C_3  and  C_5 
REMARK    3  A    between atoms: C_8  and  N_9 
REMARK    4  A    between atoms: N_9  and  C_10 
REMARK    5  A    between atoms: C_10  and  C_11 
REMARK       I    between atoms: C_11  and  N_13 
REMARK    6  A    between atoms: N_13  and  C_14 
REMARK    7  A    between atoms: C_18  and  C_19 
REMARK       I    between atoms: C_19  and  N_21 
REMARK    8  A    between atoms: C_22  and  N_21 
REMARK    9  A    between atoms: C_22  and  C_24 
ROOT
ATOM      1  C   UNL d   1      29.198 -13.738   1.584  0.00  0.00     0.035 C 
ATOM      2  C   UNL d   1      30.482 -13.319   1.408  0.00  0.00     0.029 C 
ATOM      3  C   UNL d   1      30.867 -12.022   1.889  0.00  0.00     0.003 C 
ATOM      4  C   UNL d   1      29.958 -11.098   2.484  0.00  0.00     0.017 C 
ATOM      5  C   UNL d   1      28.696 -11.540   2.816  0.00  0.00     0.034 C 
ATOM      6  C   UNL d   1      28.552 -12.931   2.490  0.00  0.00     0.046 C 
ENDROOT
BRANCH   1   7
ATOM      7  N   UNL d   1      28.582 -15.021   1.306  0.00  0.00    -0.326 N 
ATOM      8  C   UNL d   1      27.432 -15.163   0.479  0.00  0.00     0.239 C 
ATOM      9  O   UNL d   1      27.036 -14.283  -0.289  0.00  0.00    -0.271 OA
ATOM     10  H   UNL d   1      28.860 -15.797   1.893  0.00  0.00     0.169 HD
BRANCH   8  11
ATOM     11  C   UNL d   1      26.709 -16.546   0.481  0.00  0.00     0.223 C 
BRANCH  11  12
ATOM     12  N   UNL d   1      25.866 -16.748  -0.724  0.00  0.00    -0.381 N 
ATOM     13  H   UNL d   1      26.202 -16.312  -1.583  0.00  0.00     0.160 HD
BRANCH  12  14
ATOM     14  C   UNL d   1      24.605 -17.327  -0.703  0.00  0.00     0.028 A 
ATOM     15  C   UNL d   1      23.444 -16.558  -0.896  0.00  0.00     0.030 A 
ATOM     16  C   UNL d   1      22.155 -17.132  -0.810  0.00  0.00     0.020 A 
ATOM     17  C   UNL d   1      22.005 -18.509  -0.614  0.00  0.00     0.039 A 
ATOM     18  C   UNL d   1      23.146 -19.293  -0.469  0.00  0.00     0.020 A 
ATOM     19  C   UNL d   1      24.421 -18.703  -0.520  0.00  0.00     0.030 A 
BRANCH  17  20
ATOM     20  C   UNL d   1      20.648 -19.130  -0.734  0.00  0.00     0.292 C 
ATOM     21  O   UNL d   1      20.280 -19.705  -1.719  0.00  0.00    -0.259 OA
BRANCH  20  22
ATOM     22  O   UNL d   1      19.923 -18.950   0.414  0.00  0.00    -0.323 OA
ATOM     23  C   UNL d   1      19.911 -20.103   1.270  0.00  0.00     0.213 C 
ENDBRANCH  20  22
ENDBRANCH  17  20
ENDBRANCH  12  14
ENDBRANCH  11  12
ENDBRANCH   8  11
ENDBRANCH   1   7
BRANCH   5  24
ATOM     24  C   UNL d   1      27.669 -10.523   3.535  0.00  0.00     0.252 C 
ATOM     25  O   UNL d   1      27.072  -9.708   2.820  0.00  0.00    -0.268 OA
ATOM     26  N   UNL d   1      27.295 -10.489   4.911  0.00  0.00    -0.349 N 
ATOM     27  H   UNL d   1      26.668  -9.733   5.165  0.00  0.00     0.163 HD
BRANCH  26  28
ATOM     28  C   UNL d   1      27.805 -11.266   6.041  0.00  0.00     0.114 C 
ATOM     29  C   UNL d   1      29.019 -10.618   6.465  0.00  0.00     0.037 C 
BRANCH  28  30
ATOM     30  C   UNL d   1      28.301 -12.640   5.873  0.00  0.00    -0.036 C 
ATOM     31  C   UNL d   1      29.560 -13.075   6.377  0.00  0.00     0.009 C 
ATOM     32  C   UNL d   1      30.002 -14.338   6.122  0.00  0.00     0.001 C 
ATOM     33  C   UNL d   1      29.130 -15.200   5.478  0.00  0.00     0.000 C 
ATOM     34  C   UNL d   1      27.835 -14.809   5.106  0.00  0.00     0.001 C 
ATOM     35  C   UNL d   1      27.405 -13.523   5.317  0.00  0.00     0.009 C 
ENDBRANCH  28  30
ENDBRANCH  26  28
ENDBRANCH   5  24
TORSDOF 9
ENDMDL
MODEL 6
REMARK VINA RESULT:    -9.422      2.352     10.547
REMARK INTER + INTRA:         -13.922
REMARK INTER:                 -12.107
REMARK INTRA:                  -1.815
REMARK CONF_INDEPENDENT:        2.685
REMARK UNBOUND:                -1.815
REMARK  9 active torsions:
REMARK  status: ('A' for Active; 'I' for Inactive)
REMARK    1  A    between atoms: O_2  and  C_3 
REMARK    2  A    between atoms: C_3  and  C_5 
REMARK    3  A    between atoms: C_8  and  N_9 
REMARK    4  A    between atoms: N_9  and  C_10 
REMARK    5  A    between atoms: C_10  and  C_11 
REMARK       I    between atoms: C_11  and  N_13 
REMARK    6  A    between atoms: N_13  and  C_14 
REMARK    7  A    between atoms: C_18  and  C_19 
REMARK       I    between atoms: C_19  and  N_21 
REMARK    8  A    between atoms: C_22  and  N_21 
REMARK    9  A    between atoms: C_22  and  C_24 
ROOT
ATOM      1  C   UNL d   1      28.438 -14.430   3.504  0.00  0.00     0.035 C 
ATOM      2  C   UNL d   1      28.163 -15.194   4.598  0.00  0.00     0.029 C 
ATOM      3  C   UNL d   1      27.797 -14.548   5.828  0.00  0.00     0.003 C 
ATOM      4  C   UNL d   1      27.772 -13.132   6.001  0.00  0.00     0.017 C 
ATOM      5  C   UNL d   1      27.893 -12.333   4.885  0.00  0.00     0.034 C 
ATOM      6  C   UNL d   1      28.009 -13.139   3.702  0.00  0.00     0.046 C 
ENDROOT
BRANCH   1   7
ATOM      7  N   UNL d   1      28.714 -14.817   2.134  0.00  0.00    -0.326 N 
ATOM      8  C   UNL d   1      27.729 -14.779   1.107  0.00  0.00     0.239 C 
ATOM      9  O   UNL d   1      26.666 -14.161   1.210  0.00  0.00    -0.271 OA
ATOM     10  H   UNL d   1      29.574 -15.325   1.969  0.00  0.00     0.169 HD
BRANCH   8  11
ATOM     11  C   UNL d   1      28.072 -15.475  -0.247  0.00  0.00     0.223 C 
BRANCH  11  12
ATOM     12  N   UNL d   1      27.495 -16.839  -0.347  0.00  0.00    -0.381 N 
ATOM     13  H   UNL d   1      28.163 -17.598  -0.483  0.00  0.00     0.160 HD
BRANCH  12  14
ATOM     14  C   UNL d   1      26.136 -17.103  -0.440  0.00  0.00     0.028 A 
ATOM     15  C   UNL d   1      25.289 -16.310  -1.234  0.00  0.00     0.030 A 
ATOM     16  C   UNL d   1      23.894 -16.536  -1.281  0.00  0.00     0.020 A 
ATOM     17  C   UNL d   1      23.330 -17.619  -0.598  0.00  0.00     0.039 A 
ATOM     18  C   UNL d   1      24.162 -18.444   0.155  0.00  0.00     0.020 A 
ATOM     19  C   UNL d   1      25.542 -18.184   0.222  0.00  0.00     0.030 A 
BRANCH  17  20
ATOM     20  C   UNL d   1      21.892 -17.967  -0.824  0.00  0.00     0.292 C 
ATOM     21  O   UNL d   1      21.030 -17.140  -0.928  0.00  0.00    -0.259 OA
BRANCH  20  22
ATOM     22  O   UNL d   1      21.721 -19.324  -0.897  0.00  0.00    -0.323 OA
ATOM     23  C   UNL d   1      20.962 -19.865   0.195  0.00  0.00     0.213 C 
ENDBRANCH  20  22
ENDBRANCH  17  20
ENDBRANCH  12  14
ENDBRANCH  11  12
ENDBRANCH   8  11
ENDBRANCH   1   7
BRANCH   5  24
ATOM     24  C   UNL d   1      27.818 -10.729   5.054  0.00  0.00     0.252 C 
ATOM     25  O   UNL d   1      27.005 -10.116   4.350  0.00  0.00    -0.268 OA
ATOM     26  N   UNL d   1      28.531  -9.915   5.984  0.00  0.00    -0.349 N 
ATOM     27  H   UNL d   1      28.372  -8.918   5.886  0.00  0.00     0.163 HD
BRANCH  26  28
ATOM     28  C   UNL d   1      29.579 -10.279   6.936  0.00  0.00     0.114 C 
ATOM     29  C   UNL d   1      30.746 -10.596   6.154  0.00  0.00     0.037 C 
BRANCH  28  30
ATOM     30  C   UNL d   1      29.490 -11.496   7.757  0.00  0.00    -0.036 C 
ATOM     31  C   UNL d   1      30.390 -12.590   7.617  0.00  0.00     0.009 C 
ATOM     32  C   UNL d   1      30.210 -13.725   8.350  0.00  0.00     0.001 C 
ATOM     33  C   UNL d   1      29.213 -13.711   9.311  0.00  0.00     0.000 C 
ATOM     34  C   UNL d   1      28.417 -12.578   9.542  0.00  0.00     0.001 C 
ATOM     35  C   UNL d   1      28.563 -11.452   8.772  0.00  0.00     0.009 C 
ENDBRANCH  28  30
ENDBRANCH  26  28
ENDBRANCH   5  24
TORSDOF 9
ENDMDL
MODEL 7
REMARK VINA RESULT:    -8.338      5.474      9.111
REMARK INTER + INTRA:         -13.630
REMARK INTER:                 -11.023
REMARK INTRA:                  -2.607
REMARK CONF_INDEPENDENT:        2.685
REMARK UNBOUND:                -2.607
REMARK  9 active torsions:
REMARK  status: ('A' for Active; 'I' for Inactive)
REMARK    1  A    between atoms: O_2  and  C_3 
REMARK    2  A    between atoms: C_3  and  C_5 
REMARK    3  A    between atoms: C_8  and  N_9 
REMARK    4  A    between atoms: N_9  and  C_10 
REMARK    5  A    between atoms: C_10  and  C_11 
REMARK       I    between atoms: C_11  and  N_13 
REMARK    6  A    between atoms: N_13  and  C_14 
REMARK    7  A    between atoms: C_18  and  C_19 
REMARK       I    between atoms: C_19  and  N_21 
REMARK    8  A    between atoms: C_22  and  N_21 
REMARK    9  A    between atoms: C_22  and  C_24 
ROOT
ATOM      1  C   UNL d   1      28.855 -16.123  -3.391  0.00  0.00     0.035 C 
ATOM      2  C   UNL d   1      29.713 -16.946  -4.056  0.00  0.00     0.029 C 
ATOM      3  C   UNL d   1      30.512 -16.410  -5.122  0.00  0.00     0.003 C 
ATOM      4  C   UNL d   1      30.411 -15.066  -5.587  0.00  0.00     0.017 C 
ATOM      5  C   UNL d   1      29.672 -14.169  -4.847  0.00  0.00     0.034 C 
ATOM      6  C   UNL d   1      29.136 -14.808  -3.677  0.00  0.00     0.046 C 
ENDROOT
BRANCH   1   7
ATOM      7  N   UNL d   1      28.033 -16.369  -2.222  0.00  0.00    -0.326 N 
ATOM      8  C   UNL d   1      28.550 -16.921  -1.016  0.00  0.00     0.239 C 
ATOM      9  O   UNL d   1      29.755 -16.970  -0.754  0.00  0.00    -0.271 OA
ATOM     10  H   UNL d   1      27.030 -16.342  -2.357  0.00  0.00     0.169 HD
BRANCH   8  11
ATOM     11  C   UNL d   1      27.523 -17.390   0.061  0.00  0.00     0.223 C 
BRANCH  11  12
ATOM     12  N   UNL d   1      26.253 -16.622   0.007  0.00  0.00    -0.381 N 
ATOM     13  H   UNL d   1      26.305 -15.650   0.309  0.00  0.00     0.160 HD
BRANCH  12  14
ATOM     14  C   UNL d   1      25.013 -17.188  -0.253  0.00  0.00     0.028 A 
ATOM     15  C   UNL d   1      24.804 -18.574  -0.145  0.00  0.00     0.030 A 
ATOM     16  C   UNL d   1      23.560 -19.162  -0.472  0.00  0.00     0.020 A 
ATOM     17  C   UNL d   1      22.471 -18.360  -0.831  0.00  0.00     0.039 A 
ATOM     18  C   UNL d   1      22.648 -16.981  -0.895  0.00  0.00     0.020 A 
ATOM     19  C   UNL d   1      23.901 -16.414  -0.604  0.00  0.00     0.030 A 
BRANCH  17  20
ATOM     20  C   UNL d   1      21.114 -18.976  -0.969  0.00  0.00     0.292 C 
ATOM     21  O   UNL d   1      20.684 -19.376  -2.015  0.00  0.00    -0.259 OA
BRANCH  20  22
ATOM     22  O   UNL d   1      20.468 -19.016   0.238  0.00  0.00    -0.323 OA
ATOM     23  C   UNL d   1      19.208 -19.704   0.191  0.00  0.00     0.213 C 
ENDBRANCH  20  22
ENDBRANCH  17  20
ENDBRANCH  12  14
ENDBRANCH  11  12
ENDBRANCH   8  11
ENDBRANCH   1   7
BRANCH   5  24
ATOM     24  C   UNL d   1      29.585 -12.632  -5.329  0.00  0.00     0.252 C 
ATOM     25  O   UNL d   1      30.629 -11.967  -5.319  0.00  0.00    -0.268 OA
ATOM     26  N   UNL d   1      28.449 -11.943  -5.850  0.00  0.00    -0.349 N 
ATOM     27  H   UNL d   1      28.600 -10.959  -6.048  0.00  0.00     0.163 HD
BRANCH  26  28
ATOM     28  C   UNL d   1      27.062 -12.389  -5.982  0.00  0.00     0.114 C 
ATOM     29  C   UNL d   1      26.241 -11.224  -5.780  0.00  0.00     0.037 C 
BRANCH  28  30
ATOM     30  C   UNL d   1      26.447 -13.301  -5.006  0.00  0.00    -0.036 C 
ATOM     31  C   UNL d   1      25.779 -12.843  -3.835  0.00  0.00     0.009 C 
ATOM     32  C   UNL d   1      25.297 -13.737  -2.926  0.00  0.00     0.001 C 
ATOM     33  C   UNL d   1      25.370 -15.080  -3.255  0.00  0.00     0.000 C 
ATOM     34  C   UNL d   1      25.905 -15.522  -4.475  0.00  0.00     0.001 C 
ATOM     35  C   UNL d   1      26.435 -14.627  -5.370  0.00  0.00     0.009 C 
ENDBRANCH  28  30
ENDBRANCH  26  28
ENDBRANCH   5  24
TORSDOF 9
ENDMDL
MODEL 8
REMARK VINA RESULT:    -8.055      5.474      9.237
REMARK INTER + INTRA:         -13.580
REMARK INTER:                 -10.740
REMARK INTRA:                  -2.840
REMARK CONF_INDEPENDENT:        2.685
REMARK UNBOUND:                -2.840
REMARK  9 active torsions:
REMARK  status: ('A' for Active; 'I' for Inactive)
REMARK    1  A    between atoms: O_2  and  C_3 
REMARK    2  A    between atoms: C_3  and  C_5 
REMARK    3  A    between atoms: C_8  and  N_9 
REMARK    4  A    between atoms: N_9  and  C_10 
REMARK    5  A    between atoms: C_10  and  C_11 
REMARK       I    between atoms: C_11  and  N_13 
REMARK    6  A    between atoms: N_13  and  C_14 
REMARK    7  A    between atoms: C_18  and  C_19 
REMARK       I    between atoms: C_19  and  N_21 
REMARK    8  A    between atoms: C_22  and  N_21 
REMARK    9  A    between atoms: C_22  and  C_24 
ROOT
ATOM      1  C   UNL d   1      30.483 -14.468  -2.558  0.00  0.00     0.035 C 
ATOM      2  C   UNL d   1      31.781 -14.078  -2.421  0.00  0.00     0.029 C 
ATOM      3  C   UNL d   1      32.601 -13.951  -3.593  0.00  0.00     0.003 C 
ATOM      4  C   UNL d   1      32.157 -14.282  -4.908  0.00  0.00     0.017 C 
ATOM      5  C   UNL d   1      30.816 -14.530  -5.105  0.00  0.00     0.034 C 
ATOM      6  C   UNL d   1      30.094 -14.379  -3.873  0.00  0.00     0.046 C 
ENDROOT
BRANCH   1   7
ATOM      7  N   UNL d   1      29.422 -14.563  -1.574  0.00  0.00    -0.326 N 
ATOM      8  C   UNL d   1      28.671 -15.753  -1.360  0.00  0.00     0.239 C 
ATOM      9  O   UNL d   1      29.027 -16.862  -1.766  0.00  0.00    -0.271 OA
ATOM     10  H   UNL d   1      29.079 -13.692  -1.189  0.00  0.00     0.169 HD
BRANCH   8  11
ATOM     11  C   UNL d   1      27.388 -15.647  -0.478  0.00  0.00     0.223 C 
BRANCH  11  12
ATOM     12  N   UNL d   1      26.805 -16.975  -0.161  0.00  0.00    -0.381 N 
ATOM     13  H   UNL d   1      27.472 -17.714   0.063  0.00  0.00     0.160 HD
BRANCH  12  14
ATOM     14  C   UNL d   1      25.464 -17.294  -0.323  0.00  0.00     0.028 A 
ATOM     15  C   UNL d   1      24.522 -16.323  -0.703  0.00  0.00     0.030 A 
ATOM     16  C   UNL d   1      23.145 -16.629  -0.805  0.00  0.00     0.020 A 
ATOM     17  C   UNL d   1      22.695 -17.939  -0.612  0.00  0.00     0.039 A 
ATOM     18  C   UNL d   1      23.623 -18.923  -0.282  0.00  0.00     0.020 A 
ATOM     19  C   UNL d   1      24.983 -18.597  -0.147  0.00  0.00     0.030 A 
BRANCH  17  20
ATOM     20  C   UNL d   1      21.274 -18.287  -0.927  0.00  0.00     0.292 C 
ATOM     21  O   UNL d   1      20.465 -17.471  -1.270  0.00  0.00    -0.259 OA
BRANCH  20  22
ATOM     22  O   UNL d   1      21.052 -19.630  -0.775  0.00  0.00    -0.323 OA
ATOM     23  C   UNL d   1      19.856 -19.933  -0.040  0.00  0.00     0.213 C 
ENDBRANCH  20  22
ENDBRANCH  17  20
ENDBRANCH  12  14
ENDBRANCH  11  12
ENDBRANCH   8  11
ENDBRANCH   1   7
BRANCH   5  24
ATOM     24  C   UNL d   1      30.287 -14.858  -6.594  0.00  0.00     0.252 C 
ATOM     25  O   UNL d   1      30.987 -15.591  -7.304  0.00  0.00    -0.268 OA
ATOM     26  N   UNL d   1      29.050 -14.464  -7.186  0.00  0.00    -0.349 N 
ATOM     27  H   UNL d   1      28.937 -14.737  -8.157  0.00  0.00     0.163 HD
BRANCH  26  28
ATOM     28  C   UNL d   1      28.000 -13.587  -6.670  0.00  0.00     0.114 C 
ATOM     29  C   UNL d   1      28.660 -12.392  -6.209  0.00  0.00     0.037 C 
BRANCH  28  30
ATOM     30  C   UNL d   1      27.232 -13.928  -5.463  0.00  0.00    -0.036 C 
ATOM     31  C   UNL d   1      26.622 -15.200  -5.269  0.00  0.00     0.009 C 
ATOM     32  C   UNL d   1      25.856 -15.432  -4.167  0.00  0.00     0.001 C 
ATOM     33  C   UNL d   1      25.810 -14.440  -3.202  0.00  0.00     0.000 C 
ATOM     34  C   UNL d   1      26.527 -13.240  -3.333  0.00  0.00     0.001 C 
ATOM     35  C   UNL d   1      27.259 -12.983  -4.464  0.00  0.00     0.009 C 
ENDBRANCH  28  30
ENDBRANCH  26  28
ENDBRANCH   5  24
TORSDOF 9
ENDMDL
MODEL 9
REMARK VINA RESULT:    -8.041      4.916      9.639
REMARK INTER + INTRA:         -13.610
REMARK INTER:                 -10.726
REMARK INTRA:                  -2.884
REMARK CONF_INDEPENDENT:        2.685
REMARK UNBOUND:                -2.884
REMARK  9 active torsions:
REMARK  status: ('A' for Active; 'I' for Inactive)
REMARK    1  A    between atoms: O_2  and  C_3 
REMARK    2  A    between atoms: C_3  and  C_5 
REMARK    3  A    between atoms: C_8  and  N_9 
REMARK    4  A    between atoms: N_9  and  C_10 
REMARK    5  A    between atoms: C_10  and  C_11 
REMARK       I    between atoms: C_11  and  N_13 
REMARK    6  A    between atoms: N_13  and  C_14 
REMARK    7  A    between atoms: C_18  and  C_19 
REMARK       I    between atoms: C_19  and  N_21 
REMARK    8  A    between atoms: C_22  and  N_21 
REMARK    9  A    between atoms: C_22  and  C_24 
ROOT
ATOM      1  C   UNL d   1      24.420 -15.866  -1.728  0.00  0.00     0.035 C 
ATOM      2  C   UNL d   1      23.281 -16.456  -1.270  0.00  0.00     0.029 C 
ATOM      3  C   UNL d   1      23.384 -17.593  -0.398  0.00  0.00     0.003 C 
ATOM      4  C   UNL d   1      24.621 -18.200  -0.034  0.00  0.00     0.017 C 
ATOM      5  C   UNL d   1      25.792 -17.545  -0.350  0.00  0.00     0.034 C 
ATOM      6  C   UNL d   1      25.507 -16.301  -1.008  0.00  0.00     0.046 C 
ENDROOT
BRANCH   1   7
ATOM      7  N   UNL d   1      24.603 -14.658  -2.510  0.00  0.00    -0.326 N 
ATOM      8  C   UNL d   1      25.276 -14.645  -3.764  0.00  0.00     0.239 C 
ATOM      9  O   UNL d   1      25.504 -15.663  -4.423  0.00  0.00    -0.271 OA
ATOM     10  H   UNL d   1      24.430 -13.780  -2.039  0.00  0.00     0.169 HD
BRANCH   8  11
ATOM     11  C   UNL d   1      25.647 -13.255  -4.369  0.00  0.00     0.223 C 
BRANCH  11  12
ATOM     12  N   UNL d   1      27.110 -13.090  -4.559  0.00  0.00    -0.381 N 
ATOM     13  H   UNL d   1      27.466 -12.137  -4.481  0.00  0.00     0.160 HD
BRANCH  12  14
ATOM     14  C   UNL d   1      27.955 -14.099  -4.996  0.00  0.00     0.028 A 
ATOM     15  C   UNL d   1      28.383 -15.122  -4.132  0.00  0.00     0.030 A 
ATOM     16  C   UNL d   1      29.295 -16.115  -4.557  0.00  0.00     0.020 A 
ATOM     17  C   UNL d   1      29.732 -16.154  -5.885  0.00  0.00     0.039 A 
ATOM     18  C   UNL d   1      29.280 -15.175  -6.767  0.00  0.00     0.020 A 
ATOM     19  C   UNL d   1      28.403 -14.172  -6.321  0.00  0.00     0.030 A 
BRANCH  17  20
ATOM     20  C   UNL d   1      30.528 -17.326  -6.368  0.00  0.00     0.292 C 
ATOM     21  O   UNL d   1      30.781 -17.508  -7.526  0.00  0.00    -0.259 OA
BRANCH  20  22
ATOM     22  O   UNL d   1      30.913 -18.122  -5.322  0.00  0.00    -0.323 OA
ATOM     23  C   UNL d   1      30.406 -19.463  -5.408  0.00  0.00     0.213 C 
ENDBRANCH  20  22
ENDBRANCH  17  20
ENDBRANCH  12  14
ENDBRANCH  11  12
ENDBRANCH   8  11
ENDBRANCH   1   7
BRANCH   5  24
ATOM     24  C   UNL d   1      27.202 -18.192   0.097  0.00  0.00     0.252 C 
ATOM     25  O   UNL d   1      27.180 -19.320   0.605  0.00  0.00    -0.268 OA
ATOM     26  N   UNL d   1      28.508 -17.650  -0.090  0.00  0.00    -0.349 N 
ATOM     27  H   UNL d   1      29.260 -18.200   0.313  0.00  0.00     0.163 HD
BRANCH  26  28
ATOM     28  C   UNL d   1      28.917 -16.349  -0.619  0.00  0.00     0.114 C 
ATOM     29  C   UNL d   1      30.243 -16.104  -0.114  0.00  0.00     0.037 C 
BRANCH  28  30
ATOM     30  C   UNL d   1      28.257 -15.103  -0.201  0.00  0.00    -0.036 C 
ATOM     31  C   UNL d   1      27.843 -14.859   1.139  0.00  0.00     0.009 C 
ATOM     32  C   UNL d   1      27.165 -13.719   1.451  0.00  0.00     0.001 C 
ATOM     33  C   UNL d   1      27.020 -12.771   0.452  0.00  0.00     0.000 C 
ATOM     34  C   UNL d   1      27.552 -12.955  -0.834  0.00  0.00     0.001 C 
ATOM     35  C   UNL d   1      28.192 -14.123  -1.164  0.00  0.00     0.009 C 
ENDBRANCH  28  30
ENDBRANCH  26  28
ENDBRANCH   5  24
TORSDOF 9
ENDMDL
