MODEL 1
REMARK VINA RESULT:   -10.115      0.000      0.000
REMARK INTER + INTRA:         -15.935
REMARK INTER:                 -13.694
REMARK INTRA:                  -2.241
REMARK CONF_INDEPENDENT:        3.580
REMARK UNBOUND:                -2.241
REMARK  12 active torsions:
REMARK  status: ('A' for Active; 'I' for Inactive)
REMARK    1  A    between atoms: O_2  and  C_3 
REMARK    2  A    between atoms: C_8  and  O_9 
REMARK    3  A    between atoms: O_9  and  C_10 
REMARK    4  A    between atoms: C_10  and  C_11 
REMARK       I    between atoms: C_11  and  N_13 
REMARK    5  A    between atoms: N_13  and  N_14 
REMARK    6  A    between atoms: N_14  and  C_15 
REMARK    7  A    between atoms: C_15  and  N_17 
REMARK       I    between atoms: N_17  and  C_18 
REMARK    8  A    between atoms: C_18  and  C_20 
REMARK    9  A    between atoms: C_25  and  O_26 
REMARK   10  A    between atoms: O_26  and  C_27 
REMARK   11  A    between atoms: C_27  and  C_28 
REMARK   12  A    between atoms: C_28  and  C_29 
ROOT
ATOM      1  N   UNL d   1      26.720 -15.344  -3.816  0.00  0.00    -0.298 N 
ATOM      2  C   UNL d   1      25.699 -15.464  -2.809  0.00  0.00     0.260 C 
ATOM      3  O   UNL d   1      24.576 -14.906  -2.928  0.00  0.00    -0.267 OA
ATOM      4  H   UNL d   1      27.504 -15.966  -3.661  0.00  0.00     0.171 HD
ENDROOT
BRANCH   1   5
ATOM      5  C   UNL d   1      26.878 -14.364  -4.898  0.00  0.00     0.193 C 
ATOM      6  S   UNL d   1      26.447 -12.747  -4.766  0.00  0.00    -0.039 SA
BRANCH   5   7
ATOM      7  N   UNL d   1      27.443 -14.902  -6.127  0.00  0.00    -0.273 N 
ATOM      8  H   UNL d   1      26.865 -15.481  -6.729  0.00  0.00     0.189 HD
BRANCH   7   9
ATOM      9  N   UNL d   1      28.977 -15.382  -6.217  0.00  0.00    -0.266 N 
ATOM     10  C   UNL d   1      29.575 -16.176  -5.127  0.00  0.00     0.260 C 
ATOM     11  O   UNL d   1      28.959 -16.605  -4.159  0.00  0.00    -0.269 OA
ATOM     12  H   UNL d   1      29.540 -14.662  -6.685  0.00  0.00     0.190 HD
BRANCH  10  13
ATOM     13  C   UNL d   1      31.103 -16.378  -5.172  0.00  0.00     0.280 C 
BRANCH  13  14
ATOM     14  O   UNL d   1      31.827 -16.641  -6.338  0.00  0.00    -0.339 OA
BRANCH  14  15
ATOM     15  C   UNL d   1      31.404 -17.808  -6.950  0.00  0.00     0.102 A 
ATOM     16  C   UNL d   1      31.824 -17.810  -8.298  0.00  0.00     0.039 A 
ATOM     17  C   UNL d   1      31.719 -18.949  -9.081  0.00  0.00     0.003 A 
ATOM     18  C   UNL d   1      31.156 -20.092  -8.530  0.00  0.00     0.003 A 
ATOM     19  C   UNL d   1      30.642 -20.075  -7.220  0.00  0.00     0.039 A 
ATOM     20  C   UNL d   1      30.760 -18.945  -6.391  0.00  0.00     0.101 A 
BRANCH  20  21
ATOM     21  O   UNL d   1      30.503 -19.233  -5.061  0.00  0.00    -0.353 OA
ATOM     22  C   UNL d   1      30.811 -20.478  -4.416  0.00  0.00     0.210 C 
ENDBRANCH  20  21
ENDBRANCH  14  15
ENDBRANCH  13  14
ENDBRANCH  10  13
ENDBRANCH   7   9
ENDBRANCH   5   7
ENDBRANCH   1   5
BRANCH   2  23
ATOM     23  C   UNL d   1      25.806 -16.352  -1.566  0.00  0.00     0.065 A 
ATOM     24  C   UNL d   1      27.103 -16.379  -0.988  0.00  0.00     0.020 A 
ATOM     25  C   UNL d   1      27.479 -17.311  -0.003  0.00  0.00     0.001 A 
ATOM     26  C   UNL d   1      26.548 -18.204   0.500  0.00  0.00     0.003 A 
ATOM     27  C   UNL d   1      25.273 -18.219  -0.047  0.00  0.00     0.038 A 
ATOM     28  C   UNL d   1      24.905 -17.352  -1.104  0.00  0.00     0.084 A 
BRANCH  28  29
ATOM     29  O   UNL d   1      23.668 -17.740  -1.571  0.00  0.00    -0.350 OA
BRANCH  29  30
ATOM     30  C   UNL d   1      23.093 -18.792  -0.853  0.00  0.00     0.180 C 
BRANCH  30  31
ATOM     31  C   UNL d   1      22.127 -18.336   0.250  0.00  0.00     0.065 C 
BRANCH  31  32
ATOM     32  C   UNL d   1      20.921 -19.216   0.285  0.00  0.00    -0.056 C 
ATOM     33  C   UNL d   1      20.245 -19.215  -0.883  0.00  0.00     0.007 C 
ATOM     34  C   UNL d   1      18.989 -19.700  -0.896  0.00  0.00     0.001 C 
ATOM     35  C   UNL d   1      18.450 -20.537   0.030  0.00  0.00     0.000 C 
ATOM     36  C   UNL d   1      19.067 -20.499   1.243  0.00  0.00     0.001 C 
ATOM     37  C   UNL d   1      20.276 -19.788   1.386  0.00  0.00     0.007 C 
ENDBRANCH  31  32
ENDBRANCH  30  31
ENDBRANCH  29  30
ENDBRANCH  28  29
ENDBRANCH   2  23
TORSDOF 12
ENDMDL
MODEL 2
REMARK VINA RESULT:    -9.497      4.135      5.314
REMARK INTER + INTRA:         -15.420
REMARK INTER:                 -13.076
REMARK INTRA:                  -2.344
REMARK CONF_INDEPENDENT:        3.580
REMARK UNBOUND:                -2.344
REMARK  12 active torsions:
REMARK  status: ('A' for Active; 'I' for Inactive)
REMARK    1  A    between atoms: O_2  and  C_3 
REMARK    2  A    between atoms: C_8  and  O_9 
REMARK    3  A    between atoms: O_9  and  C_10 
REMARK    4  A    between atoms: C_10  and  C_11 
REMARK       I    between atoms: C_11  and  N_13 
REMARK    5  A    between atoms: N_13  and  N_14 
REMARK    6  A    between atoms: N_14  and  C_15 
REMARK    7  A    between atoms: C_15  and  N_17 
REMARK       I    between atoms: N_17  and  C_18 
REMARK    8  A    between atoms: C_18  and  C_20 
REMARK    9  A    between atoms: C_25  and  O_26 
REMARK   10  A    between atoms: O_26  and  C_27 
REMARK   11  A    between atoms: C_27  and  C_28 
REMARK   12  A    between atoms: C_28  and  C_29 
ROOT
ATOM      1  N   UNL d   1      26.221 -15.240  -3.619  0.00  0.00    -0.298 N 
ATOM      2  C   UNL d   1      25.174 -15.393  -2.643  0.00  0.00     0.260 C 
ATOM      3  O   UNL d   1      24.068 -14.802  -2.752  0.00  0.00    -0.267 OA
ATOM      4  H   UNL d   1      26.986 -15.890  -3.484  0.00  0.00     0.171 HD
ENDROOT
BRANCH   1   5
ATOM      5  C   UNL d   1      26.426 -14.203  -4.638  0.00  0.00     0.193 C 
ATOM      6  S   UNL d   1      27.597 -14.287  -5.837  0.00  0.00    -0.039 SA
BRANCH   5   7
ATOM      7  N   UNL d   1      25.528 -13.062  -4.532  0.00  0.00    -0.273 N 
ATOM      8  H   UNL d   1      24.569 -13.209  -4.232  0.00  0.00     0.189 HD
BRANCH   7   9
ATOM      9  N   UNL d   1      25.593 -11.831  -5.568  0.00  0.00    -0.266 N 
ATOM     10  C   UNL d   1      26.191 -10.547  -5.162  0.00  0.00     0.260 C 
ATOM     11  O   UNL d   1      26.756 -10.348  -4.093  0.00  0.00    -0.269 OA
ATOM     12  H   UNL d   1      24.756 -11.833  -6.162  0.00  0.00     0.190 HD
BRANCH  10  13
ATOM     13  C   UNL d   1      25.989  -9.353  -6.117  0.00  0.00     0.280 C 
BRANCH  13  14
ATOM     14  O   UNL d   1      26.862  -9.020  -7.156  0.00  0.00    -0.339 OA
BRANCH  14  15
ATOM     15  C   UNL d   1      27.421 -10.147  -7.734  0.00  0.00     0.102 A 
ATOM     16  C   UNL d   1      26.584 -10.605  -8.773  0.00  0.00     0.039 A 
ATOM     17  C   UNL d   1      27.007 -11.589  -9.655  0.00  0.00     0.003 A 
ATOM     18  C   UNL d   1      28.264 -12.150  -9.480  0.00  0.00     0.003 A 
ATOM     19  C   UNL d   1      29.069 -11.774  -8.389  0.00  0.00     0.039 A 
ATOM     20  C   UNL d   1      28.681 -10.759  -7.495  0.00  0.00     0.101 A 
BRANCH  20  21
ATOM     21  O   UNL d   1      29.732 -10.312  -6.712  0.00  0.00    -0.353 OA
ATOM     22  C   UNL d   1      29.710  -9.121  -5.910  0.00  0.00     0.210 C 
ENDBRANCH  20  21
ENDBRANCH  14  15
ENDBRANCH  13  14
ENDBRANCH  10  13
ENDBRANCH   7   9
ENDBRANCH   5   7
ENDBRANCH   1   5
BRANCH   2  23
ATOM     23  C   UNL d   1      25.232 -16.355  -1.452  0.00  0.00     0.065 A 
ATOM     24  C   UNL d   1      26.359 -16.160  -0.609  0.00  0.00     0.020 A 
ATOM     25  C   UNL d   1      26.735 -17.081   0.386  0.00  0.00     0.001 A 
ATOM     26  C   UNL d   1      25.953 -18.197   0.631  0.00  0.00     0.003 A 
ATOM     27  C   UNL d   1      24.850 -18.431  -0.180  0.00  0.00     0.038 A 
ATOM     28  C   UNL d   1      24.511 -17.564  -1.246  0.00  0.00     0.084 A 
BRANCH  28  29
ATOM     29  O   UNL d   1      23.515 -18.160  -1.989  0.00  0.00    -0.350 OA
BRANCH  29  30
ATOM     30  C   UNL d   1      22.677 -18.998  -1.247  0.00  0.00     0.180 C 
BRANCH  30  31
ATOM     31  C   UNL d   1      21.421 -18.301  -0.708  0.00  0.00     0.065 C 
BRANCH  31  32
ATOM     32  C   UNL d   1      20.538 -19.283  -0.010  0.00  0.00    -0.056 C 
ATOM     33  C   UNL d   1      19.535 -19.727  -0.797  0.00  0.00     0.007 C 
ATOM     34  C   UNL d   1      18.497 -20.357  -0.215  0.00  0.00     0.001 C 
ATOM     35  C   UNL d   1      18.507 -20.937   1.015  0.00  0.00     0.000 C 
ATOM     36  C   UNL d   1      19.461 -20.450   1.855  0.00  0.00     0.001 C 
ATOM     37  C   UNL d   1      20.445 -19.574   1.355  0.00  0.00     0.007 C 
ENDBRANCH  31  32
ENDBRANCH  30  31
ENDBRANCH  29  30
ENDBRANCH  28  29
ENDBRANCH   2  23
TORSDOF 12
ENDMDL
MODEL 3
REMARK VINA RESULT:    -9.468      4.177      6.812
REMARK INTER + INTRA:         -15.641
REMARK INTER:                 -13.048
REMARK INTRA:                  -2.593
REMARK CONF_INDEPENDENT:        3.580
REMARK UNBOUND:                -2.593
REMARK  12 active torsions:
REMARK  status: ('A' for Active; 'I' for Inactive)
REMARK    1  A    between atoms: O_2  and  C_3 
REMARK    2  A    between atoms: C_8  and  O_9 
REMARK    3  A    between atoms: O_9  and  C_10 
REMARK    4  A    between atoms: C_10  and  C_11 
REMARK       I    between atoms: C_11  and  N_13 
REMARK    5  A    between atoms: N_13  and  N_14 
REMARK    6  A    between atoms: N_14  and  C_15 
REMARK    7  A    between atoms: C_15  and  N_17 
REMARK       I    between atoms: N_17  and  C_18 
REMARK    8  A    between atoms: C_18  and  C_20 
REMARK    9  A    between atoms: C_25  and  O_26 
REMARK   10  A    between atoms: O_26  and  C_27 
REMARK   11  A    between atoms: C_27  and  C_28 
REMARK   12  A    between atoms: C_28  and  C_29 
ROOT
ATOM      1  N   UNL d   1      26.346 -15.097  -3.676  0.00  0.00    -0.298 N 
ATOM      2  C   UNL d   1      25.339 -15.196  -2.653  0.00  0.00     0.260 C 
ATOM      3  O   UNL d   1      24.242 -14.582  -2.734  0.00  0.00    -0.267 OA
ATOM      4  H   UNL d   1      27.102 -15.761  -3.553  0.00  0.00     0.171 HD
ENDROOT
BRANCH   1   5
ATOM      5  C   UNL d   1      26.533 -14.095  -4.733  0.00  0.00     0.193 C 
ATOM      6  S   UNL d   1      27.661 -14.235  -5.967  0.00  0.00    -0.039 SA
BRANCH   5   7
ATOM      7  N   UNL d   1      25.655 -12.939  -4.634  0.00  0.00    -0.273 N 
ATOM      8  H   UNL d   1      24.681 -13.072  -4.376  0.00  0.00     0.189 HD
BRANCH   7   9
ATOM      9  N   UNL d   1      25.786 -11.685  -5.635  0.00  0.00    -0.266 N 
ATOM     10  C   UNL d   1      27.094 -11.038  -5.851  0.00  0.00     0.260 C 
ATOM     11  O   UNL d   1      28.155 -11.443  -5.394  0.00  0.00    -0.269 OA
ATOM     12  H   UNL d   1      24.940 -11.107  -5.581  0.00  0.00     0.190 HD
BRANCH  10  13
ATOM     13  C   UNL d   1      27.089  -9.701  -6.621  0.00  0.00     0.280 C 
BRANCH  13  14
ATOM     14  O   UNL d   1      27.430  -8.469  -6.058  0.00  0.00    -0.339 OA
BRANCH  14  15
ATOM     15  C   UNL d   1      27.001  -8.370  -4.746  0.00  0.00     0.102 A 
ATOM     16  C   UNL d   1      27.973  -7.686  -3.984  0.00  0.00     0.039 A 
ATOM     17  C   UNL d   1      27.706  -7.264  -2.691  0.00  0.00     0.003 A 
ATOM     18  C   UNL d   1      26.469  -7.556  -2.133  0.00  0.00     0.003 A 
ATOM     19  C   UNL d   1      25.527  -8.323  -2.844  0.00  0.00     0.039 A 
ATOM     20  C   UNL d   1      25.757  -8.741  -4.167  0.00  0.00     0.101 A 
BRANCH  20  21
ATOM     21  O   UNL d   1      24.602  -9.180  -4.793  0.00  0.00    -0.353 OA
ATOM     22  C   UNL d   1      23.849  -8.424  -5.752  0.00  0.00     0.210 C 
ENDBRANCH  20  21
ENDBRANCH  14  15
ENDBRANCH  13  14
ENDBRANCH  10  13
ENDBRANCH   7   9
ENDBRANCH   5   7
ENDBRANCH   1   5
BRANCH   2  23
ATOM     23  C   UNL d   1      25.424 -16.124  -1.436  0.00  0.00     0.065 A 
ATOM     24  C   UNL d   1      26.752 -16.479  -1.077  0.00  0.00     0.020 A 
ATOM     25  C   UNL d   1      27.043 -17.505  -0.159  0.00  0.00     0.001 A 
ATOM     26  C   UNL d   1      26.017 -18.165   0.495  0.00  0.00     0.003 A 
ATOM     27  C   UNL d   1      24.705 -17.855   0.163  0.00  0.00     0.038 A 
ATOM     28  C   UNL d   1      24.394 -16.892  -0.827  0.00  0.00     0.084 A 
BRANCH  28  29
ATOM     29  O   UNL d   1      23.042 -16.957  -1.084  0.00  0.00    -0.350 OA
BRANCH  29  30
ATOM     30  C   UNL d   1      22.339 -17.804  -0.222  0.00  0.00     0.180 C 
BRANCH  30  31
ATOM     31  C   UNL d   1      21.361 -18.746  -0.938  0.00  0.00     0.065 C 
BRANCH  31  32
ATOM     32  C   UNL d   1      20.512 -19.470   0.054  0.00  0.00    -0.056 C 
ATOM     33  C   UNL d   1      19.423 -20.033  -0.510  0.00  0.00     0.007 C 
ATOM     34  C   UNL d   1      18.421 -20.436   0.295  0.00  0.00     0.001 C 
ATOM     35  C   UNL d   1      18.526 -20.695   1.626  0.00  0.00     0.000 C 
ATOM     36  C   UNL d   1      19.574 -20.076   2.235  0.00  0.00     0.001 C 
ATOM     37  C   UNL d   1      20.539 -19.411   1.451  0.00  0.00     0.007 C 
ENDBRANCH  31  32
ENDBRANCH  30  31
ENDBRANCH  29  30
ENDBRANCH  28  29
ENDBRANCH   2  23
TORSDOF 12
ENDMDL
MODEL 4
REMARK VINA RESULT:    -9.451      1.019      1.861
REMARK INTER + INTRA:         -15.984
REMARK INTER:                 -13.031
REMARK INTRA:                  -2.954
REMARK CONF_INDEPENDENT:        3.580
REMARK UNBOUND:                -2.954
REMARK  12 active torsions:
REMARK  status: ('A' for Active; 'I' for Inactive)
REMARK    1  A    between atoms: O_2  and  C_3 
REMARK    2  A    between atoms: C_8  and  O_9 
REMARK    3  A    between atoms: O_9  and  C_10 
REMARK    4  A    between atoms: C_10  and  C_11 
REMARK       I    between atoms: C_11  and  N_13 
REMARK    5  A    between atoms: N_13  and  N_14 
REMARK    6  A    between atoms: N_14  and  C_15 
REMARK    7  A    between atoms: C_15  and  N_17 
REMARK       I    between atoms: N_17  and  C_18 
REMARK    8  A    between atoms: C_18  and  C_20 
REMARK    9  A    between atoms: C_25  and  O_26 
REMARK   10  A    between atoms: O_26  and  C_27 
REMARK   11  A    between atoms: C_27  and  C_28 
REMARK   12  A    between atoms: C_28  and  C_29 
ROOT
ATOM      1  N   UNL d   1      26.516 -15.313  -3.798  0.00  0.00    -0.298 N 
ATOM      2  C   UNL d   1      25.501 -15.406  -2.781  0.00  0.00     0.260 C 
ATOM      3  O   UNL d   1      24.395 -14.813  -2.886  0.00  0.00    -0.267 OA
ATOM      4  H   UNL d   1      27.282 -15.960  -3.653  0.00  0.00     0.171 HD
ENDROOT
BRANCH   1   5
ATOM      5  C   UNL d   1      26.694 -14.332  -4.876  0.00  0.00     0.193 C 
ATOM      6  S   UNL d   1      25.896 -12.858  -4.942  0.00  0.00    -0.039 SA
BRANCH   5   7
ATOM      7  N   UNL d   1      27.628 -14.737  -5.916  0.00  0.00    -0.273 N 
ATOM      8  H   UNL d   1      27.275 -15.183  -6.758  0.00  0.00     0.189 HD
BRANCH   7   9
ATOM      9  N   UNL d   1      29.090 -15.315  -5.566  0.00  0.00    -0.266 N 
ATOM     10  C   UNL d   1      29.641 -15.172  -4.206  0.00  0.00     0.260 C 
ATOM     11  O   UNL d   1      29.025 -14.720  -3.248  0.00  0.00    -0.269 OA
ATOM     12  H   UNL d   1      29.711 -15.204  -6.376  0.00  0.00     0.190 HD
BRANCH  10  13
ATOM     13  C   UNL d   1      31.132 -15.522  -4.019  0.00  0.00     0.280 C 
BRANCH  13  14
ATOM     14  O   UNL d   1      31.622 -16.822  -3.874  0.00  0.00    -0.339 OA
BRANCH  14  15
ATOM     15  C   UNL d   1      31.365 -17.594  -4.993  0.00  0.00     0.102 A 
ATOM     16  C   UNL d   1      30.947 -18.880  -4.591  0.00  0.00     0.039 A 
ATOM     17  C   UNL d   1      30.423 -19.784  -5.504  0.00  0.00     0.003 A 
ATOM     18  C   UNL d   1      30.348 -19.417  -6.841  0.00  0.00     0.003 A 
ATOM     19  C   UNL d   1      30.852 -18.176  -7.272  0.00  0.00     0.039 A 
ATOM     20  C   UNL d   1      31.362 -17.228  -6.367  0.00  0.00     0.101 A 
BRANCH  20  21
ATOM     21  O   UNL d   1      31.490 -15.970  -6.933  0.00  0.00    -0.353 OA
ATOM     22  C   UNL d   1      32.220 -15.681  -8.134  0.00  0.00     0.210 C 
ENDBRANCH  20  21
ENDBRANCH  14  15
ENDBRANCH  13  14
ENDBRANCH  10  13
ENDBRANCH   7   9
ENDBRANCH   5   7
ENDBRANCH   1   5
BRANCH   2  23
ATOM     23  C   UNL d   1      25.592 -16.303  -1.543  0.00  0.00     0.065 A 
ATOM     24  C   UNL d   1      26.768 -16.101  -0.772  0.00  0.00     0.020 A 
ATOM     25  C   UNL d   1      27.167 -16.980   0.253  0.00  0.00     0.001 A 
ATOM     26  C   UNL d   1      26.365 -18.054   0.599  0.00  0.00     0.003 A 
ATOM     27  C   UNL d   1      25.215 -18.294  -0.140  0.00  0.00     0.038 A 
ATOM     28  C   UNL d   1      24.847 -17.475  -1.234  0.00  0.00     0.084 A 
BRANCH  28  29
ATOM     29  O   UNL d   1      23.795 -18.076  -1.890  0.00  0.00    -0.350 OA
BRANCH  29  30
ATOM     30  C   UNL d   1      23.040 -18.936  -1.087  0.00  0.00     0.180 C 
BRANCH  30  31
ATOM     31  C   UNL d   1      22.088 -18.212  -0.126  0.00  0.00     0.065 C 
BRANCH  31  32
ATOM     32  C   UNL d   1      20.971 -19.116   0.283  0.00  0.00    -0.056 C 
ATOM     33  C   UNL d   1      20.229 -19.529  -0.766  0.00  0.00     0.007 C 
ATOM     34  C   UNL d   1      19.024 -20.077  -0.520  0.00  0.00     0.001 C 
ATOM     35  C   UNL d   1      18.620 -20.613   0.662  0.00  0.00     0.000 C 
ATOM     36  C   UNL d   1      19.303 -20.154   1.746  0.00  0.00     0.001 C 
ATOM     37  C   UNL d   1      20.449 -19.354   1.558  0.00  0.00     0.007 C 
ENDBRANCH  31  32
ENDBRANCH  30  31
ENDBRANCH  29  30
ENDBRANCH  28  29
ENDBRANCH   2  23
TORSDOF 12
ENDMDL
MODEL 5
REMARK VINA RESULT:    -9.182      4.573      6.862
REMARK INTER + INTRA:         -15.628
REMARK INTER:                 -12.762
REMARK INTRA:                  -2.866
REMARK CONF_INDEPENDENT:        3.580
REMARK UNBOUND:                -2.866
REMARK  12 active torsions:
REMARK  status: ('A' for Active; 'I' for Inactive)
REMARK    1  A    between atoms: O_2  and  C_3 
REMARK    2  A    between atoms: C_8  and  O_9 
REMARK    3  A    between atoms: O_9  and  C_10 
REMARK    4  A    between atoms: C_10  and  C_11 
REMARK       I    between atoms: C_11  and  N_13 
REMARK    5  A    between atoms: N_13  and  N_14 
REMARK    6  A    between atoms: N_14  and  C_15 
REMARK    7  A    between atoms: C_15  and  N_17 
REMARK       I    between atoms: N_17  and  C_18 
REMARK    8  A    between atoms: C_18  and  C_20 
REMARK    9  A    between atoms: C_25  and  O_26 
REMARK   10  A    between atoms: O_26  and  C_27 
REMARK   11  A    between atoms: C_27  and  C_28 
REMARK   12  A    between atoms: C_28  and  C_29 
ROOT
ATOM      1  N   UNL d   1      26.667 -14.182  -2.192  0.00  0.00    -0.298 N 
ATOM      2  C   UNL d   1      25.725 -15.270  -2.164  0.00  0.00     0.260 C 
ATOM      3  O   UNL d   1      24.910 -15.471  -3.103  0.00  0.00    -0.267 OA
ATOM      4  H   UNL d   1      27.356 -14.236  -1.451  0.00  0.00     0.171 HD
ENDROOT
BRANCH   1   5
ATOM      5  C   UNL d   1      26.674 -12.950  -2.991  0.00  0.00     0.193 C 
ATOM      6  S   UNL d   1      27.875 -11.782  -2.901  0.00  0.00    -0.039 SA
BRANCH   5   7
ATOM      7  N   UNL d   1      25.536 -12.802  -3.886  0.00  0.00    -0.273 N 
ATOM      8  H   UNL d   1      25.005 -13.625  -4.158  0.00  0.00     0.189 HD
BRANCH   7   9
ATOM      9  N   UNL d   1      25.535 -11.731  -5.088  0.00  0.00    -0.266 N 
ATOM     10  C   UNL d   1      26.734 -11.551  -5.927  0.00  0.00     0.260 C 
ATOM     11  O   UNL d   1      27.745 -12.239  -5.854  0.00  0.00    -0.269 OA
ATOM     12  H   UNL d   1      24.978 -10.911  -4.822  0.00  0.00     0.190 HD
BRANCH  10  13
ATOM     13  C   UNL d   1      26.739 -10.341  -6.884  0.00  0.00     0.280 C 
BRANCH  13  14
ATOM     14  O   UNL d   1      26.965  -9.023  -6.482  0.00  0.00    -0.339 OA
BRANCH  14  15
ATOM     15  C   UNL d   1      25.785  -8.378  -6.155  0.00  0.00     0.102 A 
ATOM     16  C   UNL d   1      25.357  -7.597  -7.250  0.00  0.00     0.039 A 
ATOM     17  C   UNL d   1      24.098  -7.017  -7.271  0.00  0.00     0.003 A 
ATOM     18  C   UNL d   1      23.265  -7.185  -6.174  0.00  0.00     0.003 A 
ATOM     19  C   UNL d   1      23.714  -7.877  -5.034  0.00  0.00     0.039 A 
ATOM     20  C   UNL d   1      24.974  -8.501  -4.994  0.00  0.00     0.101 A 
BRANCH  20  21
ATOM     21  O   UNL d   1      25.090  -9.395  -3.942  0.00  0.00    -0.353 OA
ATOM     22  C   UNL d   1      25.704  -9.102  -2.679  0.00  0.00     0.210 C 
ENDBRANCH  20  21
ENDBRANCH  14  15
ENDBRANCH  13  14
ENDBRANCH  10  13
ENDBRANCH   7   9
ENDBRANCH   5   7
ENDBRANCH   1   5
BRANCH   2  23
ATOM     23  C   UNL d   1      25.679 -16.352  -1.080  0.00  0.00     0.065 A 
ATOM     24  C   UNL d   1      26.922 -16.561  -0.424  0.00  0.00     0.020 A 
ATOM     25  C   UNL d   1      27.162 -17.663   0.417  0.00  0.00     0.001 A 
ATOM     26  C   UNL d   1      26.144 -18.558   0.699  0.00  0.00     0.003 A 
ATOM     27  C   UNL d   1      24.919 -18.396   0.067  0.00  0.00     0.038 A 
ATOM     28  C   UNL d   1      24.688 -17.347  -0.855  0.00  0.00     0.084 A 
BRANCH  28  29
ATOM     29  O   UNL d   1      23.474 -17.568  -1.467  0.00  0.00    -0.350 OA
BRANCH  29  30
ATOM     30  C   UNL d   1      22.726 -18.600  -0.891  0.00  0.00     0.180 C 
BRANCH  30  31
ATOM     31  C   UNL d   1      21.210 -18.371  -0.943  0.00  0.00     0.065 C 
BRANCH  31  32
ATOM     32  C   UNL d   1      20.514 -19.261   0.034  0.00  0.00    -0.056 C 
ATOM     33  C   UNL d   1      19.439 -19.876  -0.502  0.00  0.00     0.007 C 
ATOM     34  C   UNL d   1      18.547 -20.447   0.331  0.00  0.00     0.001 C 
ATOM     35  C   UNL d   1      18.783 -20.812   1.619  0.00  0.00     0.000 C 
ATOM     36  C   UNL d   1      19.816 -20.149   2.208  0.00  0.00     0.001 C 
ATOM     37  C   UNL d   1      20.649 -19.325   1.425  0.00  0.00     0.007 C 
ENDBRANCH  31  32
ENDBRANCH  30  31
ENDBRANCH  29  30
ENDBRANCH  28  29
ENDBRANCH   2  23
TORSDOF 12
ENDMDL
MODEL 6
REMARK VINA RESULT:    -8.692      2.252      3.277
REMARK INTER + INTRA:         -15.564
REMARK INTER:                 -12.271
REMARK INTRA:                  -3.293
REMARK CONF_INDEPENDENT:        3.580
REMARK UNBOUND:                -3.293
REMARK  12 active torsions:
REMARK  status: ('A' for Active; 'I' for Inactive)
REMARK    1  A    between atoms: O_2  and  C_3 
REMARK    2  A    between atoms: C_8  and  O_9 
REMARK    3  A    between atoms: O_9  and  C_10 
REMARK    4  A    between atoms: C_10  and  C_11 
REMARK       I    between atoms: C_11  and  N_13 
REMARK    5  A    between atoms: N_13  and  N_14 
REMARK    6  A    between atoms: N_14  and  C_15 
REMARK    7  A    between atoms: C_15  and  N_17 
REMARK       I    between atoms: N_17  and  C_18 
REMARK    8  A    between atoms: C_18  and  C_20 
REMARK    9  A    between atoms: C_25  and  O_26 
REMARK   10  A    between atoms: O_26  and  C_27 
REMARK   11  A    between atoms: C_27  and  C_28 
REMARK   12  A    between atoms: C_28  and  C_29 
ROOT
ATOM      1  N   UNL d   1      26.467 -13.533  -2.611  0.00  0.00    -0.298 N 
ATOM      2  C   UNL d   1      25.764 -14.778  -2.446  0.00  0.00     0.260 C 
ATOM      3  O   UNL d   1      24.941 -15.199  -3.301  0.00  0.00    -0.267 OA
ATOM      4  H   UNL d   1      27.203 -13.400  -1.928  0.00  0.00     0.171 HD
ENDROOT
BRANCH   1   5
ATOM      5  C   UNL d   1      26.172 -12.383  -3.475  0.00  0.00     0.193 C 
ATOM      6  S   UNL d   1      25.904 -10.828  -2.904  0.00  0.00    -0.039 SA
BRANCH   5   7
ATOM      7  N   UNL d   1      26.119 -12.690  -4.896  0.00  0.00    -0.273 N 
ATOM      8  H   UNL d   1      25.267 -13.075  -5.292  0.00  0.00     0.189 HD
BRANCH   7   9
ATOM      9  N   UNL d   1      27.398 -13.266  -5.688  0.00  0.00    -0.266 N 
ATOM     10  C   UNL d   1      27.524 -14.712  -5.947  0.00  0.00     0.260 C 
ATOM     11  O   UNL d   1      26.662 -15.544  -5.688  0.00  0.00    -0.269 OA
ATOM     12  H   UNL d   1      28.233 -12.723  -5.443  0.00  0.00     0.190 HD
BRANCH  10  13
ATOM     13  C   UNL d   1      28.883 -15.207  -6.482  0.00  0.00     0.280 C 
BRANCH  13  14
ATOM     14  O   UNL d   1      29.555 -16.333  -5.999  0.00  0.00    -0.339 OA
BRANCH  14  15
ATOM     15  C   UNL d   1      29.668 -16.309  -4.620  0.00  0.00     0.102 A 
ATOM     16  C   UNL d   1      30.058 -17.584  -4.159  0.00  0.00     0.039 A 
ATOM     17  C   UNL d   1      30.449 -17.784  -2.843  0.00  0.00     0.003 A 
ATOM     18  C   UNL d   1      30.417 -16.709  -1.964  0.00  0.00     0.003 A 
ATOM     19  C   UNL d   1      29.936 -15.456  -2.385  0.00  0.00     0.039 A 
ATOM     20  C   UNL d   1      29.560 -15.214  -3.719  0.00  0.00     0.101 A 
BRANCH  20  21
ATOM     21  O   UNL d   1      29.441 -13.864  -4.001  0.00  0.00    -0.353 OA
ATOM     22  C   UNL d   1      30.510 -12.909  -3.915  0.00  0.00     0.210 C 
ENDBRANCH  20  21
ENDBRANCH  14  15
ENDBRANCH  13  14
ENDBRANCH  10  13
ENDBRANCH   7   9
ENDBRANCH   5   7
ENDBRANCH   1   5
BRANCH   2  23
ATOM     23  C   UNL d   1      26.011 -15.769  -1.303  0.00  0.00     0.065 A 
ATOM     24  C   UNL d   1      27.235 -15.560  -0.615  0.00  0.00     0.020 A 
ATOM     25  C   UNL d   1      27.769 -16.495   0.291  0.00  0.00     0.001 A 
ATOM     26  C   UNL d   1      27.060 -17.642   0.605  0.00  0.00     0.003 A 
ATOM     27  C   UNL d   1      25.865 -17.890  -0.057  0.00  0.00     0.038 A 
ATOM     28  C   UNL d   1      25.360 -17.006  -1.040  0.00  0.00     0.084 A 
BRANCH  28  29
ATOM     29  O   UNL d   1      24.290 -17.615  -1.660  0.00  0.00    -0.350 OA
BRANCH  29  30
ATOM     30  C   UNL d   1      23.161 -17.748  -0.846  0.00  0.00     0.180 C 
BRANCH  30  31
ATOM     31  C   UNL d   1      22.055 -18.619  -1.456  0.00  0.00     0.065 C 
BRANCH  31  32
ATOM     32  C   UNL d   1      21.171 -19.168  -0.384  0.00  0.00    -0.056 C 
ATOM     33  C   UNL d   1      20.042 -19.719  -0.877  0.00  0.00     0.007 C 
ATOM     34  C   UNL d   1      19.026 -19.962  -0.027  0.00  0.00     0.001 C 
ATOM     35  C   UNL d   1      19.128 -20.074   1.324  0.00  0.00     0.000 C 
ATOM     36  C   UNL d   1      20.220 -19.458   1.855  0.00  0.00     0.001 C 
ATOM     37  C   UNL d   1      21.217 -18.952   0.997  0.00  0.00     0.007 C 
ENDBRANCH  31  32
ENDBRANCH  30  31
ENDBRANCH  29  30
ENDBRANCH  28  29
ENDBRANCH   2  23
TORSDOF 12
ENDMDL
MODEL 7
REMARK VINA RESULT:    -7.226      3.179      6.525
REMARK INTER + INTRA:         -16.074
REMARK INTER:                 -10.806
REMARK INTRA:                  -5.268
REMARK CONF_INDEPENDENT:        3.580
REMARK UNBOUND:                -5.268
REMARK  12 active torsions:
REMARK  status: ('A' for Active; 'I' for Inactive)
REMARK    1  A    between atoms: O_2  and  C_3 
REMARK    2  A    between atoms: C_8  and  O_9 
REMARK    3  A    between atoms: O_9  and  C_10 
REMARK    4  A    between atoms: C_10  and  C_11 
REMARK       I    between atoms: C_11  and  N_13 
REMARK    5  A    between atoms: N_13  and  N_14 
REMARK    6  A    between atoms: N_14  and  C_15 
REMARK    7  A    between atoms: C_15  and  N_17 
REMARK       I    between atoms: N_17  and  C_18 
REMARK    8  A    between atoms: C_18  and  C_20 
REMARK    9  A    between atoms: C_25  and  O_26 
REMARK   10  A    between atoms: O_26  and  C_27 
REMARK   11  A    between atoms: C_27  and  C_28 
REMARK   12  A    between atoms: C_28  and  C_29 
ROOT
ATOM      1  N   UNL d   1      28.951 -15.589  -4.506  0.00  0.00    -0.298 N 
ATOM      2  C   UNL d   1      28.020 -14.866  -5.332  0.00  0.00     0.260 C 
ATOM      3  O   UNL d   1      27.784 -15.200  -6.523  0.00  0.00    -0.267 OA
ATOM      4  H   UNL d   1      28.922 -15.304  -3.534  0.00  0.00     0.171 HD
ENDROOT
BRANCH   1   5
ATOM      5  C   UNL d   1      30.027 -16.516  -4.876  0.00  0.00     0.193 C 
ATOM      6  S   UNL d   1      31.077 -16.268  -6.161  0.00  0.00    -0.039 SA
BRANCH   5   7
ATOM      7  N   UNL d   1      30.123 -17.701  -4.035  0.00  0.00    -0.273 N 
ATOM      8  H   UNL d   1      29.592 -18.531  -4.282  0.00  0.00     0.189 HD
BRANCH   7   9
ATOM      9  N   UNL d   1      30.259 -17.597  -2.434  0.00  0.00    -0.266 N 
ATOM     10  C   UNL d   1      29.164 -17.028  -1.628  0.00  0.00     0.260 C 
ATOM     11  O   UNL d   1      28.070 -16.699  -2.072  0.00  0.00    -0.269 OA
ATOM     12  H   UNL d   1      31.232 -17.390  -2.181  0.00  0.00     0.190 HD
BRANCH  10  13
ATOM     13  C   UNL d   1      29.472 -16.734  -0.145  0.00  0.00     0.280 C 
BRANCH  13  14
ATOM     14  O   UNL d   1      29.739 -15.461   0.365  0.00  0.00    -0.339 OA
BRANCH  14  15
ATOM     15  C   UNL d   1      28.663 -14.607   0.196  0.00  0.00     0.102 A 
ATOM     16  C   UNL d   1      27.977 -14.469   1.422  0.00  0.00     0.039 A 
ATOM     17  C   UNL d   1      26.990 -13.509   1.588  0.00  0.00     0.003 A 
ATOM     18  C   UNL d   1      26.655 -12.699   0.512  0.00  0.00     0.003 A 
ATOM     19  C   UNL d   1      27.260 -12.891  -0.744  0.00  0.00     0.039 A 
ATOM     20  C   UNL d   1      28.285 -13.836  -0.936  0.00  0.00     0.101 A 
BRANCH  20  21
ATOM     21  O   UNL d   1      28.968 -13.642  -2.125  0.00  0.00    -0.353 OA
ATOM     22  C   UNL d   1      30.378 -13.845  -2.305  0.00  0.00     0.210 C 
ENDBRANCH  20  21
ENDBRANCH  14  15
ENDBRANCH  13  14
ENDBRANCH  10  13
ENDBRANCH   7   9
ENDBRANCH   5   7
ENDBRANCH   1   5
BRANCH   2  23
ATOM     23  C   UNL d   1      27.141 -13.711  -4.842  0.00  0.00     0.065 A 
ATOM     24  C   UNL d   1      27.835 -12.480  -4.701  0.00  0.00     0.020 A 
ATOM     25  C   UNL d   1      27.286 -11.367  -4.036  0.00  0.00     0.001 A 
ATOM     26  C   UNL d   1      25.989 -11.416  -3.554  0.00  0.00     0.003 A 
ATOM     27  C   UNL d   1      25.281 -12.606  -3.661  0.00  0.00     0.038 A 
ATOM     28  C   UNL d   1      25.852 -13.763  -4.242  0.00  0.00     0.084 A 
BRANCH  28  29
ATOM     29  O   UNL d   1      25.002 -14.825  -4.015  0.00  0.00    -0.350 OA
BRANCH  29  30
ATOM     30  C   UNL d   1      25.530 -15.805  -3.169  0.00  0.00     0.180 C 
BRANCH  30  31
ATOM     31  C   UNL d   1      25.457 -15.443  -1.680  0.00  0.00     0.065 C 
BRANCH  31  32
ATOM     32  C   UNL d   1      24.578 -16.406  -0.950  0.00  0.00    -0.056 C 
ATOM     33  C   UNL d   1      25.248 -17.499  -0.527  0.00  0.00     0.007 C 
ATOM     34  C   UNL d   1      24.537 -18.576  -0.144  0.00  0.00     0.001 C 
ATOM     35  C   UNL d   1      23.229 -18.574   0.229  0.00  0.00     0.000 C 
ATOM     36  C   UNL d   1      22.513 -17.522  -0.250  0.00  0.00     0.001 C 
ATOM     37  C   UNL d   1      23.182 -16.461  -0.894  0.00  0.00     0.007 C 
ENDBRANCH  31  32
ENDBRANCH  30  31
ENDBRANCH  29  30
ENDBRANCH  28  29
ENDBRANCH   2  23
TORSDOF 12
ENDMDL
MODEL 8
REMARK VINA RESULT:    -7.225      3.344      4.869
REMARK INTER + INTRA:         -16.004
REMARK INTER:                 -10.804
REMARK INTRA:                  -5.200
REMARK CONF_INDEPENDENT:        3.580
REMARK UNBOUND:                -5.200
REMARK  12 active torsions:
REMARK  status: ('A' for Active; 'I' for Inactive)
REMARK    1  A    between atoms: O_2  and  C_3 
REMARK    2  A    between atoms: C_8  and  O_9 
REMARK    3  A    between atoms: O_9  and  C_10 
REMARK    4  A    between atoms: C_10  and  C_11 
REMARK       I    between atoms: C_11  and  N_13 
REMARK    5  A    between atoms: N_13  and  N_14 
REMARK    6  A    between atoms: N_14  and  C_15 
REMARK    7  A    between atoms: C_15  and  N_17 
REMARK       I    between atoms: N_17  and  C_18 
REMARK    8  A    between atoms: C_18  and  C_20 
REMARK    9  A    between atoms: C_25  and  O_26 
REMARK   10  A    between atoms: O_26  and  C_27 
REMARK   11  A    between atoms: C_27  and  C_28 
REMARK   12  A    between atoms: C_28  and  C_29 
ROOT
ATOM      1  N   UNL d   1      26.756 -12.091  -2.290  0.00  0.00    -0.298 N 
ATOM      2  C   UNL d   1      28.089 -12.328  -1.801  0.00  0.00     0.260 C 
ATOM      3  O   UNL d   1      28.949 -11.410  -1.733  0.00  0.00    -0.267 OA
ATOM      4  H   UNL d   1      26.134 -12.877  -2.141  0.00  0.00     0.171 HD
ENDROOT
BRANCH   1   5
ATOM      5  C   UNL d   1      26.224 -10.992  -3.105  0.00  0.00     0.193 C 
ATOM      6  S   UNL d   1      26.201  -9.388  -2.612  0.00  0.00    -0.039 SA
BRANCH   5   7
ATOM      7  N   UNL d   1      25.699 -11.397  -4.400  0.00  0.00    -0.273 N 
ATOM      8  H   UNL d   1      24.780 -11.074  -4.689  0.00  0.00     0.189 HD
BRANCH   7   9
ATOM      9  N   UNL d   1      25.979 -12.860  -5.010  0.00  0.00    -0.266 N 
ATOM     10  C   UNL d   1      25.467 -14.062  -4.327  0.00  0.00     0.260 C 
ATOM     11  O   UNL d   1      24.735 -14.047  -3.345  0.00  0.00    -0.269 OA
ATOM     12  H   UNL d   1      26.908 -12.884  -5.445  0.00  0.00     0.190 HD
BRANCH  10  13
ATOM     13  C   UNL d   1      25.988 -15.424  -4.832  0.00  0.00     0.280 C 
BRANCH  13  14
ATOM     14  O   UNL d   1      27.014 -15.575  -5.768  0.00  0.00    -0.339 OA
BRANCH  14  15
ATOM     15  C   UNL d   1      28.207 -15.044  -5.308  0.00  0.00     0.102 A 
ATOM     16  C   UNL d   1      28.833 -15.972  -4.448  0.00  0.00     0.039 A 
ATOM     17  C   UNL d   1      30.138 -15.784  -4.017  0.00  0.00     0.003 A 
ATOM     18  C   UNL d   1      30.818 -14.642  -4.417  0.00  0.00     0.003 A 
ATOM     19  C   UNL d   1      30.173 -13.661  -5.192  0.00  0.00     0.039 A 
ATOM     20  C   UNL d   1      28.862 -13.835  -5.669  0.00  0.00     0.101 A 
BRANCH  20  21
ATOM     21  O   UNL d   1      28.537 -12.935  -6.670  0.00  0.00    -0.353 OA
ATOM     22  C   UNL d   1      28.843 -11.533  -6.645  0.00  0.00     0.210 C 
ENDBRANCH  20  21
ENDBRANCH  14  15
ENDBRANCH  13  14
ENDBRANCH  10  13
ENDBRANCH   7   9
ENDBRANCH   5   7
ENDBRANCH   1   5
BRANCH   2  23
ATOM     23  C   UNL d   1      28.574 -13.656  -1.210  0.00  0.00     0.065 A 
ATOM     24  C   UNL d   1      29.984 -13.739  -1.062  0.00  0.00     0.020 A 
ATOM     25  C   UNL d   1      30.651 -14.945  -0.777  0.00  0.00     0.001 A 
ATOM     26  C   UNL d   1      29.926 -16.103  -0.551  0.00  0.00     0.003 A 
ATOM     27  C   UNL d   1      28.546 -16.067  -0.700  0.00  0.00     0.038 A 
ATOM     28  C   UNL d   1      27.868 -14.884  -1.079  0.00  0.00     0.084 A 
BRANCH  28  29
ATOM     29  O   UNL d   1      26.555 -15.206  -1.349  0.00  0.00    -0.350 OA
BRANCH  29  30
ATOM     30  C   UNL d   1      26.323 -16.578  -1.487  0.00  0.00     0.180 C 
BRANCH  30  31
ATOM     31  C   UNL d   1      25.703 -17.230  -0.245  0.00  0.00     0.065 C 
BRANCH  31  32
ATOM     32  C   UNL d   1      24.316 -17.701  -0.538  0.00  0.00    -0.056 C 
ATOM     33  C   UNL d   1      23.480 -16.687  -0.846  0.00  0.00     0.007 C 
ATOM     34  C   UNL d   1      22.155 -16.921  -0.820  0.00  0.00     0.001 C 
ATOM     35  C   UNL d   1      21.561 -18.142  -0.894  0.00  0.00     0.000 C 
ATOM     36  C   UNL d   1      22.361 -19.176  -0.513  0.00  0.00     0.001 C 
ATOM     37  C   UNL d   1      23.731 -18.944  -0.278  0.00  0.00     0.007 C 
ENDBRANCH  31  32
ENDBRANCH  30  31
ENDBRANCH  29  30
ENDBRANCH  28  29
ENDBRANCH   2  23
TORSDOF 12
ENDMDL
