MODEL 1
REMARK VINA RESULT:    -8.138      0.000      0.000
REMARK INTER + INTRA:         -11.860
REMARK INTER:                 -10.524
REMARK INTRA:                  -1.336
REMARK CONF_INDEPENDENT:        2.386
REMARK UNBOUND:                -1.336
REMARK  8 active torsions:
REMARK  status: ('A' for Active; 'I' for Inactive)
REMARK    1  A    between atoms: N_2  and  C_4 
REMARK    2  A    between atoms: C_7  and  C_8 
REMARK    3  A    between atoms: N_9  and  N_10 
REMARK       I    between atoms: N_10  and  C_11 
REMARK    4  A    between atoms: C_11  and  C_13 
REMARK    5  A    between atoms: C_13  and  C_14 
REMARK    6  A    between atoms: C_15  and  C_14 
REMARK    7  A    between atoms: C_15  and  C_17 
REMARK    8  A    between atoms: C_15  and  O_16 
ROOT
ATOM      1  N   UNL d   1      24.010 -16.752  -1.648  0.00  0.00    -0.247 N 
ATOM      2  C   UNL d   1      24.537 -17.450  -0.563  0.00  0.00     0.237 C 
ATOM      3  O   UNL d   1      25.734 -17.461  -0.257  0.00  0.00    -0.272 OA
ATOM      4  H   UNL d   1      23.021 -16.766  -1.873  0.00  0.00     0.192 HD
ENDROOT
BRANCH   1   5
ATOM      5  N   UNL d   1      24.881 -16.039  -2.424  0.00  0.00    -0.184 NA
ATOM      6  C   UNL d   1      24.592 -14.825  -2.770  0.00  0.00     0.150 C 
BRANCH   6   7
ATOM      7  C   UNL d   1      25.515 -14.061  -3.661  0.00  0.00    -0.017 A 
ATOM      8  C   UNL d   1      25.457 -12.668  -3.737  0.00  0.00     0.015 A 
ATOM      9  C   UNL d   1      26.237 -11.980  -4.691  0.00  0.00     0.030 A 
ATOM     10  C   UNL d   1      27.123 -12.651  -5.551  0.00  0.00     0.029 A 
ATOM     11  C   UNL d   1      27.193 -14.044  -5.414  0.00  0.00     0.030 A 
ATOM     12  C   UNL d   1      26.408 -14.742  -4.487  0.00  0.00     0.015 A 
BRANCH  10  13
ATOM     13  N   UNL d   1      27.879 -11.970  -6.497  0.00  0.00    -0.390 N 
ATOM     14  C   UNL d   1      29.333 -12.063  -6.470  0.00  0.00     0.149 C 
ATOM     15  C   UNL d   1      27.253 -10.958  -7.337  0.00  0.00     0.149 C 
ENDBRANCH  10  13
ENDBRANCH   6   7
ENDBRANCH   1   5
BRANCH   2  16
ATOM     16  C   UNL d   1      23.509 -18.200   0.259  0.00  0.00     0.107 C 
BRANCH  16  17
ATOM     17  C   UNL d   1      22.719 -19.215  -0.592  0.00  0.00     0.046 C 
BRANCH  17  18
ATOM     18  C   UNL d   1      21.277 -18.812  -0.932  0.00  0.00     0.151 C 
BRANCH  18  19
ATOM     19  C   UNL d   1      20.257 -19.450  -0.011  0.00  0.00    -0.030 A 
ATOM     20  C   UNL d   1      20.429 -19.409   1.382  0.00  0.00     0.010 A 
ATOM     21  C   UNL d   1      19.533 -20.076   2.223  0.00  0.00     0.001 A 
ATOM     22  C   UNL d   1      18.405 -20.701   1.694  0.00  0.00     0.000 A 
ATOM     23  C   UNL d   1      18.195 -20.705   0.322  0.00  0.00     0.001 A 
ATOM     24  C   UNL d   1      19.129 -20.111  -0.519  0.00  0.00     0.010 A 
ENDBRANCH  18  19
BRANCH  18  25
ATOM     25  O   UNL d   1      21.142 -17.391  -0.912  0.00  0.00    -0.391 OA
ATOM     26  H   UNL d   1      20.314 -17.166  -1.364  0.00  0.00     0.210 HD
ENDBRANCH  18  25
ENDBRANCH  17  18
ENDBRANCH  16  17
ENDBRANCH   2  16
TORSDOF 8
ENDMDL
MODEL 2
REMARK VINA RESULT:    -8.095      1.107      1.477
REMARK INTER + INTRA:         -11.693
REMARK INTER:                 -10.481
REMARK INTRA:                  -1.212
REMARK CONF_INDEPENDENT:        2.386
REMARK UNBOUND:                -1.212
REMARK  8 active torsions:
REMARK  status: ('A' for Active; 'I' for Inactive)
REMARK    1  A    between atoms: N_2  and  C_4 
REMARK    2  A    between atoms: C_7  and  C_8 
REMARK    3  A    between atoms: N_9  and  N_10 
REMARK       I    between atoms: N_10  and  C_11 
REMARK    4  A    between atoms: C_11  and  C_13 
REMARK    5  A    between atoms: C_13  and  C_14 
REMARK    6  A    between atoms: C_15  and  C_14 
REMARK    7  A    between atoms: C_15  and  C_17 
REMARK    8  A    between atoms: C_15  and  O_16 
ROOT
ATOM      1  N   UNL d   1      24.473 -16.841  -1.309  0.00  0.00    -0.247 N 
ATOM      2  C   UNL d   1      23.212 -16.828  -0.716  0.00  0.00     0.237 C 
ATOM      3  O   UNL d   1      22.378 -15.930  -0.873  0.00  0.00    -0.272 OA
ATOM      4  H   UNL d   1      25.136 -17.594  -1.157  0.00  0.00     0.192 HD
ENDROOT
BRANCH   1   5
ATOM      5  N   UNL d   1      24.805 -15.785  -2.111  0.00  0.00    -0.184 NA
ATOM      6  C   UNL d   1      25.530 -15.978  -3.167  0.00  0.00     0.150 C 
BRANCH   6   7
ATOM      7  C   UNL d   1      25.939 -14.822  -4.017  0.00  0.00    -0.017 A 
ATOM      8  C   UNL d   1      27.160 -14.817  -4.693  0.00  0.00     0.015 A 
ATOM      9  C   UNL d   1      27.588 -13.655  -5.370  0.00  0.00     0.030 A 
ATOM     10  C   UNL d   1      26.796 -12.496  -5.434  0.00  0.00     0.029 A 
ATOM     11  C   UNL d   1      25.554 -12.552  -4.787  0.00  0.00     0.030 A 
ATOM     12  C   UNL d   1      25.126 -13.691  -4.091  0.00  0.00     0.015 A 
BRANCH  10  13
ATOM     13  N   UNL d   1      27.227 -11.352  -6.092  0.00  0.00    -0.390 N 
ATOM     14  C   UNL d   1      28.075 -11.465  -7.271  0.00  0.00     0.149 C 
ATOM     15  C   UNL d   1      27.067 -10.048  -5.462  0.00  0.00     0.149 C 
ENDBRANCH  10  13
ENDBRANCH   6   7
ENDBRANCH   1   5
BRANCH   2  16
ATOM     16  C   UNL d   1      22.911 -18.039   0.143  0.00  0.00     0.107 C 
BRANCH  16  17
ATOM     17  C   UNL d   1      22.344 -19.208  -0.688  0.00  0.00     0.046 C 
BRANCH  17  18
ATOM     18  C   UNL d   1      20.845 -19.123  -1.011  0.00  0.00     0.151 C 
BRANCH  18  19
ATOM     19  C   UNL d   1      19.975 -19.712   0.081  0.00  0.00    -0.030 A 
ATOM     20  C   UNL d   1      20.317 -19.546   1.432  0.00  0.00     0.010 A 
ATOM     21  C   UNL d   1      19.562 -20.167   2.432  0.00  0.00     0.001 A 
ATOM     22  C   UNL d   1      18.404 -20.871   2.104  0.00  0.00     0.000 A 
ATOM     23  C   UNL d   1      18.026 -21.000   0.774  0.00  0.00     0.001 A 
ATOM     24  C   UNL d   1      18.822 -20.450  -0.224  0.00  0.00     0.010 A 
ENDBRANCH  18  19
BRANCH  18  25
ATOM     25  O   UNL d   1      20.469 -17.771  -1.269  0.00  0.00    -0.391 OA
ATOM     26  H   UNL d   1      21.268 -17.284  -1.524  0.00  0.00     0.210 HD
ENDBRANCH  18  25
ENDBRANCH  17  18
ENDBRANCH  16  17
ENDBRANCH   2  16
TORSDOF 8
ENDMDL
MODEL 3
REMARK VINA RESULT:    -8.081      1.449      2.186
REMARK INTER + INTRA:         -11.116
REMARK INTER:                 -10.468
REMARK INTRA:                  -0.648
REMARK CONF_INDEPENDENT:        2.386
REMARK UNBOUND:                -0.648
REMARK  8 active torsions:
REMARK  status: ('A' for Active; 'I' for Inactive)
REMARK    1  A    between atoms: N_2  and  C_4 
REMARK    2  A    between atoms: C_7  and  C_8 
REMARK    3  A    between atoms: N_9  and  N_10 
REMARK       I    between atoms: N_10  and  C_11 
REMARK    4  A    between atoms: C_11  and  C_13 
REMARK    5  A    between atoms: C_13  and  C_14 
REMARK    6  A    between atoms: C_15  and  C_14 
REMARK    7  A    between atoms: C_15  and  C_17 
REMARK    8  A    between atoms: C_15  and  O_16 
ROOT
ATOM      1  N   UNL d   1      24.674 -15.705  -1.461  0.00  0.00    -0.247 N 
ATOM      2  C   UNL d   1      23.926 -16.881  -1.436  0.00  0.00     0.237 C 
ATOM      3  O   UNL d   1      24.104 -17.835  -2.201  0.00  0.00    -0.272 OA
ATOM      4  H   UNL d   1      24.501 -14.938  -0.820  0.00  0.00     0.192 HD
ENDROOT
BRANCH   1   5
ATOM      5  N   UNL d   1      25.663 -15.605  -2.400  0.00  0.00    -0.184 NA
ATOM      6  C   UNL d   1      25.603 -14.682  -3.306  0.00  0.00     0.150 C 
BRANCH   6   7
ATOM      7  C   UNL d   1      26.652 -14.602  -4.364  0.00  0.00    -0.017 A 
ATOM      8  C   UNL d   1      27.648 -15.574  -4.472  0.00  0.00     0.015 A 
ATOM      9  C   UNL d   1      28.710 -15.400  -5.385  0.00  0.00     0.030 A 
ATOM     10  C   UNL d   1      28.781 -14.289  -6.241  0.00  0.00     0.029 A 
ATOM     11  C   UNL d   1      27.738 -13.356  -6.143  0.00  0.00     0.030 A 
ATOM     12  C   UNL d   1      26.690 -13.505  -5.225  0.00  0.00     0.015 A 
BRANCH  10  13
ATOM     13  N   UNL d   1      29.834 -14.116  -7.129  0.00  0.00    -0.390 N 
ATOM     14  C   UNL d   1      31.026 -14.947  -7.016  0.00  0.00     0.149 C 
ATOM     15  C   UNL d   1      29.873 -12.942  -7.991  0.00  0.00     0.149 C 
ENDBRANCH  10  13
ENDBRANCH   6   7
ENDBRANCH   1   5
BRANCH   2  16
ATOM     16  C   UNL d   1      22.863 -16.924  -0.358  0.00  0.00     0.107 C 
BRANCH  16  17
ATOM     17  C   UNL d   1      22.335 -18.355  -0.126  0.00  0.00     0.046 C 
BRANCH  17  18
ATOM     18  C   UNL d   1      21.012 -18.693  -0.830  0.00  0.00     0.151 C 
BRANCH  18  19
ATOM     19  C   UNL d   1      20.077 -19.509   0.040  0.00  0.00    -0.030 A 
ATOM     20  C   UNL d   1      18.960 -20.149  -0.520  0.00  0.00     0.010 A 
ATOM     21  C   UNL d   1      18.052 -20.826   0.299  0.00  0.00     0.001 A 
ATOM     22  C   UNL d   1      18.300 -20.959   1.665  0.00  0.00     0.000 A 
ATOM     23  C   UNL d   1      19.429 -20.374   2.223  0.00  0.00     0.001 A 
ATOM     24  C   UNL d   1      20.288 -19.634   1.420  0.00  0.00     0.010 A 
ENDBRANCH  18  19
BRANCH  18  25
ATOM     25  O   UNL d   1      20.365 -17.499  -1.270  0.00  0.00    -0.391 OA
ATOM     26  H   UNL d   1      19.408 -17.656  -1.248  0.00  0.00     0.210 HD
ENDBRANCH  18  25
ENDBRANCH  17  18
ENDBRANCH  16  17
ENDBRANCH   2  16
TORSDOF 8
ENDMDL
MODEL 4
REMARK VINA RESULT:    -7.300      4.053     10.301
REMARK INTER + INTRA:         -10.353
REMARK INTER:                  -9.687
REMARK INTRA:                  -0.666
REMARK CONF_INDEPENDENT:        2.386
REMARK UNBOUND:                -0.666
REMARK  8 active torsions:
REMARK  status: ('A' for Active; 'I' for Inactive)
REMARK    1  A    between atoms: N_2  and  C_4 
REMARK    2  A    between atoms: C_7  and  C_8 
REMARK    3  A    between atoms: N_9  and  N_10 
REMARK       I    between atoms: N_10  and  C_11 
REMARK    4  A    between atoms: C_11  and  C_13 
REMARK    5  A    between atoms: C_13  and  C_14 
REMARK    6  A    between atoms: C_15  and  C_14 
REMARK    7  A    between atoms: C_15  and  C_17 
REMARK    8  A    between atoms: C_15  and  O_16 
ROOT
ATOM      1  N   UNL d   1      27.056 -15.272  -2.866  0.00  0.00    -0.247 N 
ATOM      2  C   UNL d   1      27.217 -15.222  -4.250  0.00  0.00     0.237 C 
ATOM      3  O   UNL d   1      26.364 -15.594  -5.063  0.00  0.00    -0.272 OA
ATOM      4  H   UNL d   1      27.778 -14.960  -2.225  0.00  0.00     0.192 HD
ENDROOT
BRANCH   1   5
ATOM      5  N   UNL d   1      25.878 -15.771  -2.385  0.00  0.00    -0.184 NA
ATOM      6  C   UNL d   1      25.890 -16.636  -1.421  0.00  0.00     0.150 C 
BRANCH   6   7
ATOM      7  C   UNL d   1      24.611 -17.225  -0.927  0.00  0.00    -0.017 A 
ATOM      8  C   UNL d   1      24.536 -18.559  -0.523  0.00  0.00     0.015 A 
ATOM      9  C   UNL d   1      23.287 -19.130  -0.199  0.00  0.00     0.030 A 
ATOM     10  C   UNL d   1      22.098 -18.382  -0.221  0.00  0.00     0.029 A 
ATOM     11  C   UNL d   1      22.215 -17.033  -0.582  0.00  0.00     0.030 A 
ATOM     12  C   UNL d   1      23.445 -16.458  -0.929  0.00  0.00     0.015 A 
BRANCH  10  13
ATOM     13  N   UNL d   1      20.870 -18.952   0.087  0.00  0.00    -0.390 N 
ATOM     14  C   UNL d   1      20.565 -19.326   1.462  0.00  0.00     0.149 C 
ATOM     15  C   UNL d   1      20.000 -19.426  -0.981  0.00  0.00     0.149 C 
ENDBRANCH  10  13
ENDBRANCH   6   7
ENDBRANCH   1   5
BRANCH   2  16
ATOM     16  C   UNL d   1      28.538 -14.640  -4.707  0.00  0.00     0.107 C 
BRANCH  16  17
ATOM     17  C   UNL d   1      29.602 -15.733  -4.937  0.00  0.00     0.046 C 
BRANCH  17  18
ATOM     18  C   UNL d   1      30.360 -15.648  -6.269  0.00  0.00     0.151 C 
BRANCH  18  19
ATOM     19  C   UNL d   1      30.793 -17.005  -6.786  0.00  0.00    -0.030 A 
ATOM     20  C   UNL d   1      30.406 -18.178  -6.119  0.00  0.00     0.010 A 
ATOM     21  C   UNL d   1      30.882 -19.421  -6.548  0.00  0.00     0.001 A 
ATOM     22  C   UNL d   1      31.660 -19.517  -7.701  0.00  0.00     0.000 A 
ATOM     23  C   UNL d   1      32.007 -18.369  -8.399  0.00  0.00     0.001 A 
ATOM     24  C   UNL d   1      31.600 -17.127  -7.926  0.00  0.00     0.010 A 
ENDBRANCH  18  19
BRANCH  18  25
ATOM     25  O   UNL d   1      29.570 -14.973  -7.248  0.00  0.00    -0.391 OA
ATOM     26  H   UNL d   1      29.480 -15.562  -8.013  0.00  0.00     0.210 HD
ENDBRANCH  18  25
ENDBRANCH  17  18
ENDBRANCH  16  17
ENDBRANCH   2  16
TORSDOF 8
ENDMDL
MODEL 5
REMARK VINA RESULT:    -7.078      6.746      8.963
REMARK INTER + INTRA:         -10.365
REMARK INTER:                  -9.465
REMARK INTRA:                  -0.900
REMARK CONF_INDEPENDENT:        2.386
REMARK UNBOUND:                -0.900
REMARK  8 active torsions:
REMARK  status: ('A' for Active; 'I' for Inactive)
REMARK    1  A    between atoms: N_2  and  C_4 
REMARK    2  A    between atoms: C_7  and  C_8 
REMARK    3  A    between atoms: N_9  and  N_10 
REMARK       I    between atoms: N_10  and  C_11 
REMARK    4  A    between atoms: C_11  and  C_13 
REMARK    5  A    between atoms: C_13  and  C_14 
REMARK    6  A    between atoms: C_15  and  C_14 
REMARK    7  A    between atoms: C_15  and  C_17 
REMARK    8  A    between atoms: C_15  and  O_16 
ROOT
ATOM      1  N   UNL d   1      27.978 -15.266   1.451  0.00  0.00    -0.247 N 
ATOM      2  C   UNL d   1      27.154 -14.790   0.433  0.00  0.00     0.237 C 
ATOM      3  O   UNL d   1      26.314 -13.896   0.578  0.00  0.00    -0.272 OA
ATOM      4  H   UNL d   1      28.658 -16.004   1.299  0.00  0.00     0.192 HD
ENDROOT
BRANCH   1   5
ATOM      5  N   UNL d   1      27.837 -14.708   2.691  0.00  0.00    -0.184 NA
ATOM      6  C   UNL d   1      28.878 -14.523   3.438  0.00  0.00     0.150 C 
BRANCH   6   7
ATOM      7  C   UNL d   1      28.724 -13.963   4.813  0.00  0.00    -0.017 A 
ATOM      8  C   UNL d   1      27.810 -12.942   5.080  0.00  0.00     0.015 A 
ATOM      9  C   UNL d   1      27.787 -12.330   6.352  0.00  0.00     0.030 A 
ATOM     10  C   UNL d   1      28.628 -12.749   7.395  0.00  0.00     0.029 A 
ATOM     11  C   UNL d   1      29.498 -13.811   7.109  0.00  0.00     0.030 A 
ATOM     12  C   UNL d   1      29.550 -14.412   5.844  0.00  0.00     0.015 A 
BRANCH  10  13
ATOM     13  N   UNL d   1      28.609 -12.136   8.641  0.00  0.00    -0.390 N 
ATOM     14  C   UNL d   1      29.284 -10.860   8.835  0.00  0.00     0.149 C 
ATOM     15  C   UNL d   1      28.159 -12.880   9.810  0.00  0.00     0.149 C 
ENDBRANCH  10  13
ENDBRANCH   6   7
ENDBRANCH   1   5
BRANCH   2  16
ATOM     16  C   UNL d   1      27.382 -15.443  -0.915  0.00  0.00     0.107 C 
BRANCH  16  17
ATOM     17  C   UNL d   1      27.093 -16.958  -0.878  0.00  0.00     0.046 C 
BRANCH  17  18
ATOM     18  C   UNL d   1      26.209 -17.433   0.284  0.00  0.00     0.151 C 
BRANCH  18  19
ATOM     19  C   UNL d   1      24.749 -17.560  -0.103  0.00  0.00    -0.030 A 
ATOM     20  C   UNL d   1      24.132 -18.820  -0.154  0.00  0.00     0.010 A 
ATOM     21  C   UNL d   1      22.812 -18.940  -0.598  0.00  0.00     0.001 A 
ATOM     22  C   UNL d   1      22.064 -17.801  -0.895  0.00  0.00     0.000 A 
ATOM     23  C   UNL d   1      22.647 -16.545  -0.800  0.00  0.00     0.001 A 
ATOM     24  C   UNL d   1      23.983 -16.433  -0.436  0.00  0.00     0.010 A 
ENDBRANCH  18  19
BRANCH  18  25
ATOM     25  O   UNL d   1      26.694 -18.672   0.803  0.00  0.00    -0.391 OA
ATOM     26  H   UNL d   1      27.557 -18.504   1.212  0.00  0.00     0.210 HD
ENDBRANCH  18  25
ENDBRANCH  17  18
ENDBRANCH  16  17
ENDBRANCH   2  16
TORSDOF 8
ENDMDL
MODEL 6
REMARK VINA RESULT:    -6.808      4.162      5.116
REMARK INTER + INTRA:         -10.459
REMARK INTER:                  -9.195
REMARK INTRA:                  -1.264
REMARK CONF_INDEPENDENT:        2.386
REMARK UNBOUND:                -1.264
REMARK  8 active torsions:
REMARK  status: ('A' for Active; 'I' for Inactive)
REMARK    1  A    between atoms: N_2  and  C_4 
REMARK    2  A    between atoms: C_7  and  C_8 
REMARK    3  A    between atoms: N_9  and  N_10 
REMARK       I    between atoms: N_10  and  C_11 
REMARK    4  A    between atoms: C_11  and  C_13 
REMARK    5  A    between atoms: C_13  and  C_14 
REMARK    6  A    between atoms: C_15  and  C_14 
REMARK    7  A    between atoms: C_15  and  C_17 
REMARK    8  A    between atoms: C_15  and  O_16 
ROOT
ATOM      1  N   UNL d   1      25.493 -16.991  -0.896  0.00  0.00    -0.247 N 
ATOM      2  C   UNL d   1      24.103 -17.097  -0.857  0.00  0.00     0.237 C 
ATOM      3  O   UNL d   1      23.348 -16.197  -0.476  0.00  0.00    -0.272 OA
ATOM      4  H   UNL d   1      26.086 -17.751  -1.213  0.00  0.00     0.192 HD
ENDROOT
BRANCH   1   5
ATOM      5  N   UNL d   1      26.048 -15.814  -0.479  0.00  0.00    -0.184 NA
ATOM      6  C   UNL d   1      26.837 -15.801   0.548  0.00  0.00     0.150 C 
BRANCH   6   7
ATOM      7  C   UNL d   1      27.405 -14.511   1.040  0.00  0.00    -0.017 A 
ATOM      8  C   UNL d   1      28.628 -14.468   1.710  0.00  0.00     0.015 A 
ATOM      9  C   UNL d   1      29.072 -13.261   2.293  0.00  0.00     0.030 A 
ATOM     10  C   UNL d   1      28.341 -12.067   2.180  0.00  0.00     0.029 A 
ATOM     11  C   UNL d   1      27.142 -12.134   1.458  0.00  0.00     0.030 A 
ATOM     12  C   UNL d   1      26.677 -13.330   0.894  0.00  0.00     0.015 A 
BRANCH  10  13
ATOM     13  N   UNL d   1      28.777 -10.885   2.765  0.00  0.00    -0.390 N 
ATOM     14  C   UNL d   1      27.807  -9.916   3.259  0.00  0.00     0.149 C 
ATOM     15  C   UNL d   1      30.173 -10.486   2.645  0.00  0.00     0.149 C 
ENDBRANCH  10  13
ENDBRANCH   6   7
ENDBRANCH   1   5
BRANCH   2  16
ATOM     16  C   UNL d   1      23.561 -18.422  -1.351  0.00  0.00     0.107 C 
BRANCH  16  17
ATOM     17  C   UNL d   1      22.497 -19.003  -0.397  0.00  0.00     0.046 C 
BRANCH  17  18
ATOM     18  C   UNL d   1      21.048 -18.921  -0.897  0.00  0.00     0.151 C 
BRANCH  18  19
ATOM     19  C   UNL d   1      20.073 -19.645   0.010  0.00  0.00    -0.030 A 
ATOM     20  C   UNL d   1      18.915 -20.238  -0.517  0.00  0.00     0.010 A 
ATOM     21  C   UNL d   1      17.975 -20.826   0.335  0.00  0.00     0.001 A 
ATOM     22  C   UNL d   1      18.226 -20.920   1.703  0.00  0.00     0.000 A 
ATOM     23  C   UNL d   1      19.392 -20.382   2.230  0.00  0.00     0.001 A 
ATOM     24  C   UNL d   1      20.288 -19.727   1.393  0.00  0.00     0.010 A 
ENDBRANCH  18  19
BRANCH  18  25
ATOM     25  O   UNL d   1      20.655 -17.559  -1.061  0.00  0.00    -0.391 OA
ATOM     26  H   UNL d   1      21.460 -17.028  -1.159  0.00  0.00     0.210 HD
ENDBRANCH  18  25
ENDBRANCH  17  18
ENDBRANCH  16  17
ENDBRANCH   2  16
TORSDOF 8
ENDMDL
MODEL 7
REMARK VINA RESULT:    -6.699      4.774      6.770
REMARK INTER + INTRA:         -10.285
REMARK INTER:                  -9.085
REMARK INTRA:                  -1.200
REMARK CONF_INDEPENDENT:        2.386
REMARK UNBOUND:                -1.200
REMARK  8 active torsions:
REMARK  status: ('A' for Active; 'I' for Inactive)
REMARK    1  A    between atoms: N_2  and  C_4 
REMARK    2  A    between atoms: C_7  and  C_8 
REMARK    3  A    between atoms: N_9  and  N_10 
REMARK       I    between atoms: N_10  and  C_11 
REMARK    4  A    between atoms: C_11  and  C_13 
REMARK    5  A    between atoms: C_13  and  C_14 
REMARK    6  A    between atoms: C_15  and  C_14 
REMARK    7  A    between atoms: C_15  and  C_17 
REMARK    8  A    between atoms: C_15  and  O_16 
ROOT
ATOM      1  N   UNL d   1      27.791 -14.665  -4.987  0.00  0.00    -0.247 N 
ATOM      2  C   UNL d   1      26.428 -14.897  -4.810  0.00  0.00     0.237 C 
ATOM      3  O   UNL d   1      25.823 -15.870  -5.270  0.00  0.00    -0.272 OA
ATOM      4  H   UNL d   1      28.258 -13.853  -4.596  0.00  0.00     0.192 HD
ENDROOT
BRANCH   1   5
ATOM      5  N   UNL d   1      28.496 -15.574  -5.725  0.00  0.00    -0.184 NA
ATOM      6  C   UNL d   1      29.433 -16.271  -5.167  0.00  0.00     0.150 C 
BRANCH   6   7
ATOM      7  C   UNL d   1      30.242 -17.228  -5.979  0.00  0.00    -0.017 A 
ATOM      8  C   UNL d   1      30.787 -16.852  -7.208  0.00  0.00     0.015 A 
ATOM      9  C   UNL d   1      31.421 -17.814  -8.024  0.00  0.00     0.030 A 
ATOM     10  C   UNL d   1      31.572 -19.150  -7.618  0.00  0.00     0.029 A 
ATOM     11  C   UNL d   1      31.058 -19.483  -6.357  0.00  0.00     0.030 A 
ATOM     12  C   UNL d   1      30.405 -18.544  -5.546  0.00  0.00     0.015 A 
BRANCH  10  13
ATOM     13  N   UNL d   1      32.186 -20.095  -8.429  0.00  0.00    -0.390 N 
ATOM     14  C   UNL d   1      31.772 -20.243  -9.818  0.00  0.00     0.149 C 
ATOM     15  C   UNL d   1      33.041 -21.116  -7.837  0.00  0.00     0.149 C 
ENDBRANCH  10  13
ENDBRANCH   6   7
ENDBRANCH   1   5
BRANCH   2  16
ATOM     16  C   UNL d   1      25.720 -13.857  -3.966  0.00  0.00     0.107 C 
BRANCH  16  17
ATOM     17  C   UNL d   1      24.832 -14.501  -2.882  0.00  0.00     0.046 C 
BRANCH  17  18
ATOM     18  C   UNL d   1      25.575 -15.343  -1.834  0.00  0.00     0.151 C 
BRANCH  18  19
ATOM     19  C   UNL d   1      24.702 -16.419  -1.219  0.00  0.00    -0.030 A 
ATOM     20  C   UNL d   1      23.308 -16.259  -1.160  0.00  0.00     0.010 A 
ATOM     21  C   UNL d   1      22.517 -17.212  -0.513  0.00  0.00     0.001 A 
ATOM     22  C   UNL d   1      23.091 -18.379  -0.011  0.00  0.00     0.000 A 
ATOM     23  C   UNL d   1      24.462 -18.574  -0.109  0.00  0.00     0.001 A 
ATOM     24  C   UNL d   1      25.257 -17.588  -0.681  0.00  0.00     0.010 A 
ENDBRANCH  18  19
BRANCH  18  25
ATOM     25  O   UNL d   1      26.749 -15.921  -2.403  0.00  0.00    -0.391 OA
ATOM     26  H   UNL d   1      26.492 -16.364  -3.226  0.00  0.00     0.210 HD
ENDBRANCH  18  25
ENDBRANCH  17  18
ENDBRANCH  16  17
ENDBRANCH   2  16
TORSDOF 8
ENDMDL
MODEL 8
REMARK VINA RESULT:    -6.696      4.702      6.677
REMARK INTER + INTRA:         -10.261
REMARK INTER:                  -9.082
REMARK INTRA:                  -1.178
REMARK CONF_INDEPENDENT:        2.386
REMARK UNBOUND:                -1.178
REMARK  8 active torsions:
REMARK  status: ('A' for Active; 'I' for Inactive)
REMARK    1  A    between atoms: N_2  and  C_4 
REMARK    2  A    between atoms: C_7  and  C_8 
REMARK    3  A    between atoms: N_9  and  N_10 
REMARK       I    between atoms: N_10  and  C_11 
REMARK    4  A    between atoms: C_11  and  C_13 
REMARK    5  A    between atoms: C_13  and  C_14 
REMARK    6  A    between atoms: C_15  and  C_14 
REMARK    7  A    between atoms: C_15  and  C_17 
REMARK    8  A    between atoms: C_15  and  O_16 
ROOT
ATOM      1  N   UNL d   1      27.676 -14.619  -5.114  0.00  0.00    -0.247 N 
ATOM      2  C   UNL d   1      26.336 -14.913  -4.866  0.00  0.00     0.237 C 
ATOM      3  O   UNL d   1      25.771 -15.949  -5.233  0.00  0.00    -0.272 OA
ATOM      4  H   UNL d   1      28.109 -13.757  -4.800  0.00  0.00     0.192 HD
ENDROOT
BRANCH   1   5
ATOM      5  N   UNL d   1      28.404 -15.538  -5.817  0.00  0.00    -0.184 NA
ATOM      6  C   UNL d   1      29.511 -15.995  -5.326  0.00  0.00     0.150 C 
BRANCH   6   7
ATOM      7  C   UNL d   1      30.338 -16.959  -6.111  0.00  0.00    -0.017 A 
ATOM      8  C   UNL d   1      31.005 -16.562  -7.271  0.00  0.00     0.015 A 
ATOM      9  C   UNL d   1      31.658 -17.521  -8.074  0.00  0.00     0.030 A 
ATOM     10  C   UNL d   1      31.706 -18.880  -7.720  0.00  0.00     0.029 A 
ATOM     11  C   UNL d   1      31.070 -19.237  -6.523  0.00  0.00     0.030 A 
ATOM     12  C   UNL d   1      30.397 -18.299  -5.728  0.00  0.00     0.015 A 
BRANCH  10  13
ATOM     13  N   UNL d   1      32.340 -19.822  -8.519  0.00  0.00    -0.390 N 
ATOM     14  C   UNL d   1      33.788 -19.976  -8.456  0.00  0.00     0.149 C 
ATOM     15  C   UNL d   1      31.611 -20.461  -9.607  0.00  0.00     0.149 C 
ENDBRANCH  10  13
ENDBRANCH   6   7
ENDBRANCH   1   5
BRANCH   2  16
ATOM     16  C   UNL d   1      25.600 -13.857  -4.067  0.00  0.00     0.107 C 
BRANCH  16  17
ATOM     17  C   UNL d   1      24.767 -14.474  -2.925  0.00  0.00     0.046 C 
BRANCH  17  18
ATOM     18  C   UNL d   1      25.565 -15.261  -1.875  0.00  0.00     0.151 C 
BRANCH  18  19
ATOM     19  C   UNL d   1      24.756 -16.368  -1.230  0.00  0.00    -0.030 A 
ATOM     20  C   UNL d   1      25.396 -17.479  -0.658  0.00  0.00     0.010 A 
ATOM     21  C   UNL d   1      24.643 -18.539  -0.145  0.00  0.00     0.001 A 
ATOM     22  C   UNL d   1      23.252 -18.458  -0.104  0.00  0.00     0.000 A 
ATOM     23  C   UNL d   1      22.608 -17.342  -0.620  0.00  0.00     0.001 A 
ATOM     24  C   UNL d   1      23.355 -16.325  -1.202  0.00  0.00     0.010 A 
ENDBRANCH  18  19
BRANCH  18  25
ATOM     25  O   UNL d   1      26.758 -15.791  -2.453  0.00  0.00    -0.391 OA
ATOM     26  H   UNL d   1      26.501 -16.345  -3.206  0.00  0.00     0.210 HD
ENDBRANCH  18  25
ENDBRANCH  17  18
ENDBRANCH  16  17
ENDBRANCH   2  16
TORSDOF 8
ENDMDL
MODEL 9
REMARK VINA RESULT:    -6.516      5.045      9.346
REMARK INTER + INTRA:         -10.538
REMARK INTER:                  -8.902
REMARK INTRA:                  -1.635
REMARK CONF_INDEPENDENT:        2.386
REMARK UNBOUND:                -1.635
REMARK  8 active torsions:
REMARK  status: ('A' for Active; 'I' for Inactive)
REMARK    1  A    between atoms: N_2  and  C_4 
REMARK    2  A    between atoms: C_7  and  C_8 
REMARK    3  A    between atoms: N_9  and  N_10 
REMARK       I    between atoms: N_10  and  C_11 
REMARK    4  A    between atoms: C_11  and  C_13 
REMARK    5  A    between atoms: C_13  and  C_14 
REMARK    6  A    between atoms: C_15  and  C_14 
REMARK    7  A    between atoms: C_15  and  C_17 
REMARK    8  A    between atoms: C_15  and  O_16 
ROOT
ATOM      1  N   UNL d   1      27.993 -15.488   0.402  0.00  0.00    -0.247 N 
ATOM      2  C   UNL d   1      27.989 -14.155  -0.007  0.00  0.00     0.237 C 
ATOM      3  O   UNL d   1      26.971 -13.525  -0.314  0.00  0.00    -0.272 OA
ATOM      4  H   UNL d   1      28.848 -15.977   0.646  0.00  0.00     0.192 HD
ENDROOT
BRANCH   1   5
ATOM      5  N   UNL d   1      26.790 -16.135   0.460  0.00  0.00    -0.184 NA
ATOM      6  C   UNL d   1      26.232 -16.557  -0.629  0.00  0.00     0.150 C 
BRANCH   6   7
ATOM      7  C   UNL d   1      24.894 -17.217  -0.578  0.00  0.00    -0.017 A 
ATOM      8  C   UNL d   1      23.718 -16.480  -0.717  0.00  0.00     0.015 A 
ATOM      9  C   UNL d   1      22.466 -17.102  -0.519  0.00  0.00     0.030 A 
ATOM     10  C   UNL d   1      22.353 -18.472  -0.231  0.00  0.00     0.029 A 
ATOM     11  C   UNL d   1      23.552 -19.194  -0.148  0.00  0.00     0.030 A 
ATOM     12  C   UNL d   1      24.803 -18.585  -0.319  0.00  0.00     0.015 A 
BRANCH  10  13
ATOM     13  N   UNL d   1      21.120 -19.077  -0.025  0.00  0.00    -0.390 N 
ATOM     14  C   UNL d   1      20.182 -19.213  -1.132  0.00  0.00     0.149 C 
ATOM     15  C   UNL d   1      20.651 -19.329   1.330  0.00  0.00     0.149 C 
ENDBRANCH  10  13
ENDBRANCH   6   7
ENDBRANCH   1   5
BRANCH   2  16
ATOM     16  C   UNL d   1      29.355 -13.501  -0.028  0.00  0.00     0.107 C 
BRANCH  16  17
ATOM     17  C   UNL d   1      29.752 -12.952   1.358  0.00  0.00     0.046 C 
BRANCH  17  18
ATOM     18  C   UNL d   1      30.420 -13.963   2.302  0.00  0.00     0.151 C 
BRANCH  18  19
ATOM     19  C   UNL d   1      29.636 -14.177   3.581  0.00  0.00    -0.030 A 
ATOM     20  C   UNL d   1      28.240 -14.322   3.546  0.00  0.00     0.010 A 
ATOM     21  C   UNL d   1      27.513 -14.430   4.735  0.00  0.00     0.001 A 
ATOM     22  C   UNL d   1      28.175 -14.497   5.961  0.00  0.00     0.000 A 
ATOM     23  C   UNL d   1      29.559 -14.406   6.006  0.00  0.00     0.001 A 
ATOM     24  C   UNL d   1      30.274 -14.218   4.829  0.00  0.00     0.010 A 
ENDBRANCH  18  19
BRANCH  18  25
ATOM     25  O   UNL d   1      30.626 -15.206   1.633  0.00  0.00    -0.391 OA
ATOM     26  H   UNL d   1      29.998 -15.847   1.999  0.00  0.00     0.210 HD
ENDBRANCH  18  25
ENDBRANCH  17  18
ENDBRANCH  16  17
ENDBRANCH   2  16
TORSDOF 8
ENDMDL
