MODEL 1
REMARK VINA RESULT:    -7.628      0.000      0.000
REMARK INTER + INTRA:         -10.548
REMARK INTER:                  -9.418
REMARK INTRA:                  -1.130
REMARK CONF_INDEPENDENT:        1.790
REMARK UNBOUND:                -1.130
REMARK  6 active torsions:
REMARK  status: ('A' for Active; 'I' for Inactive)
REMARK    1  A    between atoms: C_5  and  O_6 
REMARK    2  A    between atoms: C_7  and  C_8 
REMARK       I    between atoms: C_8  and  N_10 
REMARK    3  A    between atoms: N_10  and  C_11 
REMARK    4  A    between atoms: C_12  and  C_11 
REMARK    5  A    between atoms: C_12  and  C_14 
REMARK    6  A    between atoms: C_12  and  O_13 
ROOT
ATOM      1  C   UNL d   1      24.346 -17.603  -0.638  0.00  0.00     0.254 C 
ATOM      2  O   UNL d   1      24.427 -18.136   0.466  0.00  0.00    -0.268 OA
ATOM      3  N   UNL d   1      23.506 -18.118  -1.587  0.00  0.00    -0.354 N 
ATOM      4  H   UNL d   1      23.890 -17.979  -2.500  0.00  0.00     0.162 HD
ENDROOT
BRANCH   3   5
ATOM      5  C   UNL d   1      22.682 -19.314  -1.431  0.00  0.00     0.155 C 
BRANCH   5   6
ATOM      6  C   UNL d   1      21.167 -19.012  -1.232  0.00  0.00     0.140 C 
BRANCH   6   7
ATOM      7  C   UNL d   1      20.473 -19.853  -0.129  0.00  0.00     0.016 C 
ATOM      8  C   UNL d   1      20.693 -19.325   1.316  0.00  0.00     0.007 C 
ATOM      9  C   UNL d   1      19.765 -19.990   2.334  0.00  0.00     0.000 C 
ATOM     10  C   UNL d   1      18.311 -20.104   1.875  0.00  0.00     0.000 C 
ATOM     11  C   UNL d   1      18.206 -20.811   0.537  0.00  0.00     0.000 C 
ATOM     12  C   UNL d   1      18.992 -20.075  -0.520  0.00  0.00     0.007 C 
ENDBRANCH   6   7
BRANCH   6  13
ATOM     13  O   UNL d   1      20.998 -17.621  -0.895  0.00  0.00    -0.394 OA
ATOM     14  H   UNL d   1      20.226 -17.269  -1.373  0.00  0.00     0.210 HD
ENDBRANCH   6  13
ENDBRANCH   5   6
ENDBRANCH   3   5
BRANCH   1  15
ATOM     15  C   UNL d   1      25.157 -16.376  -1.069  0.00  0.00     0.065 A 
ATOM     16  C   UNL d   1      26.325 -16.045  -0.382  0.00  0.00     0.081 A 
ATOM     17  C   UNL d   1      27.039 -14.877  -0.681  0.00  0.00     0.038 A 
ATOM     18  C   UNL d   1      26.630 -14.031  -1.714  0.00  0.00     0.009 A 
ATOM     19  C   UNL d   1      25.507 -14.349  -2.466  0.00  0.00    -0.061 A 
ATOM     20  C   UNL d   1      25.086 -13.488  -3.628  0.00  0.00     0.048 C 
ATOM     21  C   UNL d   1      24.776 -15.504  -2.120  0.00  0.00     0.026 A 
BRANCH  16  22
ATOM     22  O   UNL d   1      26.799 -16.866   0.600  0.00  0.00    -0.360 OA
ATOM     23  H   UNL d   1      26.142 -16.972   1.302  0.00  0.00     0.217 HD
ENDBRANCH  16  22
ENDBRANCH   1  15
TORSDOF 6
ENDMDL
MODEL 2
REMARK VINA RESULT:    -7.367      4.712      7.179
REMARK INTER + INTRA:         -10.293
REMARK INTER:                  -9.157
REMARK INTRA:                  -1.135
REMARK CONF_INDEPENDENT:        1.790
REMARK UNBOUND:                -1.135
REMARK  6 active torsions:
REMARK  status: ('A' for Active; 'I' for Inactive)
REMARK    1  A    between atoms: C_5  and  O_6 
REMARK    2  A    between atoms: C_7  and  C_8 
REMARK       I    between atoms: C_8  and  N_10 
REMARK    3  A    between atoms: N_10  and  C_11 
REMARK    4  A    between atoms: C_12  and  C_11 
REMARK    5  A    between atoms: C_12  and  C_14 
REMARK    6  A    between atoms: C_12  and  O_13 
ROOT
ATOM      1  C   UNL d   1      27.388 -13.701   2.647  0.00  0.00     0.254 C 
ATOM      2  O   UNL d   1      26.325 -13.270   2.206  0.00  0.00    -0.268 OA
ATOM      3  N   UNL d   1      28.139 -14.565   1.899  0.00  0.00    -0.354 N 
ATOM      4  H   UNL d   1      28.620 -15.210   2.494  0.00  0.00     0.162 HD
ENDROOT
BRANCH   3   5
ATOM      5  C   UNL d   1      27.776 -15.082   0.582  0.00  0.00     0.155 C 
BRANCH   5   6
ATOM      6  C   UNL d   1      27.651 -16.634   0.527  0.00  0.00     0.140 C 
BRANCH   6   7
ATOM      7  C   UNL d   1      26.419 -17.162  -0.253  0.00  0.00     0.016 C 
ATOM      8  C   UNL d   1      25.563 -18.200   0.525  0.00  0.00     0.007 C 
ATOM      9  C   UNL d   1      24.214 -18.470  -0.144  0.00  0.00     0.000 C 
ATOM     10  C   UNL d   1      23.483 -17.211  -0.610  0.00  0.00     0.000 C 
ATOM     11  C   UNL d   1      24.355 -16.370  -1.522  0.00  0.00     0.000 C 
ATOM     12  C   UNL d   1      25.626 -15.960  -0.819  0.00  0.00     0.007 C 
ENDBRANCH   6   7
BRANCH   6  13
ATOM     13  O   UNL d   1      28.831 -17.186  -0.088  0.00  0.00    -0.394 OA
ATOM     14  H   UNL d   1      29.409 -17.553   0.605  0.00  0.00     0.210 HD
ENDBRANCH   6  13
ENDBRANCH   5   6
ENDBRANCH   3   5
BRANCH   1  15
ATOM     15  C   UNL d   1      27.954 -13.360   4.030  0.00  0.00     0.065 A 
ATOM     16  C   UNL d   1      28.258 -14.388   4.923  0.00  0.00     0.081 A 
ATOM     17  C   UNL d   1      28.681 -14.113   6.230  0.00  0.00     0.038 A 
ATOM     18  C   UNL d   1      28.861 -12.799   6.666  0.00  0.00     0.009 A 
ATOM     19  C   UNL d   1      28.629 -11.743   5.794  0.00  0.00    -0.061 A 
ATOM     20  C   UNL d   1      28.881 -10.321   6.220  0.00  0.00     0.048 C 
ATOM     21  C   UNL d   1      28.159 -12.037   4.498  0.00  0.00     0.026 A 
BRANCH  16  22
ATOM     22  O   UNL d   1      28.151 -15.690   4.531  0.00  0.00    -0.360 OA
ATOM     23  H   UNL d   1      28.905 -15.945   3.982  0.00  0.00     0.217 HD
ENDBRANCH  16  22
ENDBRANCH   1  15
TORSDOF 6
ENDMDL
MODEL 3
REMARK VINA RESULT:    -7.149      1.518      2.087
REMARK INTER + INTRA:         -10.066
REMARK INTER:                  -8.939
REMARK INTRA:                  -1.127
REMARK CONF_INDEPENDENT:        1.790
REMARK UNBOUND:                -1.127
REMARK  6 active torsions:
REMARK  status: ('A' for Active; 'I' for Inactive)
REMARK    1  A    between atoms: C_5  and  O_6 
REMARK    2  A    between atoms: C_7  and  C_8 
REMARK       I    between atoms: C_8  and  N_10 
REMARK    3  A    between atoms: N_10  and  C_11 
REMARK    4  A    between atoms: C_12  and  C_11 
REMARK    5  A    between atoms: C_12  and  C_14 
REMARK    6  A    between atoms: C_12  and  O_13 
ROOT
ATOM      1  C   UNL d   1      24.603 -17.578  -0.138  0.00  0.00     0.254 C 
ATOM      2  O   UNL d   1      24.408 -18.289   0.845  0.00  0.00    -0.268 OA
ATOM      3  N   UNL d   1      23.542 -17.058  -0.827  0.00  0.00    -0.354 N 
ATOM      4  H   UNL d   1      23.764 -16.985  -1.800  0.00  0.00     0.162 HD
ENDROOT
BRANCH   3   5
ATOM      5  C   UNL d   1      22.133 -17.298  -0.523  0.00  0.00     0.155 C 
BRANCH   5   6
ATOM      6  C   UNL d   1      21.742 -18.805  -0.504  0.00  0.00     0.140 C 
BRANCH   6   7
ATOM      7  C   UNL d   1      20.339 -19.108   0.084  0.00  0.00     0.016 C 
ATOM      8  C   UNL d   1      19.412 -19.927  -0.857  0.00  0.00     0.007 C 
ATOM      9  C   UNL d   1      18.168 -20.456  -0.142  0.00  0.00     0.000 C 
ATOM     10  C   UNL d   1      18.449 -21.074   1.228  0.00  0.00     0.000 C 
ATOM     11  C   UNL d   1      19.193 -20.108   2.129  0.00  0.00     0.000 C 
ATOM     12  C   UNL d   1      20.504 -19.697   1.505  0.00  0.00     0.007 C 
ENDBRANCH   6   7
BRANCH   6  13
ATOM     13  O   UNL d   1      21.777 -19.324  -1.848  0.00  0.00    -0.394 OA
ATOM     14  H   UNL d   1      22.402 -18.797  -2.376  0.00  0.00     0.210 HD
ENDBRANCH   6  13
ENDBRANCH   5   6
ENDBRANCH   3   5
BRANCH   1  15
ATOM     15  C   UNL d   1      25.988 -17.233  -0.697  0.00  0.00     0.065 A 
ATOM     16  C   UNL d   1      27.123 -17.818  -0.136  0.00  0.00     0.081 A 
ATOM     17  C   UNL d   1      28.410 -17.452  -0.552  0.00  0.00     0.038 A 
ATOM     18  C   UNL d   1      28.597 -16.525  -1.579  0.00  0.00     0.009 A 
ATOM     19  C   UNL d   1      27.495 -15.960  -2.210  0.00  0.00    -0.061 A 
ATOM     20  C   UNL d   1      27.670 -15.010  -3.365  0.00  0.00     0.048 C 
ATOM     21  C   UNL d   1      26.209 -16.306  -1.746  0.00  0.00     0.026 A 
BRANCH  16  22
ATOM     22  O   UNL d   1      26.996 -18.769   0.834  0.00  0.00    -0.360 OA
ATOM     23  H   UNL d   1      26.436 -18.449   1.555  0.00  0.00     0.217 HD
ENDBRANCH  16  22
ENDBRANCH   1  15
TORSDOF 6
ENDMDL
MODEL 4
REMARK VINA RESULT:    -6.557      3.391      8.138
REMARK INTER + INTRA:          -9.935
REMARK INTER:                  -8.347
REMARK INTRA:                  -1.588
REMARK CONF_INDEPENDENT:        1.790
REMARK UNBOUND:                -1.588
REMARK  6 active torsions:
REMARK  status: ('A' for Active; 'I' for Inactive)
REMARK    1  A    between atoms: C_5  and  O_6 
REMARK    2  A    between atoms: C_7  and  C_8 
REMARK       I    between atoms: C_8  and  N_10 
REMARK    3  A    between atoms: N_10  and  C_11 
REMARK    4  A    between atoms: C_12  and  C_11 
REMARK    5  A    between atoms: C_12  and  C_14 
REMARK    6  A    between atoms: C_12  and  O_13 
ROOT
ATOM      1  C   UNL d   1      24.792 -15.072  -2.279  0.00  0.00     0.254 C 
ATOM      2  O   UNL d   1      23.918 -14.450  -2.877  0.00  0.00    -0.268 OA
ATOM      3  N   UNL d   1      26.106 -14.721  -2.429  0.00  0.00    -0.354 N 
ATOM      4  H   UNL d   1      26.690 -15.531  -2.367  0.00  0.00     0.162 HD
ENDROOT
BRANCH   3   5
ATOM      5  C   UNL d   1      26.605 -13.654  -3.293  0.00  0.00     0.155 C 
BRANCH   5   6
ATOM      6  C   UNL d   1      26.413 -13.935  -4.813  0.00  0.00     0.140 C 
BRANCH   6   7
ATOM      7  C   UNL d   1      27.524 -14.804  -5.461  0.00  0.00     0.016 C 
ATOM      8  C   UNL d   1      28.399 -14.055  -6.504  0.00  0.00     0.007 C 
ATOM      9  C   UNL d   1      29.650 -14.841  -6.895  0.00  0.00     0.000 C 
ATOM     10  C   UNL d   1      30.397 -15.458  -5.712  0.00  0.00     0.000 C 
ATOM     11  C   UNL d   1      29.481 -16.327  -4.872  0.00  0.00     0.000 C 
ATOM     12  C   UNL d   1      28.317 -15.523  -4.344  0.00  0.00     0.007 C 
ENDBRANCH   6   7
BRANCH   6  13
ATOM     13  O   UNL d   1      25.155 -14.605  -5.020  0.00  0.00    -0.394 OA
ATOM     14  H   UNL d   1      24.432 -13.958  -4.938  0.00  0.00     0.210 HD
ENDBRANCH   6  13
ENDBRANCH   5   6
ENDBRANCH   3   5
BRANCH   1  15
ATOM     15  C   UNL d   1      24.529 -16.274  -1.364  0.00  0.00     0.065 A 
ATOM     16  C   UNL d   1      25.570 -16.795  -0.595  0.00  0.00     0.081 A 
ATOM     17  C   UNL d   1      25.394 -17.953   0.175  0.00  0.00     0.038 A 
ATOM     18  C   UNL d   1      24.155 -18.593   0.238  0.00  0.00     0.009 A 
ATOM     19  C   UNL d   1      23.073 -18.077  -0.464  0.00  0.00    -0.061 A 
ATOM     20  C   UNL d   1      21.711 -18.711  -0.358  0.00  0.00     0.048 C 
ATOM     21  C   UNL d   1      23.280 -16.939  -1.270  0.00  0.00     0.026 A 
BRANCH  16  22
ATOM     22  O   UNL d   1      26.786 -16.177  -0.577  0.00  0.00    -0.360 OA
ATOM     23  H   UNL d   1      27.240 -16.342   0.260  0.00  0.00     0.217 HD
ENDBRANCH  16  22
ENDBRANCH   1  15
TORSDOF 6
ENDMDL
MODEL 5
REMARK VINA RESULT:    -6.438      4.121      8.446
REMARK INTER + INTRA:         -10.167
REMARK INTER:                  -8.228
REMARK INTRA:                  -1.939
REMARK CONF_INDEPENDENT:        1.790
REMARK UNBOUND:                -1.939
REMARK  6 active torsions:
REMARK  status: ('A' for Active; 'I' for Inactive)
REMARK    1  A    between atoms: C_5  and  O_6 
REMARK    2  A    between atoms: C_7  and  C_8 
REMARK       I    between atoms: C_8  and  N_10 
REMARK    3  A    between atoms: N_10  and  C_11 
REMARK    4  A    between atoms: C_12  and  C_11 
REMARK    5  A    between atoms: C_12  and  C_14 
REMARK    6  A    between atoms: C_12  and  O_13 
ROOT
ATOM      1  C   UNL d   1      25.634 -15.172  -3.037  0.00  0.00     0.254 C 
ATOM      2  O   UNL d   1      24.816 -14.825  -3.885  0.00  0.00    -0.268 OA
ATOM      3  N   UNL d   1      26.903 -14.661  -3.061  0.00  0.00    -0.354 N 
ATOM      4  H   UNL d   1      27.557 -15.342  -2.732  0.00  0.00     0.162 HD
ENDROOT
BRANCH   3   5
ATOM      5  C   UNL d   1      27.422 -13.726  -4.057  0.00  0.00     0.155 C 
BRANCH   5   6
ATOM      6  C   UNL d   1      27.828 -14.401  -5.401  0.00  0.00     0.140 C 
BRANCH   6   7
ATOM      7  C   UNL d   1      29.201 -15.123  -5.381  0.00  0.00     0.016 C 
ATOM      8  C   UNL d   1      29.280 -16.325  -4.399  0.00  0.00     0.007 C 
ATOM      9  C   UNL d   1      30.526 -17.183  -4.619  0.00  0.00     0.000 C 
ATOM     10  C   UNL d   1      30.821 -17.495  -6.087  0.00  0.00     0.000 C 
ATOM     11  C   UNL d   1      30.912 -16.228  -6.914  0.00  0.00     0.000 C 
ATOM     12  C   UNL d   1      29.625 -15.443  -6.834  0.00  0.00     0.007 C 
ENDBRANCH   6   7
BRANCH   6  13
ATOM     13  O   UNL d   1      26.828 -15.370  -5.770  0.00  0.00    -0.394 OA
ATOM     14  H   UNL d   1      25.956 -15.057  -5.470  0.00  0.00     0.210 HD
ENDBRANCH   6  13
ENDBRANCH   5   6
ENDBRANCH   3   5
BRANCH   1  15
ATOM     15  C   UNL d   1      25.353 -16.190  -1.927  0.00  0.00     0.065 A 
ATOM     16  C   UNL d   1      26.419 -16.799  -1.263  0.00  0.00     0.081 A 
ATOM     17  C   UNL d   1      26.203 -17.807  -0.314  0.00  0.00     0.038 A 
ATOM     18  C   UNL d   1      24.910 -18.200   0.035  0.00  0.00     0.009 A 
ATOM     19  C   UNL d   1      23.815 -17.581  -0.555  0.00  0.00    -0.061 A 
ATOM     20  C   UNL d   1      22.411 -17.940  -0.145  0.00  0.00     0.048 C 
ATOM     21  C   UNL d   1      24.052 -16.602  -1.541  0.00  0.00     0.026 A 
BRANCH  16  22
ATOM     22  O   UNL d   1      27.700 -16.414  -1.527  0.00  0.00    -0.360 OA
ATOM     23  H   UNL d   1      28.249 -16.487  -0.734  0.00  0.00     0.217 HD
ENDBRANCH  16  22
ENDBRANCH   1  15
TORSDOF 6
ENDMDL
MODEL 6
REMARK VINA RESULT:    -6.065      4.458      6.992
REMARK INTER + INTRA:         -10.177
REMARK INTER:                  -7.855
REMARK INTRA:                  -2.323
REMARK CONF_INDEPENDENT:        1.790
REMARK UNBOUND:                -2.323
REMARK  6 active torsions:
REMARK  status: ('A' for Active; 'I' for Inactive)
REMARK    1  A    between atoms: C_5  and  O_6 
REMARK    2  A    between atoms: C_7  and  C_8 
REMARK       I    between atoms: C_8  and  N_10 
REMARK    3  A    between atoms: N_10  and  C_11 
REMARK    4  A    between atoms: C_12  and  C_11 
REMARK    5  A    between atoms: C_12  and  C_14 
REMARK    6  A    between atoms: C_12  and  O_13 
ROOT
ATOM      1  C   UNL d   1      27.538 -14.137  -5.734  0.00  0.00     0.254 C 
ATOM      2  O   UNL d   1      27.780 -15.201  -6.298  0.00  0.00    -0.268 OA
ATOM      3  N   UNL d   1      27.181 -14.129  -4.413  0.00  0.00    -0.354 N 
ATOM      4  H   UNL d   1      26.540 -13.382  -4.232  0.00  0.00     0.162 HD
ENDROOT
BRANCH   3   5
ATOM      5  C   UNL d   1      27.015 -15.312  -3.573  0.00  0.00     0.155 C 
BRANCH   5   6
ATOM      6  C   UNL d   1      25.530 -15.642  -3.237  0.00  0.00     0.140 C 
BRANCH   6   7
ATOM      7  C   UNL d   1      25.272 -16.073  -1.769  0.00  0.00     0.016 C 
ATOM      8  C   UNL d   1      24.030 -16.987  -1.577  0.00  0.00     0.007 C 
ATOM      9  C   UNL d   1      23.980 -17.626  -0.189  0.00  0.00     0.000 C 
ATOM     10  C   UNL d   1      25.316 -18.199   0.286  0.00  0.00     0.000 C 
ATOM     11  C   UNL d   1      26.415 -17.156   0.235  0.00  0.00     0.000 C 
ATOM     12  C   UNL d   1      26.586 -16.626  -1.168  0.00  0.00     0.007 C 
ENDBRANCH   6   7
BRANCH   6  13
ATOM     13  O   UNL d   1      24.712 -14.487  -3.507  0.00  0.00    -0.394 OA
ATOM     14  H   UNL d   1      25.168 -13.918  -4.152  0.00  0.00     0.210 HD
ENDBRANCH   6  13
ENDBRANCH   5   6
ENDBRANCH   3   5
BRANCH   1  15
ATOM     15  C   UNL d   1      27.578 -12.765  -6.416  0.00  0.00     0.065 A 
ATOM     16  C   UNL d   1      26.615 -11.808  -6.097  0.00  0.00     0.081 A 
ATOM     17  C   UNL d   1      26.559 -10.581  -6.771  0.00  0.00     0.038 A 
ATOM     18  C   UNL d   1      27.498 -10.256  -7.752  0.00  0.00     0.009 A 
ATOM     19  C   UNL d   1      28.512 -11.153  -8.062  0.00  0.00    -0.061 A 
ATOM     20  C   UNL d   1      29.576 -10.797  -9.067  0.00  0.00     0.048 C 
ATOM     21  C   UNL d   1      28.526 -12.401  -7.406  0.00  0.00     0.026 A 
BRANCH  16  22
ATOM     22  O   UNL d   1      25.706 -12.053  -5.109  0.00  0.00    -0.360 OA
ATOM     23  H   UNL d   1      24.818 -11.796  -5.391  0.00  0.00     0.217 HD
ENDBRANCH  16  22
ENDBRANCH   1  15
TORSDOF 6
ENDMDL
MODEL 7
REMARK VINA RESULT:    -5.720      5.982      9.215
REMARK INTER + INTRA:          -9.473
REMARK INTER:                  -7.509
REMARK INTRA:                  -1.964
REMARK CONF_INDEPENDENT:        1.790
REMARK UNBOUND:                -1.964
REMARK  6 active torsions:
REMARK  status: ('A' for Active; 'I' for Inactive)
REMARK    1  A    between atoms: C_5  and  O_6 
REMARK    2  A    between atoms: C_7  and  C_8 
REMARK       I    between atoms: C_8  and  N_10 
REMARK    3  A    between atoms: N_10  and  C_11 
REMARK    4  A    between atoms: C_12  and  C_11 
REMARK    5  A    between atoms: C_12  and  C_14 
REMARK    6  A    between atoms: C_12  and  O_13 
ROOT
ATOM      1  C   UNL d   1      27.311 -14.080   1.924  0.00  0.00     0.254 C 
ATOM      2  O   UNL d   1      26.854 -12.941   1.867  0.00  0.00    -0.268 OA
ATOM      3  N   UNL d   1      27.735 -14.588   3.121  0.00  0.00    -0.354 N 
ATOM      4  H   UNL d   1      28.508 -15.207   2.980  0.00  0.00     0.162 HD
ENDROOT
BRANCH   3   5
ATOM      5  C   UNL d   1      27.732 -13.871   4.395  0.00  0.00     0.155 C 
BRANCH   5   6
ATOM      6  C   UNL d   1      29.114 -13.861   5.113  0.00  0.00     0.140 C 
BRANCH   6   7
ATOM      7  C   UNL d   1      29.045 -13.884   6.663  0.00  0.00     0.016 C 
ATOM      8  C   UNL d   1      30.412 -14.116   7.364  0.00  0.00     0.007 C 
ATOM      9  C   UNL d   1      30.357 -13.839   8.867  0.00  0.00     0.000 C 
ATOM     10  C   UNL d   1      29.622 -12.551   9.239  0.00  0.00     0.000 C 
ATOM     11  C   UNL d   1      28.223 -12.524   8.656  0.00  0.00     0.000 C 
ATOM     12  C   UNL d   1      28.268 -12.638   7.151  0.00  0.00     0.007 C 
ENDBRANCH   6   7
BRANCH   6  13
ATOM     13  O   UNL d   1      29.881 -15.006   4.691  0.00  0.00    -0.394 OA
ATOM     14  H   UNL d   1      29.681 -15.195   3.757  0.00  0.00     0.210 HD
ENDBRANCH   6  13
ENDBRANCH   5   6
ENDBRANCH   3   5
BRANCH   1  15
ATOM     15  C   UNL d   1      27.480 -15.007   0.715  0.00  0.00     0.065 A 
ATOM     16  C   UNL d   1      28.738 -15.531   0.419  0.00  0.00     0.081 A 
ATOM     17  C   UNL d   1      28.952 -16.300  -0.733  0.00  0.00     0.038 A 
ATOM     18  C   UNL d   1      27.900 -16.609  -1.596  0.00  0.00     0.009 A 
ATOM     19  C   UNL d   1      26.616 -16.161  -1.311  0.00  0.00    -0.061 A 
ATOM     20  C   UNL d   1      25.453 -16.539  -2.190  0.00  0.00     0.048 C 
ATOM     21  C   UNL d   1      26.429 -15.350  -0.173  0.00  0.00     0.026 A 
BRANCH  16  22
ATOM     22  O   UNL d   1      29.791 -15.304   1.257  0.00  0.00    -0.360 OA
ATOM     23  H   UNL d   1      30.031 -16.112   1.730  0.00  0.00     0.217 HD
ENDBRANCH  16  22
ENDBRANCH   1  15
TORSDOF 6
ENDMDL
MODEL 8
REMARK VINA RESULT:    -5.555      3.743      5.902
REMARK INTER + INTRA:          -9.633
REMARK INTER:                  -7.345
REMARK INTRA:                  -2.288
REMARK CONF_INDEPENDENT:        1.790
REMARK UNBOUND:                -2.288
REMARK  6 active torsions:
REMARK  status: ('A' for Active; 'I' for Inactive)
REMARK    1  A    between atoms: C_5  and  O_6 
REMARK    2  A    between atoms: C_7  and  C_8 
REMARK       I    between atoms: C_8  and  N_10 
REMARK    3  A    between atoms: N_10  and  C_11 
REMARK    4  A    between atoms: C_12  and  C_11 
REMARK    5  A    between atoms: C_12  and  C_14 
REMARK    6  A    between atoms: C_12  and  O_13 
ROOT
ATOM      1  C   UNL d   1      26.143 -13.272  -4.360  0.00  0.00     0.254 C 
ATOM      2  O   UNL d   1      25.735 -12.240  -3.835  0.00  0.00    -0.268 OA
ATOM      3  N   UNL d   1      25.759 -14.489  -3.867  0.00  0.00    -0.354 N 
ATOM      4  H   UNL d   1      26.494 -15.157  -3.983  0.00  0.00     0.162 HD
ENDROOT
BRANCH   3   5
ATOM      5  C   UNL d   1      24.901 -14.699  -2.703  0.00  0.00     0.155 C 
BRANCH   5   6
ATOM      6  C   UNL d   1      25.605 -15.444  -1.529  0.00  0.00     0.140 C 
BRANCH   6   7
ATOM      7  C   UNL d   1      24.694 -16.415  -0.733  0.00  0.00     0.016 C 
ATOM      8  C   UNL d   1      23.183 -16.306  -1.078  0.00  0.00     0.007 C 
ATOM      9  C   UNL d   1      22.364 -17.463  -0.505  0.00  0.00     0.000 C 
ATOM     10  C   UNL d   1      23.001 -18.839  -0.701  0.00  0.00     0.000 C 
ATOM     11  C   UNL d   1      24.413 -18.880  -0.149  0.00  0.00     0.000 C 
ATOM     12  C   UNL d   1      25.280 -17.844  -0.822  0.00  0.00     0.007 C 
ENDBRANCH   6   7
BRANCH   6  13
ATOM     13  O   UNL d   1      26.714 -16.205  -2.044  0.00  0.00    -0.394 OA
ATOM     14  H   UNL d   1      26.812 -16.021  -2.995  0.00  0.00     0.210 HD
ENDBRANCH   6  13
ENDBRANCH   5   6
ENDBRANCH   3   5
BRANCH   1  15
ATOM     15  C   UNL d   1      27.105 -13.317  -5.553  0.00  0.00     0.065 A 
ATOM     16  C   UNL d   1      27.862 -14.465  -5.785  0.00  0.00     0.081 A 
ATOM     17  C   UNL d   1      28.824 -14.507  -6.804  0.00  0.00     0.038 A 
ATOM     18  C   UNL d   1      29.021 -13.416  -7.652  0.00  0.00     0.009 A 
ATOM     19  C   UNL d   1      28.248 -12.271  -7.498  0.00  0.00    -0.061 A 
ATOM     20  C   UNL d   1      28.395 -11.108  -8.443  0.00  0.00     0.048 C 
ATOM     21  C   UNL d   1      27.318 -12.230  -6.439  0.00  0.00     0.026 A 
BRANCH  16  22
ATOM     22  O   UNL d   1      27.672 -15.578  -5.020  0.00  0.00    -0.360 OA
ATOM     23  H   UNL d   1      27.975 -15.425  -4.115  0.00  0.00     0.217 HD
ENDBRANCH  16  22
ENDBRANCH   1  15
TORSDOF 6
ENDMDL
MODEL 9
REMARK VINA RESULT:    -5.103      3.625      8.704
REMARK INTER + INTRA:          -9.567
REMARK INTER:                  -6.893
REMARK INTRA:                  -2.675
REMARK CONF_INDEPENDENT:        1.790
REMARK UNBOUND:                -2.675
REMARK  6 active torsions:
REMARK  status: ('A' for Active; 'I' for Inactive)
REMARK    1  A    between atoms: C_5  and  O_6 
REMARK    2  A    between atoms: C_7  and  C_8 
REMARK       I    between atoms: C_8  and  N_10 
REMARK    3  A    between atoms: N_10  and  C_11 
REMARK    4  A    between atoms: C_12  and  C_11 
REMARK    5  A    between atoms: C_12  and  C_14 
REMARK    6  A    between atoms: C_12  and  O_13 
ROOT
ATOM      1  C   UNL d   1      25.461 -15.235  -3.523  0.00  0.00     0.254 C 
ATOM      2  O   UNL d   1      25.534 -15.756  -4.633  0.00  0.00    -0.268 OA
ATOM      3  N   UNL d   1      25.341 -13.876  -3.411  0.00  0.00    -0.354 N 
ATOM      4  H   UNL d   1      25.804 -13.555  -2.585  0.00  0.00     0.162 HD
ENDROOT
BRANCH   3   5
ATOM      5  C   UNL d   1      25.323 -12.932  -4.526  0.00  0.00     0.155 C 
BRANCH   5   6
ATOM      6  C   UNL d   1      26.591 -12.031  -4.606  0.00  0.00     0.140 C 
BRANCH   6   7
ATOM      7  C   UNL d   1      26.305 -10.518  -4.796  0.00  0.00     0.016 C 
ATOM      8  C   UNL d   1      25.621 -10.158  -6.144  0.00  0.00     0.007 C 
ATOM      9  C   UNL d   1      25.090  -8.724  -6.170  0.00  0.00     0.000 C 
ATOM     10  C   UNL d   1      24.339  -8.311  -4.904  0.00  0.00     0.000 C 
ATOM     11  C   UNL d   1      25.183  -8.529  -3.663  0.00  0.00     0.000 C 
ATOM     12  C   UNL d   1      25.585  -9.979  -3.537  0.00  0.00     0.007 C 
ENDBRANCH   6   7
BRANCH   6  13
ATOM     13  O   UNL d   1      27.363 -12.184  -3.400  0.00  0.00    -0.394 OA
ATOM     14  H   UNL d   1      27.400 -13.128  -3.163  0.00  0.00     0.210 HD
ENDBRANCH   6  13
ENDBRANCH   5   6
ENDBRANCH   3   5
BRANCH   1  15
ATOM     15  C   UNL d   1      25.524 -16.004  -2.199  0.00  0.00     0.065 A 
ATOM     16  C   UNL d   1      26.499 -15.676  -1.256  0.00  0.00     0.081 A 
ATOM     17  C   UNL d   1      26.651 -16.422  -0.079  0.00  0.00     0.038 A 
ATOM     18  C   UNL d   1      25.797 -17.487   0.212  0.00  0.00     0.009 A 
ATOM     19  C   UNL d   1      24.773 -17.813  -0.667  0.00  0.00    -0.061 A 
ATOM     20  C   UNL d   1      23.797 -18.914  -0.342  0.00  0.00     0.048 C 
ATOM     21  C   UNL d   1      24.664 -17.082  -1.868  0.00  0.00     0.026 A 
BRANCH  16  22
ATOM     22  O   UNL d   1      27.325 -14.611  -1.466  0.00  0.00    -0.360 OA
ATOM     23  H   UNL d   1      27.131 -14.191  -2.315  0.00  0.00     0.217 HD
ENDBRANCH  16  22
ENDBRANCH   1  15
TORSDOF 6
ENDMDL
