MODEL 1
REMARK VINA RESULT:   -28.500      0.000      0.000
REMARK INTER + INTRA:         -31.480
REMARK INTER:                 -29.991
REMARK INTRA:                  -1.489
REMARK CONF_INDEPENDENT:        1.492
REMARK UNBOUND:                -1.489
REMARK  5 active torsions:
REMARK  status: ('A' for Active; 'I' for Inactive)
REMARK    1  A    between atoms: C_2  and  C_12 
REMARK    2  A    between atoms: C_2  and  C_3 
REMARK    3  A    between atoms: C_3  and  N_4 
REMARK    4  A    between atoms: N_4  and  C_5 
REMARK       I    between atoms: C_12  and  N_14 
REMARK    5  A    between atoms: N_14  and  N_15 
ROOT
ATOM      1  C   UNL d   1      24.131 -18.406   0.165  0.00  0.00     0.133 C 
ENDROOT
BRANCH   1   2
ATOM      2  N   UNL d   1      24.776 -18.212  -1.141  0.00  0.00    -0.389 N 
ATOM      3  H   UNL d   1      24.369 -18.668  -1.949  0.00  0.00     0.159 HD
BRANCH   2   4
ATOM      4  C   UNL d   1      25.494 -17.041  -1.382  0.00  0.00     0.029 A 
ATOM      5  C   UNL d   1      26.387 -16.535  -0.429  0.00  0.00     0.029 A 
ATOM      6  C   UNL d   1      27.151 -15.391  -0.677  0.00  0.00     0.004 A 
ATOM      7  C   UNL d   1      26.995 -14.697  -1.872  0.00  0.00     0.024 A 
ATOM      8  C   UNL d   1      26.073 -15.155  -2.809  0.00  0.00     0.036 A 
ATOM      9 CL   UNL d   1      25.852 -14.270  -4.272  0.00  0.00    -0.084 Cl
ATOM     10  C   UNL d   1      25.331 -16.321  -2.573  0.00  0.00     0.052 A 
ENDBRANCH   2   4
ENDBRANCH   1   2
BRANCH   1  11
ATOM     11  C   UNL d   1      22.699 -17.818   0.187  0.00  0.00     0.093 C 
ATOM     12  C   UNL d   1      22.759 -16.324  -0.156  0.00  0.00     0.021 C 
BRANCH  11  13
ATOM     13  C   UNL d   1      21.787 -18.549  -0.802  0.00  0.00     0.237 C 
ATOM     14  O   UNL d   1      22.189 -19.079  -1.844  0.00  0.00    -0.272 OA
ATOM     15  N   UNL d   1      20.439 -18.589  -0.456  0.00  0.00    -0.294 N 
ATOM     16  H   UNL d   1      20.114 -18.260   0.451  0.00  0.00     0.183 HD
BRANCH  15  17
ATOM     17  N   UNL d   1      19.544 -19.325  -1.270  0.00  0.00    -0.247 NA
ATOM     18  H   UNL d   1      20.044 -19.533  -2.149  0.00  0.00     0.143 HD
ATOM     19  H   UNL d   1      18.779 -18.709  -1.557  0.00  0.00     0.143 HD
ENDBRANCH  15  17
ENDBRANCH  11  13
ENDBRANCH   1  11
TORSDOF 5
ENDMDL
MODEL 2
REMARK VINA RESULT:   -28.247      1.470      1.919
REMARK INTER + INTRA:         -30.940
REMARK INTER:                 -29.739
REMARK INTRA:                  -1.201
REMARK CONF_INDEPENDENT:        1.492
REMARK UNBOUND:                -1.201
REMARK  5 active torsions:
REMARK  status: ('A' for Active; 'I' for Inactive)
REMARK    1  A    between atoms: C_2  and  C_12 
REMARK    2  A    between atoms: C_2  and  C_3 
REMARK    3  A    between atoms: C_3  and  N_4 
REMARK    4  A    between atoms: N_4  and  C_5 
REMARK       I    between atoms: C_12  and  N_14 
REMARK    5  A    between atoms: N_14  and  N_15 
ROOT
ATOM      1  C   UNL d   1      24.320 -18.389  -0.354  0.00  0.00     0.133 C 
ENDROOT
BRANCH   1   2
ATOM      2  N   UNL d   1      24.727 -17.792  -1.633  0.00  0.00    -0.389 N 
ATOM      3  H   UNL d   1      24.202 -18.035  -2.464  0.00  0.00     0.159 HD
BRANCH   2   4
ATOM      4  C   UNL d   1      25.360 -16.550  -1.636  0.00  0.00     0.029 A 
ATOM      5  C   UNL d   1      25.179 -15.653  -2.697  0.00  0.00     0.029 A 
ATOM      6  C   UNL d   1      25.766 -14.384  -2.691  0.00  0.00     0.004 A 
ATOM      7  C   UNL d   1      26.594 -14.007  -1.640  0.00  0.00     0.024 A 
ATOM      8  C   UNL d   1      26.828 -14.905  -0.602  0.00  0.00     0.036 A 
ATOM      9 CL   UNL d   1      27.887 -14.450   0.679  0.00  0.00    -0.084 Cl
ATOM     10  C   UNL d   1      26.213 -16.165  -0.593  0.00  0.00     0.052 A 
ENDBRANCH   2   4
ENDBRANCH   1   2
BRANCH   1  11
ATOM     11  C   UNL d   1      22.864 -18.010   0.014  0.00  0.00     0.093 C 
ATOM     12  C   UNL d   1      22.700 -16.487  -0.068  0.00  0.00     0.021 C 
BRANCH  11  13
ATOM     13  C   UNL d   1      21.862 -18.699  -0.916  0.00  0.00     0.237 C 
ATOM     14  O   UNL d   1      22.182 -19.283  -1.958  0.00  0.00    -0.272 OA
ATOM     15  N   UNL d   1      20.531 -18.634  -0.514  0.00  0.00    -0.294 N 
ATOM     16  H   UNL d   1      20.268 -18.258   0.395  0.00  0.00     0.183 HD
BRANCH  15  17
ATOM     17  N   UNL d   1      19.552 -19.324  -1.270  0.00  0.00    -0.247 NA
ATOM     18  H   UNL d   1      19.945 -19.454  -2.216  0.00  0.00     0.143 HD
ATOM     19  H   UNL d   1      18.751 -18.704  -1.415  0.00  0.00     0.143 HD
ENDBRANCH  15  17
ENDBRANCH  11  13
ENDBRANCH   1  11
TORSDOF 5
ENDMDL
MODEL 3
REMARK VINA RESULT:   -28.238      1.970      2.291
REMARK INTER + INTRA:         -30.644
REMARK INTER:                 -29.729
REMARK INTRA:                  -0.914
REMARK CONF_INDEPENDENT:        1.492
REMARK UNBOUND:                -0.914
REMARK  5 active torsions:
REMARK  status: ('A' for Active; 'I' for Inactive)
REMARK    1  A    between atoms: C_2  and  C_12 
REMARK    2  A    between atoms: C_2  and  C_3 
REMARK    3  A    between atoms: C_3  and  N_4 
REMARK    4  A    between atoms: N_4  and  C_5 
REMARK       I    between atoms: C_12  and  N_14 
REMARK    5  A    between atoms: N_14  and  N_15 
ROOT
ATOM      1  C   UNL d   1      24.440 -18.678  -0.286  0.00  0.00     0.133 C 
ENDROOT
BRANCH   1   2
ATOM      2  N   UNL d   1      25.492 -17.848   0.315  0.00  0.00    -0.389 N 
ATOM      3  H   UNL d   1      25.782 -18.056   1.264  0.00  0.00     0.159 HD
BRANCH   2   4
ATOM      4  C   UNL d   1      26.440 -17.242  -0.508  0.00  0.00     0.029 A 
ATOM      5  C   UNL d   1      26.053 -16.355  -1.520  0.00  0.00     0.029 A 
ATOM      6  C   UNL d   1      26.995 -15.701  -2.320  0.00  0.00     0.004 A 
ATOM      7  C   UNL d   1      28.350 -15.965  -2.154  0.00  0.00     0.024 A 
ATOM      8  C   UNL d   1      28.750 -16.884  -1.189  0.00  0.00     0.036 A 
ATOM      9 CL   UNL d   1      30.428 -17.241  -1.014  0.00  0.00    -0.084 Cl
ATOM     10  C   UNL d   1      27.807 -17.516  -0.366  0.00  0.00     0.052 A 
ENDBRANCH   2   4
ENDBRANCH   1   2
BRANCH   1  11
ATOM     11  C   UNL d   1      23.029 -18.106  -0.002  0.00  0.00     0.093 C 
ATOM     12  C   UNL d   1      23.052 -16.583  -0.189  0.00  0.00     0.021 C 
BRANCH  11  13
ATOM     13  C   UNL d   1      21.982 -18.735  -0.926  0.00  0.00     0.237 C 
ATOM     14  O   UNL d   1      22.252 -19.259  -2.012  0.00  0.00    -0.272 OA
ATOM     15  N   UNL d   1      20.670 -18.685  -0.464  0.00  0.00    -0.294 N 
ATOM     16  H   UNL d   1      20.449 -18.361   0.476  0.00  0.00     0.183 HD
BRANCH  15  17
ATOM     17  N   UNL d   1      19.654 -19.325  -1.216  0.00  0.00    -0.247 NA
ATOM     18  H   UNL d   1      20.120 -19.781  -2.016  0.00  0.00     0.143 HD
ATOM     19  H   UNL d   1      19.062 -18.609  -1.645  0.00  0.00     0.143 HD
ENDBRANCH  15  17
ENDBRANCH  11  13
ENDBRANCH   1  11
TORSDOF 5
ENDMDL
MODEL 4
REMARK VINA RESULT:   -28.219      1.404      1.672
REMARK INTER + INTRA:         -31.061
REMARK INTER:                 -29.710
REMARK INTRA:                  -1.351
REMARK CONF_INDEPENDENT:        1.492
REMARK UNBOUND:                -1.351
REMARK  5 active torsions:
REMARK  status: ('A' for Active; 'I' for Inactive)
REMARK    1  A    between atoms: C_2  and  C_12 
REMARK    2  A    between atoms: C_2  and  C_3 
REMARK    3  A    between atoms: C_3  and  N_4 
REMARK    4  A    between atoms: N_4  and  C_5 
REMARK       I    between atoms: C_12  and  N_14 
REMARK    5  A    between atoms: N_14  and  N_15 
ROOT
ATOM      1  C   UNL d   1      24.218 -17.748  -1.806  0.00  0.00     0.133 C 
ENDROOT
BRANCH   1   2
ATOM      2  N   UNL d   1      24.065 -16.295  -1.654  0.00  0.00    -0.389 N 
ATOM      3  H   UNL d   1      23.435 -15.952  -0.938  0.00  0.00     0.159 HD
BRANCH   2   4
ATOM      4  C   UNL d   1      25.118 -15.455  -2.012  0.00  0.00     0.029 A 
ATOM      5  C   UNL d   1      26.327 -15.474  -1.305  0.00  0.00     0.029 A 
ATOM      6  C   UNL d   1      27.409 -14.673  -1.683  0.00  0.00     0.004 A 
ATOM      7  C   UNL d   1      27.282 -13.794  -2.753  0.00  0.00     0.024 A 
ATOM      8  C   UNL d   1      26.071 -13.723  -3.434  0.00  0.00     0.036 A 
ATOM      9 CL   UNL d   1      25.903 -12.602  -4.733  0.00  0.00    -0.084 Cl
ATOM     10  C   UNL d   1      24.996 -14.549  -3.075  0.00  0.00     0.052 A 
ENDBRANCH   2   4
ENDBRANCH   1   2
BRANCH   1  11
ATOM     11  C   UNL d   1      23.324 -18.524  -0.808  0.00  0.00     0.093 C 
ATOM     12  C   UNL d   1      23.909 -18.395   0.604  0.00  0.00     0.021 C 
BRANCH  11  13
ATOM     13  C   UNL d   1      21.885 -17.999  -0.832  0.00  0.00     0.237 C 
ATOM     14  O   UNL d   1      21.594 -16.798  -0.891  0.00  0.00    -0.272 OA
ATOM     15  N   UNL d   1      20.893 -18.973  -0.785  0.00  0.00    -0.294 N 
ATOM     16  H   UNL d   1      21.117 -19.964  -0.853  0.00  0.00     0.183 HD
BRANCH  15  17
ATOM     17  N   UNL d   1      19.537 -18.576  -0.896  0.00  0.00    -0.247 NA
ATOM     18  H   UNL d   1      19.118 -19.157  -1.639  0.00  0.00     0.143 HD
ATOM     19  H   UNL d   1      19.503 -17.625  -1.272  0.00  0.00     0.143 HD
ENDBRANCH  15  17
ENDBRANCH  11  13
ENDBRANCH   1  11
TORSDOF 5
ENDMDL
MODEL 5
REMARK VINA RESULT:   -28.150      1.764      2.282
REMARK INTER + INTRA:         -30.945
REMARK INTER:                 -29.641
REMARK INTRA:                  -1.304
REMARK CONF_INDEPENDENT:        1.492
REMARK UNBOUND:                -1.304
REMARK  5 active torsions:
REMARK  status: ('A' for Active; 'I' for Inactive)
REMARK    1  A    between atoms: C_2  and  C_12 
REMARK    2  A    between atoms: C_2  and  C_3 
REMARK    3  A    between atoms: C_3  and  N_4 
REMARK    4  A    between atoms: N_4  and  C_5 
REMARK       I    between atoms: C_12  and  N_14 
REMARK    5  A    between atoms: N_14  and  N_15 
ROOT
ATOM      1  C   UNL d   1      24.215 -17.798  -1.869  0.00  0.00     0.133 C 
ENDROOT
BRANCH   1   2
ATOM      2  N   UNL d   1      24.067 -16.338  -1.850  0.00  0.00    -0.389 N 
ATOM      3  H   UNL d   1      23.607 -15.913  -1.054  0.00  0.00     0.159 HD
BRANCH   2   4
ATOM      4  C   UNL d   1      24.994 -15.547  -2.528  0.00  0.00     0.029 A 
ATOM      5  C   UNL d   1      24.615 -14.331  -3.110  0.00  0.00     0.029 A 
ATOM      6  C   UNL d   1      25.543 -13.504  -3.750  0.00  0.00     0.004 A 
ATOM      7  C   UNL d   1      26.869 -13.907  -3.864  0.00  0.00     0.024 A 
ATOM      8  C   UNL d   1      27.254 -15.137  -3.338  0.00  0.00     0.036 A 
ATOM      9 CL   UNL d   1      28.889 -15.652  -3.518  0.00  0.00    -0.084 Cl
ATOM     10  C   UNL d   1      26.329 -15.951  -2.669  0.00  0.00     0.052 A 
ENDBRANCH   2   4
ENDBRANCH   1   2
BRANCH   1  11
ATOM     11  C   UNL d   1      23.354 -18.473  -0.773  0.00  0.00     0.093 C 
ATOM     12  C   UNL d   1      23.971 -18.189   0.603  0.00  0.00     0.021 C 
BRANCH  11  13
ATOM     13  C   UNL d   1      21.909 -17.968  -0.817  0.00  0.00     0.237 C 
ATOM     14  O   UNL d   1      21.602 -16.773  -0.893  0.00  0.00    -0.272 OA
ATOM     15  N   UNL d   1      20.929 -18.956  -0.767  0.00  0.00    -0.294 N 
ATOM     16  H   UNL d   1      21.167 -19.944  -0.821  0.00  0.00     0.183 HD
BRANCH  15  17
ATOM     17  N   UNL d   1      19.569 -18.579  -0.895  0.00  0.00    -0.247 NA
ATOM     18  H   UNL d   1      19.140 -19.239  -1.563  0.00  0.00     0.143 HD
ATOM     19  H   UNL d   1      19.522 -17.675  -1.372  0.00  0.00     0.143 HD
ENDBRANCH  15  17
ENDBRANCH  11  13
ENDBRANCH   1  11
TORSDOF 5
ENDMDL
MODEL 6
REMARK VINA RESULT:   -27.781      1.932      2.372
REMARK INTER + INTRA:         -30.785
REMARK INTER:                 -29.272
REMARK INTRA:                  -1.513
REMARK CONF_INDEPENDENT:        1.492
REMARK UNBOUND:                -1.513
REMARK  5 active torsions:
REMARK  status: ('A' for Active; 'I' for Inactive)
REMARK    1  A    between atoms: C_2  and  C_12 
REMARK    2  A    between atoms: C_2  and  C_3 
REMARK    3  A    between atoms: C_3  and  N_4 
REMARK    4  A    between atoms: N_4  and  C_5 
REMARK       I    between atoms: C_12  and  N_14 
REMARK    5  A    between atoms: N_14  and  N_15 
ROOT
ATOM      1  C   UNL d   1      24.061 -17.816  -1.848  0.00  0.00     0.133 C 
ENDROOT
BRANCH   1   2
ATOM      2  N   UNL d   1      23.888 -16.365  -1.704  0.00  0.00    -0.389 N 
ATOM      3  H   UNL d   1      23.061 -16.025  -1.227  0.00  0.00     0.159 HD
BRANCH   2   4
ATOM      4  C   UNL d   1      25.014 -15.543  -1.660  0.00  0.00     0.029 A 
ATOM      5  C   UNL d   1      25.234 -14.571  -2.644  0.00  0.00     0.029 A 
ATOM      6  C   UNL d   1      26.331 -13.707  -2.586  0.00  0.00     0.004 A 
ATOM      7  C   UNL d   1      27.263 -13.834  -1.562  0.00  0.00     0.024 A 
ATOM      8  C   UNL d   1      27.089 -14.829  -0.604  0.00  0.00     0.036 A 
ATOM      9 CL   UNL d   1      28.267 -15.013   0.640  0.00  0.00    -0.084 Cl
ATOM     10  C   UNL d   1      25.971 -15.675  -0.645  0.00  0.00     0.052 A 
ENDBRANCH   2   4
ENDBRANCH   1   2
BRANCH   1  11
ATOM     11  C   UNL d   1      23.238 -18.596  -0.792  0.00  0.00     0.093 C 
ATOM     12  C   UNL d   1      23.726 -18.218   0.612  0.00  0.00     0.021 C 
BRANCH  11  13
ATOM     13  C   UNL d   1      21.742 -18.298  -0.928  0.00  0.00     0.237 C 
ATOM     14  O   UNL d   1      21.268 -17.156  -0.939  0.00  0.00    -0.272 OA
ATOM     15  N   UNL d   1      20.919 -19.414  -1.044  0.00  0.00    -0.294 N 
ATOM     16  H   UNL d   1      21.304 -20.350  -1.153  0.00  0.00     0.183 HD
BRANCH  15  17
ATOM     17  N   UNL d   1      19.532 -19.223  -1.266  0.00  0.00    -0.247 NA
ATOM     18  H   UNL d   1      19.368 -19.383  -2.272  0.00  0.00     0.143 HD
ATOM     19  H   UNL d   1      19.311 -18.234  -1.130  0.00  0.00     0.143 HD
ENDBRANCH  15  17
ENDBRANCH  11  13
ENDBRANCH   1  11
TORSDOF 5
ENDMDL
