MODEL 1
REMARK VINA RESULT:   -31.598      0.000      0.000
REMARK INTER + INTRA:         -32.945
REMARK INTER:                 -32.493
REMARK INTRA:                  -0.453
REMARK CONF_INDEPENDENT:        0.895
REMARK UNBOUND:                -0.453
REMARK  3 active torsions:
REMARK  status: ('A' for Active; 'I' for Inactive)
REMARK       I    between atoms: N_2  and  C_3 
REMARK    1  A    between atoms: C_3  and  C_5 
REMARK    2  A    between atoms: C_7  and  N_8 
REMARK       I    between atoms: N_8  and  C_9 
REMARK    3  A    between atoms: C_9  and  C_11 
ROOT
ATOM      1  C   UNL d   1      25.272 -15.436  -2.143  0.00  0.00     0.072 A 
ATOM      2  C   UNL d   1      24.060 -16.041  -1.717  0.00  0.00     0.049 A 
ATOM      3  C   UNL d   1      24.061 -16.990  -0.673  0.00  0.00     0.036 A 
ATOM      4  C   UNL d   1      25.285 -17.277  -0.059  0.00  0.00     0.032 A 
ATOM      5  C   UNL d   1      26.470 -16.659  -0.450  0.00  0.00     0.045 A 
ATOM      6  C   UNL d   1      26.462 -15.748  -1.492  0.00  0.00     0.132 A 
ATOM      7  F   UNL d   1      27.622 -15.170  -1.835  0.00  0.00    -0.205 F 
ENDROOT
BRANCH   3   8
ATOM      8  N   UNL d   1      22.851 -17.632  -0.260  0.00  0.00    -0.322 N 
ATOM      9  C   UNL d   1      22.221 -18.684  -0.946  0.00  0.00     0.274 C 
ATOM     10  O   UNL d   1      22.597 -19.191  -2.003  0.00  0.00    -0.266 OA
ATOM     11  H   UNL d   1      22.457 -17.334   0.625  0.00  0.00     0.169 HD
BRANCH   9  12
ATOM     12  C   UNL d   1      20.969 -19.249  -0.362  0.00  0.00     0.126 A 
ATOM     13  C   UNL d   1      20.894 -19.565   0.980  0.00  0.00     0.061 A 
ATOM     14  C   UNL d   1      19.669 -20.018   1.455  0.00  0.00     0.037 A 
ATOM     15 CL   UNL d   1      19.511 -20.450   3.113  0.00  0.00    -0.084 Cl
ATOM     16  C   UNL d   1      18.566 -20.127   0.614  0.00  0.00     0.043 A 
ATOM     17  C   UNL d   1      18.730 -19.757  -0.705  0.00  0.00     0.119 A 
ATOM     18  N   UNL d   1      19.903 -19.325  -1.208  0.00  0.00    -0.255 NA
ENDBRANCH   9  12
ENDBRANCH   3   8
BRANCH   1  19
ATOM     19  C   UNL d   1      25.275 -14.428  -3.236  0.00  0.00     0.254 C 
ATOM     20  N   UNL d   1      25.673 -13.143  -2.918  0.00  0.00    -0.361 N 
ATOM     21  C   UNL d   1      25.690 -12.089  -3.908  0.00  0.00     0.149 C 
ATOM     22  H   UNL d   1      25.919 -12.907  -1.962  0.00  0.00     0.162 HD
ATOM     23  O   UNL d   1      24.954 -14.774  -4.372  0.00  0.00    -0.268 OA
ENDBRANCH   1  19
TORSDOF 3
ENDMDL
MODEL 2
REMARK VINA RESULT:   -30.362      1.909      2.838
REMARK INTER + INTRA:         -31.645
REMARK INTER:                 -31.257
REMARK INTRA:                  -0.388
REMARK CONF_INDEPENDENT:        0.895
REMARK UNBOUND:                -0.388
REMARK  3 active torsions:
REMARK  status: ('A' for Active; 'I' for Inactive)
REMARK       I    between atoms: N_2  and  C_3 
REMARK    1  A    between atoms: C_3  and  C_5 
REMARK    2  A    between atoms: C_7  and  N_8 
REMARK       I    between atoms: N_8  and  C_9 
REMARK    3  A    between atoms: C_9  and  C_11 
ROOT
ATOM      1  C   UNL d   1      26.482 -16.726  -0.838  0.00  0.00     0.072 A 
ATOM      2  C   UNL d   1      25.300 -17.397  -0.427  0.00  0.00     0.049 A 
ATOM      3  C   UNL d   1      24.033 -16.937  -0.844  0.00  0.00     0.036 A 
ATOM      4  C   UNL d   1      23.994 -15.828  -1.697  0.00  0.00     0.032 A 
ATOM      5  C   UNL d   1      25.153 -15.189  -2.131  0.00  0.00     0.045 A 
ATOM      6  C   UNL d   1      26.390 -15.634  -1.697  0.00  0.00     0.132 A 
ATOM      7  F   UNL d   1      27.482 -14.997  -2.141  0.00  0.00    -0.205 F 
ENDROOT
BRANCH   3   8
ATOM      8  N   UNL d   1      22.834 -17.584  -0.407  0.00  0.00    -0.322 N 
ATOM      9  C   UNL d   1      22.229 -18.678  -1.047  0.00  0.00     0.274 C 
ATOM     10  O   UNL d   1      22.619 -19.224  -2.079  0.00  0.00    -0.266 OA
ATOM     11  H   UNL d   1      22.431 -17.255   0.463  0.00  0.00     0.169 HD
BRANCH   9  12
ATOM     12  C   UNL d   1      20.985 -19.241  -0.443  0.00  0.00     0.126 A 
ATOM     13  C   UNL d   1      20.933 -19.559   0.900  0.00  0.00     0.061 A 
ATOM     14  C   UNL d   1      19.715 -20.010   1.395  0.00  0.00     0.037 A 
ATOM     15 CL   UNL d   1      19.585 -20.445   3.055  0.00  0.00    -0.084 Cl
ATOM     16  C   UNL d   1      18.598 -20.116   0.574  0.00  0.00     0.043 A 
ATOM     17  C   UNL d   1      18.740 -19.743  -0.747  0.00  0.00     0.119 A 
ATOM     18  N   UNL d   1      19.905 -19.313  -1.270  0.00  0.00    -0.255 NA
ENDBRANCH   9  12
ENDBRANCH   3   8
BRANCH   1  19
ATOM     19  C   UNL d   1      27.820 -17.213  -0.411  0.00  0.00     0.254 C 
ATOM     20  N   UNL d   1      28.873 -16.317  -0.467  0.00  0.00    -0.361 N 
ATOM     21  C   UNL d   1      30.215 -16.704  -0.091  0.00  0.00     0.149 C 
ATOM     22  H   UNL d   1      28.725 -15.378  -0.820  0.00  0.00     0.162 HD
ATOM     23  O   UNL d   1      27.936 -18.367  -0.004  0.00  0.00    -0.268 OA
ENDBRANCH   1  19
TORSDOF 3
ENDMDL
