MODEL 1
REMARK VINA RESULT:    -9.035      0.000      0.000
REMARK INTER + INTRA:         -10.620
REMARK INTER:                 -10.229
REMARK INTRA:                  -0.391
REMARK CONF_INDEPENDENT:        1.193
REMARK UNBOUND:                -0.391
REMARK  4 active torsions:
REMARK  status: ('A' for Active; 'I' for Inactive)
REMARK       I    between atoms: C_2  and  N_3 
REMARK    1  A    between atoms: C_2  and  C_15 
REMARK    2  A    between atoms: N_3  and  N_4 
REMARK    3  A    between atoms: C_5  and  C_6 
REMARK    4  A    between atoms: C_18  and  O_19 
ROOT
ATOM      1  O   UNL d   1      21.108 -17.522  -0.903  0.00  0.00    -0.266 OA
ATOM      2  C   UNL d   1      21.392 -18.574  -0.326  0.00  0.00     0.271 C 
ATOM      3  N   UNL d   1      22.688 -19.076  -0.163  0.00  0.00    -0.243 N 
ATOM      4  H   UNL d   1      22.846 -19.996   0.233  0.00  0.00     0.192 HD
ENDROOT
BRANCH   3   5
ATOM      5  N   UNL d   1      23.769 -18.340  -0.630  0.00  0.00    -0.183 NA
ATOM      6  C   UNL d   1      24.799 -18.200   0.147  0.00  0.00     0.152 C 
BRANCH   6   7
ATOM      7  C   UNL d   1      25.966 -17.443  -0.305  0.00  0.00     0.011 A 
ATOM      8  C   UNL d   1      27.202 -17.419   0.323  0.00  0.00     0.102 A 
ATOM      9  N   UNL d   1      28.052 -16.619  -0.406  0.00  0.00    -0.364 N 
ATOM     10  C   UNL d   1      27.372 -16.033  -1.449  0.00  0.00     0.043 A 
ATOM     11  H   UNL d   1      29.026 -16.451  -0.195  0.00  0.00     0.165 HD
ATOM     12  C   UNL d   1      27.801 -15.096  -2.403  0.00  0.00     0.030 A 
ATOM     13  C   UNL d   1      26.071 -16.544  -1.417  0.00  0.00     0.004 A 
ATOM     14  C   UNL d   1      26.858 -14.642  -3.331  0.00  0.00     0.002 A 
ATOM     15  C   UNL d   1      25.553 -15.127  -3.321  0.00  0.00     0.001 A 
ATOM     16  C   UNL d   1      25.154 -16.084  -2.382  0.00  0.00     0.014 A 
ENDBRANCH   6   7
ENDBRANCH   3   5
BRANCH   2  17
ATOM     17  C   UNL d   1      20.262 -19.388   0.233  0.00  0.00     0.033 A 
ATOM     18  C   UNL d   1      20.219 -19.693   1.609  0.00  0.00     0.020 A 
ATOM     19  C   UNL d   1      19.196 -20.503   2.138  0.00  0.00     0.037 A 
ATOM     20  C   UNL d   1      18.231 -21.025   1.285  0.00  0.00     0.065 A 
ATOM     21  C   UNL d   1      18.286 -20.764  -0.081  0.00  0.00     0.037 A 
ATOM     22  C   UNL d   1      19.296 -19.947  -0.609  0.00  0.00     0.020 A 
BRANCH  20  23
ATOM     23  O   UNL d   1      17.208 -21.811   1.728  0.00  0.00    -0.361 OA
ATOM     24  H   UNL d   1      17.265 -22.691   1.321  0.00  0.00     0.217 HD
ENDBRANCH  20  23
ENDBRANCH   2  17
TORSDOF 4
ENDMDL
MODEL 2
REMARK VINA RESULT:    -8.883      0.117      1.060
REMARK INTER + INTRA:         -10.452
REMARK INTER:                 -10.076
REMARK INTRA:                  -0.376
REMARK CONF_INDEPENDENT:        1.193
REMARK UNBOUND:                -0.376
REMARK  4 active torsions:
REMARK  status: ('A' for Active; 'I' for Inactive)
REMARK       I    between atoms: C_2  and  N_3 
REMARK    1  A    between atoms: C_2  and  C_15 
REMARK    2  A    between atoms: N_3  and  N_4 
REMARK    3  A    between atoms: C_5  and  C_6 
REMARK    4  A    between atoms: C_18  and  O_19 
ROOT
ATOM      1  O   UNL d   1      21.088 -17.531  -0.897  0.00  0.00    -0.266 OA
ATOM      2  C   UNL d   1      21.419 -18.574  -0.329  0.00  0.00     0.271 C 
ATOM      3  N   UNL d   1      22.738 -19.006  -0.149  0.00  0.00    -0.243 N 
ATOM      4  H   UNL d   1      22.940 -19.922   0.238  0.00  0.00     0.192 HD
ENDROOT
BRANCH   3   5
ATOM      5  N   UNL d   1      23.785 -18.206  -0.587  0.00  0.00    -0.183 NA
ATOM      6  C   UNL d   1      24.923 -18.288   0.033  0.00  0.00     0.152 C 
BRANCH   6   7
ATOM      7  C   UNL d   1      26.057 -17.473  -0.399  0.00  0.00     0.011 A 
ATOM      8  C   UNL d   1      27.308 -17.454   0.199  0.00  0.00     0.102 A 
ATOM      9  N   UNL d   1      28.118 -16.587  -0.498  0.00  0.00    -0.364 N 
ATOM     10  C   UNL d   1      27.397 -15.957  -1.486  0.00  0.00     0.043 A 
ATOM     11  H   UNL d   1      29.093 -16.406  -0.300  0.00  0.00     0.165 HD
ATOM     12  C   UNL d   1      27.777 -14.951  -2.389  0.00  0.00     0.030 A 
ATOM     13  C   UNL d   1      26.111 -16.504  -1.455  0.00  0.00     0.004 A 
ATOM     14  C   UNL d   1      26.799 -14.466  -3.265  0.00  0.00     0.002 A 
ATOM     15  C   UNL d   1      25.507 -14.987  -3.253  0.00  0.00     0.001 A 
ATOM     16  C   UNL d   1      25.158 -16.010  -2.367  0.00  0.00     0.014 A 
ENDBRANCH   6   7
ENDBRANCH   3   5
BRANCH   2  17
ATOM     17  C   UNL d   1      20.327 -19.456   0.200  0.00  0.00     0.033 A 
ATOM     18  C   UNL d   1      19.348 -19.976  -0.671  0.00  0.00     0.020 A 
ATOM     19  C   UNL d   1      18.284 -20.757  -0.180  0.00  0.00     0.037 A 
ATOM     20  C   UNL d   1      18.191 -20.998   1.185  0.00  0.00     0.065 A 
ATOM     21  C   UNL d   1      19.129 -20.457   2.060  0.00  0.00     0.037 A 
ATOM     22  C   UNL d   1      20.196 -19.689   1.573  0.00  0.00     0.020 A 
BRANCH  20  23
ATOM     23  O   UNL d   1      17.192 -21.751   1.730  0.00  0.00    -0.361 OA
ATOM     24  H   UNL d   1      17.124 -22.600   1.263  0.00  0.00     0.217 HD
ENDBRANCH  20  23
ENDBRANCH   2  17
TORSDOF 4
ENDMDL
MODEL 3
REMARK VINA RESULT:    -8.459      1.329      2.142
REMARK INTER + INTRA:          -9.899
REMARK INTER:                  -9.652
REMARK INTRA:                  -0.248
REMARK CONF_INDEPENDENT:        1.193
REMARK UNBOUND:                -0.248
REMARK  4 active torsions:
REMARK  status: ('A' for Active; 'I' for Inactive)
REMARK       I    between atoms: C_2  and  N_3 
REMARK    1  A    between atoms: C_2  and  C_15 
REMARK    2  A    between atoms: N_3  and  N_4 
REMARK    3  A    between atoms: C_5  and  C_6 
REMARK    4  A    between atoms: C_18  and  O_19 
ROOT
ATOM      1  O   UNL d   1      22.166 -18.956  -1.708  0.00  0.00    -0.266 OA
ATOM      2  C   UNL d   1      21.686 -18.541  -0.650  0.00  0.00     0.271 C 
ATOM      3  N   UNL d   1      22.154 -17.430   0.061  0.00  0.00    -0.243 N 
ATOM      4  H   UNL d   1      21.780 -17.200   0.975  0.00  0.00     0.192 HD
ENDROOT
BRANCH   3   5
ATOM      5  N   UNL d   1      23.205 -16.682  -0.453  0.00  0.00    -0.183 NA
ATOM      6  C   UNL d   1      24.165 -17.308  -1.063  0.00  0.00     0.152 C 
BRANCH   6   7
ATOM      7  C   UNL d   1      25.287 -16.562  -1.629  0.00  0.00     0.011 A 
ATOM      8  C   UNL d   1      25.196 -15.605  -2.629  0.00  0.00     0.102 A 
ATOM      9  N   UNL d   1      26.453 -15.107  -2.881  0.00  0.00    -0.364 N 
ATOM     10  C   UNL d   1      27.389 -15.787  -2.137  0.00  0.00     0.043 A 
ATOM     11  H   UNL d   1      26.673 -14.372  -3.540  0.00  0.00     0.165 HD
ATOM     12  C   UNL d   1      28.789 -15.679  -2.116  0.00  0.00     0.030 A 
ATOM     13  C   UNL d   1      26.686 -16.690  -1.335  0.00  0.00     0.004 A 
ATOM     14  C   UNL d   1      29.492 -16.547  -1.275  0.00  0.00     0.002 A 
ATOM     15  C   UNL d   1      28.819 -17.463  -0.469  0.00  0.00     0.001 A 
ATOM     16  C   UNL d   1      27.423 -17.533  -0.481  0.00  0.00     0.014 A 
ENDBRANCH   6   7
ENDBRANCH   3   5
BRANCH   2  17
ATOM     17  C   UNL d   1      20.521 -19.289  -0.073  0.00  0.00     0.033 A 
ATOM     18  C   UNL d   1      20.535 -19.695   1.276  0.00  0.00     0.020 A 
ATOM     19  C   UNL d   1      19.474 -20.448   1.816  0.00  0.00     0.037 A 
ATOM     20  C   UNL d   1      18.411 -20.811   0.997  0.00  0.00     0.065 A 
ATOM     21  C   UNL d   1      18.405 -20.449  -0.347  0.00  0.00     0.037 A 
ATOM     22  C   UNL d   1      19.454 -19.690  -0.884  0.00  0.00     0.020 A 
BRANCH  20  23
ATOM     23  O   UNL d   1      17.348 -21.532   1.453  0.00  0.00    -0.361 OA
ATOM     24  H   UNL d   1      16.941 -22.023   0.722  0.00  0.00     0.217 HD
ENDBRANCH  20  23
ENDBRANCH   2  17
TORSDOF 4
ENDMDL
MODEL 4
REMARK VINA RESULT:    -7.682      2.840      8.640
REMARK INTER + INTRA:          -9.246
REMARK INTER:                  -8.875
REMARK INTRA:                  -0.371
REMARK CONF_INDEPENDENT:        1.193
REMARK UNBOUND:                -0.371
REMARK  4 active torsions:
REMARK  status: ('A' for Active; 'I' for Inactive)
REMARK       I    between atoms: C_2  and  N_3 
REMARK    1  A    between atoms: C_2  and  C_15 
REMARK    2  A    between atoms: N_3  and  N_4 
REMARK    3  A    between atoms: C_5  and  C_6 
REMARK    4  A    between atoms: C_18  and  O_19 
ROOT
ATOM      1  O   UNL d   1      24.869 -16.964  -1.836  0.00  0.00    -0.266 OA
ATOM      2  C   UNL d   1      25.381 -17.310  -0.769  0.00  0.00     0.271 C 
ATOM      3  N   UNL d   1      24.840 -18.252   0.113  0.00  0.00    -0.243 N 
ATOM      4  H   UNL d   1      25.259 -18.419   1.021  0.00  0.00     0.192 HD
ENDROOT
BRANCH   3   5
ATOM      5  N   UNL d   1      23.662 -18.905  -0.223  0.00  0.00    -0.183 NA
ATOM      6  C   UNL d   1      22.536 -18.305   0.013  0.00  0.00     0.152 C 
BRANCH   6   7
ATOM      7  C   UNL d   1      21.270 -18.949  -0.334  0.00  0.00     0.011 A 
ATOM      8  C   UNL d   1      20.709 -18.991  -1.602  0.00  0.00     0.102 A 
ATOM      9  N   UNL d   1      19.533 -19.703  -1.541  0.00  0.00    -0.364 N 
ATOM     10  C   UNL d   1      19.255 -20.047  -0.238  0.00  0.00     0.043 A 
ATOM     11  H   UNL d   1      18.935 -19.918  -2.327  0.00  0.00     0.165 HD
ATOM     12  C   UNL d   1      18.143 -20.704   0.312  0.00  0.00     0.030 A 
ATOM     13  C   UNL d   1      20.332 -19.601   0.533  0.00  0.00     0.004 A 
ATOM     14  C   UNL d   1      18.117 -20.879   1.700  0.00  0.00     0.002 A 
ATOM     15  C   UNL d   1      19.173 -20.440   2.496  0.00  0.00     0.001 A 
ATOM     16  C   UNL d   1      20.285 -19.816   1.924  0.00  0.00     0.014 A 
ENDBRANCH   6   7
ENDBRANCH   3   5
BRANCH   2  17
ATOM     17  C   UNL d   1      26.677 -16.664  -0.378  0.00  0.00     0.033 A 
ATOM     18  C   UNL d   1      27.890 -17.372  -0.501  0.00  0.00     0.020 A 
ATOM     19  C   UNL d   1      29.107 -16.799  -0.084  0.00  0.00     0.037 A 
ATOM     20  C   UNL d   1      29.105 -15.527   0.476  0.00  0.00     0.065 A 
ATOM     21  C   UNL d   1      27.908 -14.834   0.639  0.00  0.00     0.037 A 
ATOM     22  C   UNL d   1      26.697 -15.397   0.214  0.00  0.00     0.020 A 
BRANCH  20  23
ATOM     23  O   UNL d   1      30.245 -14.908   0.895  0.00  0.00    -0.361 OA
ATOM     24  H   UNL d   1      30.698 -15.457   1.556  0.00  0.00     0.217 HD
ENDBRANCH  20  23
ENDBRANCH   2  17
TORSDOF 4
ENDMDL
MODEL 5
REMARK VINA RESULT:    -6.763      1.634      2.036
REMARK INTER + INTRA:          -8.289
REMARK INTER:                  -7.956
REMARK INTRA:                  -0.333
REMARK CONF_INDEPENDENT:        1.193
REMARK UNBOUND:                -0.333
REMARK  4 active torsions:
REMARK  status: ('A' for Active; 'I' for Inactive)
REMARK       I    between atoms: C_2  and  N_3 
REMARK    1  A    between atoms: C_2  and  C_15 
REMARK    2  A    between atoms: N_3  and  N_4 
REMARK    3  A    between atoms: C_5  and  C_6 
REMARK    4  A    between atoms: C_18  and  O_19 
ROOT
ATOM      1  O   UNL d   1      23.447 -18.921   0.398  0.00  0.00    -0.266 OA
ATOM      2  C   UNL d   1      22.491 -18.272  -0.034  0.00  0.00     0.271 C 
ATOM      3  N   UNL d   1      22.565 -16.963  -0.525  0.00  0.00    -0.243 N 
ATOM      4  H   UNL d   1      21.726 -16.450  -0.772  0.00  0.00     0.192 HD
ENDROOT
BRANCH   3   5
ATOM      5  N   UNL d   1      23.798 -16.328  -0.593  0.00  0.00    -0.183 NA
ATOM      6  C   UNL d   1      24.399 -16.273  -1.742  0.00  0.00     0.152 C 
BRANCH   6   7
ATOM      7  C   UNL d   1      25.694 -15.605  -1.865  0.00  0.00     0.011 A 
ATOM      8  C   UNL d   1      26.465 -15.143  -0.810  0.00  0.00     0.102 A 
ATOM      9  N   UNL d   1      27.622 -14.596  -1.314  0.00  0.00    -0.364 N 
ATOM     10  C   UNL d   1      27.586 -14.597  -2.689  0.00  0.00     0.043 A 
ATOM     11  H   UNL d   1      28.380 -14.214  -0.764  0.00  0.00     0.165 HD
ATOM     12  C   UNL d   1      28.498 -14.082  -3.624  0.00  0.00     0.030 A 
ATOM     13  C   UNL d   1      26.399 -15.236  -3.059  0.00  0.00     0.004 A 
ATOM     14  C   UNL d   1      28.167 -14.193  -4.979  0.00  0.00     0.002 A 
ATOM     15  C   UNL d   1      26.988 -14.819  -5.378  0.00  0.00     0.001 A 
ATOM     16  C   UNL d   1      26.108 -15.353  -4.432  0.00  0.00     0.014 A 
ENDBRANCH   6   7
ENDBRANCH   3   5
BRANCH   2  17
ATOM     17  C   UNL d   1      21.142 -18.928  -0.021  0.00  0.00     0.033 A 
ATOM     18  C   UNL d   1      20.669 -19.559   1.147  0.00  0.00     0.020 A 
ATOM     19  C   UNL d   1      19.430 -20.229   1.157  0.00  0.00     0.037 A 
ATOM     20  C   UNL d   1      18.677 -20.284  -0.010  0.00  0.00     0.065 A 
ATOM     21  C   UNL d   1      19.152 -19.699  -1.180  0.00  0.00     0.037 A 
ATOM     22  C   UNL d   1      20.379 -19.021  -1.190  0.00  0.00     0.020 A 
BRANCH  20  23
ATOM     23  O   UNL d   1      17.467 -20.908  -0.072  0.00  0.00    -0.361 OA
ATOM     24  H   UNL d   1      17.590 -21.858  -0.231  0.00  0.00     0.217 HD
ENDBRANCH  20  23
ENDBRANCH   2  17
TORSDOF 4
ENDMDL
MODEL 6
REMARK VINA RESULT:    -6.698      4.938      9.632
REMARK INTER + INTRA:          -8.263
REMARK INTER:                  -7.891
REMARK INTRA:                  -0.372
REMARK CONF_INDEPENDENT:        1.193
REMARK UNBOUND:                -0.372
REMARK  4 active torsions:
REMARK  status: ('A' for Active; 'I' for Inactive)
REMARK       I    between atoms: C_2  and  N_3 
REMARK    1  A    between atoms: C_2  and  C_15 
REMARK    2  A    between atoms: N_3  and  N_4 
REMARK    3  A    between atoms: C_5  and  C_6 
REMARK    4  A    between atoms: C_18  and  O_19 
ROOT
ATOM      1  O   UNL d   1      27.162 -12.779  -4.067  0.00  0.00    -0.266 OA
ATOM      2  C   UNL d   1      26.066 -12.496  -4.557  0.00  0.00     0.271 C 
ATOM      3  N   UNL d   1      24.932 -13.314  -4.512  0.00  0.00    -0.243 N 
ATOM      4  H   UNL d   1      24.089 -13.067  -5.020  0.00  0.00     0.192 HD
ENDROOT
BRANCH   3   5
ATOM      5  N   UNL d   1      24.988 -14.524  -3.833  0.00  0.00    -0.183 NA
ATOM      6  C   UNL d   1      25.399 -14.521  -2.602  0.00  0.00     0.152 C 
BRANCH   6   7
ATOM      7  C   UNL d   1      25.464 -15.769  -1.844  0.00  0.00     0.011 A 
ATOM      8  C   UNL d   1      26.608 -16.524  -1.634  0.00  0.00     0.102 A 
ATOM      9  N   UNL d   1      26.283 -17.612  -0.857  0.00  0.00    -0.364 N 
ATOM     10  C   UNL d   1      24.926 -17.644  -0.632  0.00  0.00     0.043 A 
ATOM     11  H   UNL d   1      26.933 -18.311  -0.523  0.00  0.00     0.165 HD
ATOM     12  C   UNL d   1      24.136 -18.594   0.036  0.00  0.00     0.030 A 
ATOM     13  C   UNL d   1      24.394 -16.496  -1.225  0.00  0.00     0.004 A 
ATOM     14  C   UNL d   1      22.754 -18.378   0.067  0.00  0.00     0.002 A 
ATOM     15  C   UNL d   1      22.194 -17.246  -0.520  0.00  0.00     0.001 A 
ATOM     16  C   UNL d   1      23.001 -16.297  -1.153  0.00  0.00     0.014 A 
ENDBRANCH   6   7
ENDBRANCH   3   5
BRANCH   2  17
ATOM     17  C   UNL d   1      25.940 -11.180  -5.266  0.00  0.00     0.033 A 
ATOM     18  C   UNL d   1      26.339 -11.056  -6.613  0.00  0.00     0.020 A 
ATOM     19  C   UNL d   1      26.280  -9.815  -7.274  0.00  0.00     0.037 A 
ATOM     20  C   UNL d   1      25.843  -8.693  -6.578  0.00  0.00     0.065 A 
ATOM     21  C   UNL d   1      25.484  -8.795  -5.237  0.00  0.00     0.037 A 
ATOM     22  C   UNL d   1      25.530 -10.032  -4.580  0.00  0.00     0.020 A 
BRANCH  20  23
ATOM     23  O   UNL d   1      25.753  -7.461  -7.156  0.00  0.00    -0.361 OA
ATOM     24  H   UNL d   1      25.050  -6.945  -6.730  0.00  0.00     0.217 HD
ENDBRANCH  20  23
ENDBRANCH   2  17
TORSDOF 4
ENDMDL
MODEL 7
REMARK VINA RESULT:    -6.180      5.534      9.185
REMARK INTER + INTRA:          -7.696
REMARK INTER:                  -7.374
REMARK INTRA:                  -0.323
REMARK CONF_INDEPENDENT:        1.193
REMARK UNBOUND:                -0.323
REMARK  4 active torsions:
REMARK  status: ('A' for Active; 'I' for Inactive)
REMARK       I    between atoms: C_2  and  N_3 
REMARK    1  A    between atoms: C_2  and  C_15 
REMARK    2  A    between atoms: N_3  and  N_4 
REMARK    3  A    between atoms: C_5  and  C_6 
REMARK    4  A    between atoms: C_18  and  O_19 
ROOT
ATOM      1  O   UNL d   1      26.673 -13.714   3.645  0.00  0.00    -0.266 OA
ATOM      2  C   UNL d   1      27.831 -14.112   3.497  0.00  0.00     0.271 C 
ATOM      3  N   UNL d   1      28.309 -14.788   2.368  0.00  0.00    -0.243 N 
ATOM      4  H   UNL d   1      29.245 -15.176   2.350  0.00  0.00     0.192 HD
ENDROOT
BRANCH   3   5
ATOM      5  N   UNL d   1      27.460 -15.006   1.292  0.00  0.00    -0.183 NA
ATOM      6  C   UNL d   1      27.378 -16.206   0.805  0.00  0.00     0.152 C 
BRANCH   6   7
ATOM      7  C   UNL d   1      26.490 -16.486  -0.322  0.00  0.00     0.011 A 
ATOM      8  C   UNL d   1      26.553 -15.879  -1.567  0.00  0.00     0.102 A 
ATOM      9  N   UNL d   1      25.574 -16.416  -2.371  0.00  0.00    -0.364 N 
ATOM     10  C   UNL d   1      24.799 -17.296  -1.650  0.00  0.00     0.043 A 
ATOM     11  H   UNL d   1      25.415 -16.181  -3.341  0.00  0.00     0.165 HD
ATOM     12  C   UNL d   1      23.655 -18.018  -2.023  0.00  0.00     0.030 A 
ATOM     13  C   UNL d   1      25.360 -17.369  -0.372  0.00  0.00     0.004 A 
ATOM     14  C   UNL d   1      23.046 -18.814  -1.046  0.00  0.00     0.002 A 
ATOM     15  C   UNL d   1      23.577 -18.902   0.238  0.00  0.00     0.001 A 
ATOM     16  C   UNL d   1      24.736 -18.198   0.580  0.00  0.00     0.014 A 
ENDBRANCH   6   7
ENDBRANCH   3   5
BRANCH   2  17
ATOM     17  C   UNL d   1      28.801 -13.864   4.614  0.00  0.00     0.033 A 
ATOM     18  C   UNL d   1      28.810 -14.703   5.747  0.00  0.00     0.020 A 
ATOM     19  C   UNL d   1      29.675 -14.449   6.828  0.00  0.00     0.037 A 
ATOM     20  C   UNL d   1      30.514 -13.342   6.783  0.00  0.00     0.065 A 
ATOM     21  C   UNL d   1      30.486 -12.484   5.688  0.00  0.00     0.037 A 
ATOM     22  C   UNL d   1      29.635 -12.741   4.604  0.00  0.00     0.020 A 
BRANCH  20  23
ATOM     23  O   UNL d   1      31.382 -13.039   7.791  0.00  0.00    -0.361 OA
ATOM     24  H   UNL d   1      32.268 -13.375   7.579  0.00  0.00     0.217 HD
ENDBRANCH  20  23
ENDBRANCH   2  17
TORSDOF 4
ENDMDL
MODEL 8
REMARK VINA RESULT:    -6.163      3.809      5.829
REMARK INTER + INTRA:          -7.744
REMARK INTER:                  -7.356
REMARK INTRA:                  -0.388
REMARK CONF_INDEPENDENT:        1.193
REMARK UNBOUND:                -0.388
REMARK  4 active torsions:
REMARK  status: ('A' for Active; 'I' for Inactive)
REMARK       I    between atoms: C_2  and  N_3 
REMARK    1  A    between atoms: C_2  and  C_15 
REMARK    2  A    between atoms: N_3  and  N_4 
REMARK    3  A    between atoms: C_5  and  C_6 
REMARK    4  A    between atoms: C_18  and  O_19 
ROOT
ATOM      1  O   UNL d   1      26.764 -16.581  -1.860  0.00  0.00    -0.266 OA
ATOM      2  C   UNL d   1      25.604 -16.214  -2.062  0.00  0.00     0.271 C 
ATOM      3  N   UNL d   1      25.228 -15.188  -2.937  0.00  0.00    -0.243 N 
ATOM      4  H   UNL d   1      24.267 -14.868  -2.982  0.00  0.00     0.192 HD
ENDROOT
BRANCH   3   5
ATOM      5  N   UNL d   1      26.198 -14.541  -3.689  0.00  0.00    -0.183 NA
ATOM      6  C   UNL d   1      26.749 -15.188  -4.671  0.00  0.00     0.152 C 
BRANCH   6   7
ATOM      7  C   UNL d   1      27.767 -14.544  -5.498  0.00  0.00     0.011 A 
ATOM      8  C   UNL d   1      27.669 -13.279  -6.057  0.00  0.00     0.102 A 
ATOM      9  N   UNL d   1      28.829 -13.009  -6.746  0.00  0.00    -0.364 N 
ATOM     10  C   UNL d   1      29.653 -14.111  -6.737  0.00  0.00     0.043 A 
ATOM     11  H   UNL d   1      29.041 -12.142  -7.223  0.00  0.00     0.165 HD
ATOM     12  C   UNL d   1      30.891 -14.327  -7.362  0.00  0.00     0.030 A 
ATOM     13  C   UNL d   1      29.020 -15.078  -5.951  0.00  0.00     0.004 A 
ATOM     14  C   UNL d   1      31.483 -15.585  -7.205  0.00  0.00     0.002 A 
ATOM     15  C   UNL d   1      30.874 -16.571  -6.433  0.00  0.00     0.001 A 
ATOM     16  C   UNL d   1      29.655 -16.325  -5.794  0.00  0.00     0.014 A 
ENDBRANCH   6   7
ENDBRANCH   3   5
BRANCH   2  17
ATOM     17  C   UNL d   1      24.512 -16.910  -1.304  0.00  0.00     0.033 A 
ATOM     18  C   UNL d   1      24.710 -18.214  -0.808  0.00  0.00     0.020 A 
ATOM     19  C   UNL d   1      23.675 -18.901  -0.145  0.00  0.00     0.037 A 
ATOM     20  C   UNL d   1      22.436 -18.288   0.000  0.00  0.00     0.065 A 
ATOM     21  C   UNL d   1      22.216 -17.016  -0.520  0.00  0.00     0.037 A 
ATOM     22  C   UNL d   1      23.249 -16.325  -1.170  0.00  0.00     0.020 A 
BRANCH  20  23
ATOM     23  O   UNL d   1      21.391 -18.890   0.637  0.00  0.00    -0.361 OA
ATOM     24  H   UNL d   1      21.688 -19.711   1.061  0.00  0.00     0.217 HD
ENDBRANCH  20  23
ENDBRANCH   2  17
TORSDOF 4
ENDMDL
MODEL 9
REMARK VINA RESULT:    -6.058      5.666      8.411
REMARK INTER + INTRA:          -7.689
REMARK INTER:                  -7.251
REMARK INTRA:                  -0.437
REMARK CONF_INDEPENDENT:        1.193
REMARK UNBOUND:                -0.437
REMARK  4 active torsions:
REMARK  status: ('A' for Active; 'I' for Inactive)
REMARK       I    between atoms: C_2  and  N_3 
REMARK    1  A    between atoms: C_2  and  C_15 
REMARK    2  A    between atoms: N_3  and  N_4 
REMARK    3  A    between atoms: C_5  and  C_6 
REMARK    4  A    between atoms: C_18  and  O_19 
ROOT
ATOM      1  O   UNL d   1      26.707 -13.321   2.581  0.00  0.00    -0.266 OA
ATOM      2  C   UNL d   1      27.687 -14.036   2.807  0.00  0.00     0.271 C 
ATOM      3  N   UNL d   1      28.294 -14.884   1.873  0.00  0.00    -0.243 N 
ATOM      4  H   UNL d   1      29.034 -15.520   2.149  0.00  0.00     0.192 HD
ENDROOT
BRANCH   3   5
ATOM      5  N   UNL d   1      27.818 -14.917   0.569  0.00  0.00    -0.183 NA
ATOM      6  C   UNL d   1      26.685 -15.507   0.342  0.00  0.00     0.152 C 
BRANCH   6   7
ATOM      7  C   UNL d   1      26.139 -15.557  -1.014  0.00  0.00     0.011 A 
ATOM      8  C   UNL d   1      25.664 -16.695  -1.648  0.00  0.00     0.102 A 
ATOM      9  N   UNL d   1      25.211 -16.346  -2.899  0.00  0.00    -0.364 N 
ATOM     10  C   UNL d   1      25.468 -15.016  -3.143  0.00  0.00     0.043 A 
ATOM     11  H   UNL d   1      24.780 -16.974  -3.565  0.00  0.00     0.165 HD
ATOM     12  C   UNL d   1      25.253 -14.244  -4.295  0.00  0.00     0.030 A 
ATOM     13  C   UNL d   1      26.033 -14.497  -1.974  0.00  0.00     0.004 A 
ATOM     14  C   UNL d   1      25.663 -12.906  -4.261  0.00  0.00     0.002 A 
ATOM     15  C   UNL d   1      26.235 -12.362  -3.114  0.00  0.00     0.001 A 
ATOM     16  C   UNL d   1      26.411 -13.141  -1.967  0.00  0.00     0.014 A 
ENDBRANCH   6   7
ENDBRANCH   3   5
BRANCH   2  17
ATOM     17  C   UNL d   1      28.266 -14.007   4.190  0.00  0.00     0.033 A 
ATOM     18  C   UNL d   1      29.388 -14.799   4.509  0.00  0.00     0.020 A 
ATOM     19  C   UNL d   1      29.907 -14.825   5.818  0.00  0.00     0.037 A 
ATOM     20  C   UNL d   1      29.287 -14.075   6.811  0.00  0.00     0.065 A 
ATOM     21  C   UNL d   1      28.155 -13.320   6.517  0.00  0.00     0.037 A 
ATOM     22  C   UNL d   1      27.643 -13.282   5.212  0.00  0.00     0.020 A 
BRANCH  20  23
ATOM     23  O   UNL d   1      29.739 -14.047   8.097  0.00  0.00    -0.361 OA
ATOM     24  H   UNL d   1      30.030 -14.933   8.366  0.00  0.00     0.217 HD
ENDBRANCH  20  23
ENDBRANCH   2  17
TORSDOF 4
ENDMDL
