MODEL 1
REMARK VINA RESULT:    -9.518      0.000      0.000
REMARK INTER + INTRA:         -13.365
REMARK INTER:                 -11.606
REMARK INTRA:                  -1.759
REMARK CONF_INDEPENDENT:        2.088
REMARK UNBOUND:                -1.759
REMARK  7 active torsions:
REMARK  status: ('A' for Active; 'I' for Inactive)
REMARK    1  A    between atoms: C_2  and  C_3 
REMARK       I    between atoms: C_2  and  N_20 
REMARK    2  A    between atoms: C_3  and  N_4 
REMARK    3  A    between atoms: N_4  and  C_5 
REMARK    4  A    between atoms: C_8  and  C_9 
REMARK       I    between atoms: C_9  and  N_11 
REMARK    5  A    between atoms: N_11  and  C_12 
REMARK    6  A    between atoms: C_12  and  C_13 
REMARK    7  A    between atoms: N_20  and  C_21 
ROOT
ATOM      1  C   UNL d   1      26.469 -17.566  -0.386  0.00  0.00     0.028 C 
ATOM      2  C   UNL d   1      25.684 -18.201   0.578  0.00  0.00     0.030 C 
ATOM      3  C   UNL d   1      24.299 -18.361   0.390  0.00  0.00     0.019 C 
ATOM      4  C   UNL d   1      23.648 -17.800  -0.717  0.00  0.00     0.032 C 
ATOM      5  C   UNL d   1      24.423 -17.079  -1.632  0.00  0.00     0.019 C 
ATOM      6  C   UNL d   1      25.806 -16.940  -1.445  0.00  0.00     0.030 C 
ENDROOT
BRANCH   1   7
ATOM      7  N   UNL d   1      27.850 -17.579  -0.299  0.00  0.00    -0.381 N 
ATOM      8  H   UNL d   1      28.304 -17.769   0.590  0.00  0.00     0.160 HD
BRANCH   7   9
ATOM      9  C   UNL d   1      28.662 -16.904  -1.304  0.00  0.00     0.223 C 
BRANCH   9  10
ATOM     10  C   UNL d   1      29.021 -15.457  -0.910  0.00  0.00     0.239 C 
ATOM     11  O   UNL d   1      29.796 -15.200   0.016  0.00  0.00    -0.271 OA
ATOM     12  N   UNL d   1      28.558 -14.422  -1.700  0.00  0.00    -0.324 N 
ATOM     13  H   UNL d   1      29.045 -13.544  -1.552  0.00  0.00     0.169 HD
BRANCH  12  14
ATOM     14  C   UNL d   1      27.571 -14.474  -2.706  0.00  0.00     0.056 C 
ATOM     15  C   UNL d   1      26.263 -14.098  -2.366  0.00  0.00     0.031 C 
ATOM     16  C   UNL d   1      25.243 -14.144  -3.324  0.00  0.00     0.002 C 
ATOM     17  C   UNL d   1      25.537 -14.475  -4.645  0.00  0.00     0.002 C 
ATOM     18  C   UNL d   1      26.823 -14.870  -4.988  0.00  0.00     0.026 C 
ATOM     19  C   UNL d   1      27.808 -14.957  -4.006  0.00  0.00     0.060 C 
ATOM     20 CL   UNL d   1      29.174 -15.953  -4.411  0.00  0.00    -0.082 Cl
ENDBRANCH  12  14
ENDBRANCH   9  10
ENDBRANCH   7   9
ENDBRANCH   1   7
BRANCH   4  21
ATOM     21  C   UNL d   1      22.153 -17.972  -0.835  0.00  0.00     0.251 C 
ATOM     22  O   UNL d   1      21.420 -16.998  -0.895  0.00  0.00    -0.268 OA
ATOM     23  N   UNL d   1      21.670 -19.262  -0.892  0.00  0.00    -0.351 N 
ATOM     24  H   UNL d   1      22.313 -20.029  -0.915  0.00  0.00     0.163 HD
BRANCH  23  25
ATOM     25  C   UNL d   1      20.254 -19.574  -1.053  0.00  0.00     0.187 C 
BRANCH  25  26
ATOM     26  C   UNL d   1      19.702 -20.019   0.263  0.00  0.00     0.070 A 
ATOM     27  C   UNL d   1      20.025 -19.709   1.572  0.00  0.00     0.036 A 
ATOM     28  C   UNL d   1      19.160 -20.449   2.403  0.00  0.00     0.027 A 
ATOM     29  C   UNL d   1      18.335 -21.154   1.559  0.00  0.00     0.142 A 
ATOM     30  O   UNL d   1      18.656 -20.904   0.257  0.00  0.00    -0.325 OA
ENDBRANCH  25  26
ENDBRANCH  23  25
ENDBRANCH   4  21
TORSDOF 7
ENDMDL
MODEL 2
REMARK VINA RESULT:    -9.318      3.523      4.818
REMARK INTER + INTRA:         -13.380
REMARK INTER:                 -11.406
REMARK INTRA:                  -1.974
REMARK CONF_INDEPENDENT:        2.088
REMARK UNBOUND:                -1.974
REMARK  7 active torsions:
REMARK  status: ('A' for Active; 'I' for Inactive)
REMARK    1  A    between atoms: C_2  and  C_3 
REMARK       I    between atoms: C_2  and  N_20 
REMARK    2  A    between atoms: C_3  and  N_4 
REMARK    3  A    between atoms: N_4  and  C_5 
REMARK    4  A    between atoms: C_8  and  C_9 
REMARK       I    between atoms: C_9  and  N_11 
REMARK    5  A    between atoms: N_11  and  C_12 
REMARK    6  A    between atoms: C_12  and  C_13 
REMARK    7  A    between atoms: N_20  and  C_21 
ROOT
ATOM      1  C   UNL d   1      26.649 -16.620   0.339  0.00  0.00     0.028 C 
ATOM      2  C   UNL d   1      25.801 -15.949  -0.544  0.00  0.00     0.030 C 
ATOM      3  C   UNL d   1      24.613 -16.548  -1.001  0.00  0.00     0.019 C 
ATOM      4  C   UNL d   1      24.295 -17.873  -0.669  0.00  0.00     0.032 C 
ATOM      5  C   UNL d   1      25.196 -18.577   0.136  0.00  0.00     0.019 C 
ATOM      6  C   UNL d   1      26.370 -17.965   0.601  0.00  0.00     0.030 C 
ENDROOT
BRANCH   1   7
ATOM      7  N   UNL d   1      27.709 -15.967   0.942  0.00  0.00    -0.381 N 
ATOM      8  H   UNL d   1      28.038 -16.265   1.857  0.00  0.00     0.160 HD
BRANCH   7   9
ATOM      9  C   UNL d   1      28.076 -14.617   0.534  0.00  0.00     0.223 C 
BRANCH   9  10
ATOM     10  C   UNL d   1      27.111 -13.544   1.080  0.00  0.00     0.239 C 
ATOM     11  O   UNL d   1      26.311 -12.947   0.354  0.00  0.00    -0.271 OA
ATOM     12  N   UNL d   1      27.056 -13.338   2.446  0.00  0.00    -0.324 N 
ATOM     13  H   UNL d   1      26.229 -12.835   2.751  0.00  0.00     0.169 HD
BRANCH  12  14
ATOM     14  C   UNL d   1      27.954 -13.803   3.430  0.00  0.00     0.056 C 
ATOM     15  C   UNL d   1      27.422 -14.450   4.554  0.00  0.00     0.031 C 
ATOM     16  C   UNL d   1      28.269 -14.919   5.566  0.00  0.00     0.002 C 
ATOM     17  C   UNL d   1      29.651 -14.827   5.422  0.00  0.00     0.002 C 
ATOM     18  C   UNL d   1      30.188 -14.168   4.323  0.00  0.00     0.026 C 
ATOM     19  C   UNL d   1      29.342 -13.581   3.384  0.00  0.00     0.060 C 
ATOM     20 CL   UNL d   1      30.073 -12.354   2.392  0.00  0.00    -0.082 Cl
ENDBRANCH  12  14
ENDBRANCH   9  10
ENDBRANCH   7   9
ENDBRANCH   1   7
BRANCH   4  21
ATOM     21  C   UNL d   1      23.027 -18.469  -1.230  0.00  0.00     0.251 C 
ATOM     22  O   UNL d   1      23.035 -19.042  -2.307  0.00  0.00    -0.268 OA
ATOM     23  N   UNL d   1      21.885 -18.354  -0.466  0.00  0.00    -0.351 N 
ATOM     24  H   UNL d   1      21.940 -17.941   0.445  0.00  0.00     0.163 HD
BRANCH  23  25
ATOM     25  C   UNL d   1      20.602 -18.923  -0.862  0.00  0.00     0.187 C 
BRANCH  25  26
ATOM     26  C   UNL d   1      19.975 -19.581   0.326  0.00  0.00     0.070 A 
ATOM     27  C   UNL d   1      18.870 -20.400   0.474  0.00  0.00     0.036 A 
ATOM     28  C   UNL d   1      18.758 -20.706   1.846  0.00  0.00     0.027 A 
ATOM     29  C   UNL d   1      19.814 -20.079   2.462  0.00  0.00     0.142 A 
ATOM     30  O   UNL d   1      20.559 -19.389   1.551  0.00  0.00    -0.325 OA
ENDBRANCH  25  26
ENDBRANCH  23  25
ENDBRANCH   4  21
TORSDOF 7
ENDMDL
MODEL 3
REMARK VINA RESULT:    -8.837      1.991      2.467
REMARK INTER + INTRA:         -12.365
REMARK INTER:                 -10.925
REMARK INTRA:                  -1.440
REMARK CONF_INDEPENDENT:        2.088
REMARK UNBOUND:                -1.440
REMARK  7 active torsions:
REMARK  status: ('A' for Active; 'I' for Inactive)
REMARK    1  A    between atoms: C_2  and  C_3 
REMARK       I    between atoms: C_2  and  N_20 
REMARK    2  A    between atoms: C_3  and  N_4 
REMARK    3  A    between atoms: N_4  and  C_5 
REMARK    4  A    between atoms: C_8  and  C_9 
REMARK       I    between atoms: C_9  and  N_11 
REMARK    5  A    between atoms: N_11  and  C_12 
REMARK    6  A    between atoms: C_12  and  C_13 
REMARK    7  A    between atoms: N_20  and  C_21 
ROOT
ATOM      1  C   UNL d   1      26.777 -17.422  -0.337  0.00  0.00     0.028 C 
ATOM      2  C   UNL d   1      26.036 -18.502   0.146  0.00  0.00     0.030 C 
ATOM      3  C   UNL d   1      24.649 -18.585  -0.076  0.00  0.00     0.019 C 
ATOM      4  C   UNL d   1      23.952 -17.540  -0.697  0.00  0.00     0.032 C 
ATOM      5  C   UNL d   1      24.681 -16.414  -1.092  0.00  0.00     0.019 C 
ATOM      6  C   UNL d   1      26.067 -16.349  -0.882  0.00  0.00     0.030 C 
ENDROOT
BRANCH   1   7
ATOM      7  N   UNL d   1      28.160 -17.432  -0.294  0.00  0.00    -0.381 N 
ATOM      8  H   UNL d   1      28.642 -17.642   0.576  0.00  0.00     0.160 HD
BRANCH   7   9
ATOM      9  C   UNL d   1      28.937 -16.729  -1.307  0.00  0.00     0.223 C 
BRANCH   9  10
ATOM     10  C   UNL d   1      30.371 -17.281  -1.451  0.00  0.00     0.239 C 
ATOM     11  O   UNL d   1      30.999 -17.739  -0.492  0.00  0.00    -0.271 OA
ATOM     12  N   UNL d   1      30.917 -17.380  -2.716  0.00  0.00    -0.324 N 
ATOM     13  H   UNL d   1      31.727 -17.990  -2.767  0.00  0.00     0.169 HD
BRANCH  12  14
ATOM     14  C   UNL d   1      30.441 -16.805  -3.914  0.00  0.00     0.056 C 
ATOM     15  C   UNL d   1      29.907 -15.510  -3.856  0.00  0.00     0.031 C 
ATOM     16  C   UNL d   1      29.410 -14.899  -5.014  0.00  0.00     0.002 C 
ATOM     17  C   UNL d   1      29.524 -15.536  -6.247  0.00  0.00     0.002 C 
ATOM     18  C   UNL d   1      30.031 -16.828  -6.313  0.00  0.00     0.026 C 
ATOM     19  C   UNL d   1      30.400 -17.489  -5.142  0.00  0.00     0.060 C 
ATOM     20 CL   UNL d   1      30.489 -19.221  -5.266  0.00  0.00    -0.082 Cl
ENDBRANCH  12  14
ENDBRANCH   9  10
ENDBRANCH   7   9
ENDBRANCH   1   7
BRANCH   4  21
ATOM     21  C   UNL d   1      22.458 -17.674  -0.864  0.00  0.00     0.251 C 
ATOM     22  O   UNL d   1      21.746 -16.683  -0.895  0.00  0.00    -0.268 OA
ATOM     23  N   UNL d   1      21.951 -18.948  -0.999  0.00  0.00    -0.351 N 
ATOM     24  H   UNL d   1      22.578 -19.728  -1.041  0.00  0.00     0.163 HD
BRANCH  23  25
ATOM     25  C   UNL d   1      20.534 -19.223  -1.214  0.00  0.00     0.187 C 
BRANCH  25  26
ATOM     26  C   UNL d   1      19.940 -19.739   0.058  0.00  0.00     0.070 A 
ATOM     27  C   UNL d   1      18.790 -20.454   0.337  0.00  0.00     0.036 A 
ATOM     28  C   UNL d   1      18.747 -20.649   1.732  0.00  0.00     0.027 A 
ATOM     29  C   UNL d   1      19.886 -20.065   2.232  0.00  0.00     0.142 A 
ATOM     30  O   UNL d   1      20.618 -19.506   1.226  0.00  0.00    -0.325 OA
ENDBRANCH  25  26
ENDBRANCH  23  25
ENDBRANCH   4  21
TORSDOF 7
ENDMDL
MODEL 4
REMARK VINA RESULT:    -8.814      1.483      1.820
REMARK INTER + INTRA:         -13.575
REMARK INTER:                 -10.902
REMARK INTRA:                  -2.673
REMARK CONF_INDEPENDENT:        2.088
REMARK UNBOUND:                -2.673
REMARK  7 active torsions:
REMARK  status: ('A' for Active; 'I' for Inactive)
REMARK    1  A    between atoms: C_2  and  C_3 
REMARK       I    between atoms: C_2  and  N_20 
REMARK    2  A    between atoms: C_3  and  N_4 
REMARK    3  A    between atoms: N_4  and  C_5 
REMARK    4  A    between atoms: C_8  and  C_9 
REMARK       I    between atoms: C_9  and  N_11 
REMARK    5  A    between atoms: N_11  and  C_12 
REMARK    6  A    between atoms: C_12  and  C_13 
REMARK    7  A    between atoms: N_20  and  C_21 
ROOT
ATOM      1  C   UNL d   1      26.333 -16.456   0.088  0.00  0.00     0.028 C 
ATOM      2  C   UNL d   1      25.345 -15.852  -0.691  0.00  0.00     0.030 C 
ATOM      3  C   UNL d   1      24.207 -16.570  -1.100  0.00  0.00     0.019 C 
ATOM      4  C   UNL d   1      24.078 -17.940  -0.828  0.00  0.00     0.032 C 
ATOM      5  C   UNL d   1      25.117 -18.566  -0.132  0.00  0.00     0.019 C 
ATOM      6  C   UNL d   1      26.240 -17.837   0.287  0.00  0.00     0.030 C 
ENDROOT
BRANCH   1   7
ATOM      7  N   UNL d   1      27.350 -15.708   0.655  0.00  0.00    -0.381 N 
ATOM      8  H   UNL d   1      28.041 -16.155   1.252  0.00  0.00     0.160 HD
BRANCH   7   9
ATOM      9  C   UNL d   1      27.216 -14.263   0.797  0.00  0.00     0.223 C 
BRANCH   9  10
ATOM     10  C   UNL d   1      28.383 -13.489   0.152  0.00  0.00     0.239 C 
ATOM     11  O   UNL d   1      29.301 -13.003   0.820  0.00  0.00    -0.271 OA
ATOM     12  N   UNL d   1      28.468 -13.447  -1.228  0.00  0.00    -0.324 N 
ATOM     13  H   UNL d   1      29.381 -13.170  -1.574  0.00  0.00     0.169 HD
BRANCH  12  14
ATOM     14  C   UNL d   1      27.481 -13.810  -2.168  0.00  0.00     0.056 C 
ATOM     15  C   UNL d   1      26.334 -13.009  -2.262  0.00  0.00     0.031 C 
ATOM     16  C   UNL d   1      25.319 -13.332  -3.171  0.00  0.00     0.002 C 
ATOM     17  C   UNL d   1      25.480 -14.400  -4.051  0.00  0.00     0.002 C 
ATOM     18  C   UNL d   1      26.602 -15.214  -3.951  0.00  0.00     0.026 C 
ATOM     19  C   UNL d   1      27.547 -14.974  -2.956  0.00  0.00     0.060 C 
ATOM     20 CL   UNL d   1      28.579 -16.320  -2.574  0.00  0.00    -0.082 Cl
ENDBRANCH  12  14
ENDBRANCH   9  10
ENDBRANCH   7   9
ENDBRANCH   1   7
BRANCH   4  21
ATOM     21  C   UNL d   1      22.853 -18.660  -1.335  0.00  0.00     0.251 C 
ATOM     22  O   UNL d   1      22.896 -19.305  -2.370  0.00  0.00    -0.268 OA
ATOM     23  N   UNL d   1      21.709 -18.571  -0.571  0.00  0.00    -0.351 N 
ATOM     24  H   UNL d   1      21.738 -18.093   0.309  0.00  0.00     0.163 HD
BRANCH  23  25
ATOM     25  C   UNL d   1      20.467 -19.255  -0.915  0.00  0.00     0.187 C 
BRANCH  25  26
ATOM     26  C   UNL d   1      19.856 -19.810   0.332  0.00  0.00     0.070 A 
ATOM     27  C   UNL d   1      18.786 -20.656   0.560  0.00  0.00     0.036 A 
ATOM     28  C   UNL d   1      18.673 -20.821   1.955  0.00  0.00     0.027 A 
ATOM     29  C   UNL d   1      19.695 -20.087   2.508  0.00  0.00     0.142 A 
ATOM     30  O   UNL d   1      20.419 -19.465   1.533  0.00  0.00    -0.325 OA
ENDBRANCH  25  26
ENDBRANCH  23  25
ENDBRANCH   4  21
TORSDOF 7
ENDMDL
MODEL 5
REMARK VINA RESULT:    -8.451      2.168      3.659
REMARK INTER + INTRA:         -12.239
REMARK INTER:                 -10.539
REMARK INTRA:                  -1.699
REMARK CONF_INDEPENDENT:        2.088
REMARK UNBOUND:                -1.699
REMARK  7 active torsions:
REMARK  status: ('A' for Active; 'I' for Inactive)
REMARK    1  A    between atoms: C_2  and  C_3 
REMARK       I    between atoms: C_2  and  N_20 
REMARK    2  A    between atoms: C_3  and  N_4 
REMARK    3  A    between atoms: N_4  and  C_5 
REMARK    4  A    between atoms: C_8  and  C_9 
REMARK       I    between atoms: C_9  and  N_11 
REMARK    5  A    between atoms: N_11  and  C_12 
REMARK    6  A    between atoms: C_12  and  C_13 
REMARK    7  A    between atoms: N_20  and  C_21 
ROOT
ATOM      1  C   UNL d   1      26.595 -17.151   0.081  0.00  0.00     0.028 C 
ATOM      2  C   UNL d   1      25.860 -18.218   0.602  0.00  0.00     0.030 C 
ATOM      3  C   UNL d   1      24.503 -18.389   0.274  0.00  0.00     0.019 C 
ATOM      4  C   UNL d   1      23.819 -17.439  -0.499  0.00  0.00     0.032 C 
ATOM      5  C   UNL d   1      24.533 -16.319  -0.938  0.00  0.00     0.019 C 
ATOM      6  C   UNL d   1      25.891 -16.168  -0.620  0.00  0.00     0.030 C 
ENDROOT
BRANCH   1   7
ATOM      7  N   UNL d   1      27.968 -17.088   0.240  0.00  0.00    -0.381 N 
ATOM      8  H   UNL d   1      28.366 -16.710   1.095  0.00  0.00     0.160 HD
BRANCH   7   9
ATOM      9  C   UNL d   1      28.850 -17.123  -0.920  0.00  0.00     0.223 C 
BRANCH   9  10
ATOM     10  C   UNL d   1      28.943 -15.762  -1.641  0.00  0.00     0.239 C 
ATOM     11  O   UNL d   1      28.665 -15.629  -2.836  0.00  0.00    -0.271 OA
ATOM     12  N   UNL d   1      29.226 -14.635  -0.892  0.00  0.00    -0.324 N 
ATOM     13  H   UNL d   1      29.004 -13.763  -1.363  0.00  0.00     0.169 HD
BRANCH  12  14
ATOM     14  C   UNL d   1      29.700 -14.572   0.435  0.00  0.00     0.056 C 
ATOM     15  C   UNL d   1      30.940 -15.161   0.720  0.00  0.00     0.031 C 
ATOM     16  C   UNL d   1      31.450 -15.137   2.025  0.00  0.00     0.002 C 
ATOM     17  C   UNL d   1      30.773 -14.450   3.030  0.00  0.00     0.002 C 
ATOM     18  C   UNL d   1      29.533 -13.883   2.763  0.00  0.00     0.026 C 
ATOM     19  C   UNL d   1      28.962 -14.024   1.500  0.00  0.00     0.060 C 
ATOM     20 CL   UNL d   1      27.242 -13.776   1.432  0.00  0.00    -0.082 Cl
ENDBRANCH  12  14
ENDBRANCH   9  10
ENDBRANCH   7   9
ENDBRANCH   1   7
BRANCH   4  21
ATOM     21  C   UNL d   1      22.352 -17.661  -0.776  0.00  0.00     0.251 C 
ATOM     22  O   UNL d   1      21.593 -16.713  -0.895  0.00  0.00    -0.268 OA
ATOM     23  N   UNL d   1      21.927 -18.966  -0.908  0.00  0.00    -0.351 N 
ATOM     24  H   UNL d   1      22.596 -19.710  -0.877  0.00  0.00     0.163 HD
BRANCH  23  25
ATOM     25  C   UNL d   1      20.548 -19.325  -1.223  0.00  0.00     0.187 C 
BRANCH  25  26
ATOM     26  C   UNL d   1      19.891 -19.860   0.010  0.00  0.00     0.070 A 
ATOM     27  C   UNL d   1      20.127 -19.670   1.359  0.00  0.00     0.036 A 
ATOM     28  C   UNL d   1      19.186 -20.450   2.062  0.00  0.00     0.027 A 
ATOM     29  C   UNL d   1      18.407 -21.057   1.106  0.00  0.00     0.142 A 
ATOM     30  O   UNL d   1      18.827 -20.710  -0.144  0.00  0.00    -0.325 OA
ENDBRANCH  25  26
ENDBRANCH  23  25
ENDBRANCH   4  21
TORSDOF 7
ENDMDL
MODEL 6
REMARK VINA RESULT:    -8.213      4.911      8.232
REMARK INTER + INTRA:         -11.995
REMARK INTER:                 -10.301
REMARK INTRA:                  -1.694
REMARK CONF_INDEPENDENT:        2.088
REMARK UNBOUND:                -1.694
REMARK  7 active torsions:
REMARK  status: ('A' for Active; 'I' for Inactive)
REMARK    1  A    between atoms: C_2  and  C_3 
REMARK       I    between atoms: C_2  and  N_20 
REMARK    2  A    between atoms: C_3  and  N_4 
REMARK    3  A    between atoms: N_4  and  C_5 
REMARK    4  A    between atoms: C_8  and  C_9 
REMARK       I    between atoms: C_9  and  N_11 
REMARK    5  A    between atoms: N_11  and  C_12 
REMARK    6  A    between atoms: C_12  and  C_13 
REMARK    7  A    between atoms: N_20  and  C_21 
ROOT
ATOM      1  C   UNL d   1      27.140 -13.464  -0.311  0.00  0.00     0.028 C 
ATOM      2  C   UNL d   1      27.918 -14.519   0.168  0.00  0.00     0.030 C 
ATOM      3  C   UNL d   1      28.050 -14.752   1.548  0.00  0.00     0.019 C 
ATOM      4  C   UNL d   1      27.492 -13.873   2.488  0.00  0.00     0.032 C 
ATOM      5  C   UNL d   1      26.796 -12.760   2.006  0.00  0.00     0.019 C 
ATOM      6  C   UNL d   1      26.654 -12.547   0.626  0.00  0.00     0.030 C 
ENDROOT
BRANCH   1   7
ATOM      7  N   UNL d   1      26.847 -13.349  -1.659  0.00  0.00    -0.381 N 
ATOM      8  H   UNL d   1      26.251 -12.594  -1.989  0.00  0.00     0.160 HD
BRANCH   7   9
ATOM      9  C   UNL d   1      26.984 -14.496  -2.547  0.00  0.00     0.223 C 
BRANCH   9  10
ATOM     10  C   UNL d   1      25.628 -15.012  -3.071  0.00  0.00     0.239 C 
ATOM     11  O   UNL d   1      25.024 -14.458  -3.994  0.00  0.00    -0.271 OA
ATOM     12  N   UNL d   1      25.138 -16.206  -2.573  0.00  0.00    -0.324 N 
ATOM     13  H   UNL d   1      24.405 -16.617  -3.142  0.00  0.00     0.169 HD
BRANCH  12  14
ATOM     14  C   UNL d   1      25.585 -16.923  -1.444  0.00  0.00     0.056 C 
ATOM     15  C   UNL d   1      26.968 -17.083  -1.270  0.00  0.00     0.031 C 
ATOM     16  C   UNL d   1      27.463 -17.797  -0.172  0.00  0.00     0.002 C 
ATOM     17  C   UNL d   1      26.592 -18.277   0.803  0.00  0.00     0.002 C 
ATOM     18  C   UNL d   1      25.221 -18.143   0.630  0.00  0.00     0.026 C 
ATOM     19  C   UNL d   1      24.722 -17.553  -0.530  0.00  0.00     0.060 C 
ATOM     20 CL   UNL d   1      23.062 -17.922  -0.894  0.00  0.00    -0.082 Cl
ENDBRANCH  12  14
ENDBRANCH   9  10
ENDBRANCH   7   9
ENDBRANCH   1   7
BRANCH   4  21
ATOM     21  C   UNL d   1      27.710 -14.157   3.954  0.00  0.00     0.251 C 
ATOM     22  O   UNL d   1      26.876 -13.824   4.780  0.00  0.00    -0.268 OA
ATOM     23  N   UNL d   1      28.868 -14.819   4.302  0.00  0.00    -0.351 N 
ATOM     24  H   UNL d   1      29.489 -15.139   3.584  0.00  0.00     0.163 HD
BRANCH  23  25
ATOM     25  C   UNL d   1      29.185 -15.200   5.674  0.00  0.00     0.187 C 
BRANCH  25  26
ATOM     26  C   UNL d   1      29.106 -13.987   6.546  0.00  0.00     0.070 A 
ATOM     27  C   UNL d   1      28.906 -13.815   7.903  0.00  0.00     0.036 A 
ATOM     28  C   UNL d   1      28.919 -12.428   8.155  0.00  0.00     0.027 A 
ATOM     29  C   UNL d   1      29.151 -11.824   6.943  0.00  0.00     0.142 A 
ATOM     30  O   UNL d   1      29.263 -12.760   5.956  0.00  0.00    -0.325 OA
ENDBRANCH  25  26
ENDBRANCH  23  25
ENDBRANCH   4  21
TORSDOF 7
ENDMDL
MODEL 7
REMARK VINA RESULT:    -8.054      3.469      4.158
REMARK INTER + INTRA:         -12.046
REMARK INTER:                 -10.142
REMARK INTRA:                  -1.903
REMARK CONF_INDEPENDENT:        2.088
REMARK UNBOUND:                -1.903
REMARK  7 active torsions:
REMARK  status: ('A' for Active; 'I' for Inactive)
REMARK    1  A    between atoms: C_2  and  C_3 
REMARK       I    between atoms: C_2  and  N_20 
REMARK    2  A    between atoms: C_3  and  N_4 
REMARK    3  A    between atoms: N_4  and  C_5 
REMARK    4  A    between atoms: C_8  and  C_9 
REMARK       I    between atoms: C_9  and  N_11 
REMARK    5  A    between atoms: N_11  and  C_12 
REMARK    6  A    between atoms: C_12  and  C_13 
REMARK    7  A    between atoms: N_20  and  C_21 
ROOT
ATOM      1  C   UNL d   1      26.586 -16.654   0.264  0.00  0.00     0.028 C 
ATOM      2  C   UNL d   1      25.768 -16.012  -0.667  0.00  0.00     0.030 C 
ATOM      3  C   UNL d   1      24.566 -16.601  -1.101  0.00  0.00     0.019 C 
ATOM      4  C   UNL d   1      24.206 -17.894  -0.695  0.00  0.00     0.032 C 
ATOM      5  C   UNL d   1      25.078 -18.576   0.160  0.00  0.00     0.019 C 
ATOM      6  C   UNL d   1      26.264 -17.972   0.602  0.00  0.00     0.030 C 
ENDROOT
BRANCH   1   7
ATOM      7  N   UNL d   1      27.660 -15.998   0.839  0.00  0.00    -0.381 N 
ATOM      8  H   UNL d   1      28.253 -16.481   1.510  0.00  0.00     0.160 HD
BRANCH   7   9
ATOM      9  C   UNL d   1      27.710 -14.542   0.868  0.00  0.00     0.223 C 
BRANCH   9  10
ATOM     10  C   UNL d   1      29.130 -13.997   1.128  0.00  0.00     0.239 C 
ATOM     11  O   UNL d   1      30.132 -14.715   1.067  0.00  0.00    -0.271 OA
ATOM     12  N   UNL d   1      29.293 -12.636   1.309  0.00  0.00    -0.324 N 
ATOM     13  H   UNL d   1      30.251 -12.320   1.200  0.00  0.00     0.169 HD
BRANCH  12  14
ATOM     14  C   UNL d   1      28.295 -11.667   1.546  0.00  0.00     0.056 C 
ATOM     15  C   UNL d   1      28.126 -10.651   0.594  0.00  0.00     0.031 C 
ATOM     16  C   UNL d   1      27.158  -9.657   0.787  0.00  0.00     0.002 C 
ATOM     17  C   UNL d   1      26.295  -9.722   1.879  0.00  0.00     0.002 C 
ATOM     18  C   UNL d   1      26.469 -10.711   2.838  0.00  0.00     0.026 C 
ATOM     19  C   UNL d   1      27.519 -11.619   2.718  0.00  0.00     0.060 C 
ATOM     20 CL   UNL d   1      27.972 -12.429   4.188  0.00  0.00    -0.082 Cl
ENDBRANCH  12  14
ENDBRANCH   9  10
ENDBRANCH   7   9
ENDBRANCH   1   7
BRANCH   4  21
ATOM     21  C   UNL d   1      22.926 -18.484  -1.235  0.00  0.00     0.251 C 
ATOM     22  O   UNL d   1      22.923 -19.101  -2.288  0.00  0.00    -0.268 OA
ATOM     23  N   UNL d   1      21.786 -18.313  -0.479  0.00  0.00    -0.351 N 
ATOM     24  H   UNL d   1      21.848 -17.864   0.415  0.00  0.00     0.163 HD
BRANCH  23  25
ATOM     25  C   UNL d   1      20.491 -18.870  -0.854  0.00  0.00     0.187 C 
BRANCH  25  26
ATOM     26  C   UNL d   1      19.893 -19.554   0.334  0.00  0.00     0.070 A 
ATOM     27  C   UNL d   1      18.812 -20.403   0.485  0.00  0.00     0.036 A 
ATOM     28  C   UNL d   1      18.721 -20.725   1.855  0.00  0.00     0.027 A 
ATOM     29  C   UNL d   1      19.767 -20.076   2.466  0.00  0.00     0.142 A 
ATOM     30  O   UNL d   1      20.485 -19.359   1.554  0.00  0.00    -0.325 OA
ENDBRANCH  25  26
ENDBRANCH  23  25
ENDBRANCH   4  21
TORSDOF 7
ENDMDL
MODEL 8
REMARK VINA RESULT:    -7.903      6.967      9.390
REMARK INTER + INTRA:         -12.031
REMARK INTER:                  -9.991
REMARK INTRA:                  -2.040
REMARK CONF_INDEPENDENT:        2.088
REMARK UNBOUND:                -2.040
REMARK  7 active torsions:
REMARK  status: ('A' for Active; 'I' for Inactive)
REMARK    1  A    between atoms: C_2  and  C_3 
REMARK       I    between atoms: C_2  and  N_20 
REMARK    2  A    between atoms: C_3  and  N_4 
REMARK    3  A    between atoms: N_4  and  C_5 
REMARK    4  A    between atoms: C_8  and  C_9 
REMARK       I    between atoms: C_9  and  N_11 
REMARK    5  A    between atoms: N_11  and  C_12 
REMARK    6  A    between atoms: C_12  and  C_13 
REMARK    7  A    between atoms: N_20  and  C_21 
ROOT
ATOM      1  C   UNL d   1      27.842 -14.339   3.090  0.00  0.00     0.028 C 
ATOM      2  C   UNL d   1      27.639 -12.958   3.075  0.00  0.00     0.030 C 
ATOM      3  C   UNL d   1      27.870 -12.181   4.225  0.00  0.00     0.019 C 
ATOM      4  C   UNL d   1      28.209 -12.779   5.447  0.00  0.00     0.032 C 
ATOM      5  C   UNL d   1      28.315 -14.173   5.483  0.00  0.00     0.019 C 
ATOM      6  C   UNL d   1      28.100 -14.937   4.326  0.00  0.00     0.030 C 
ENDROOT
BRANCH   1   7
ATOM      7  N   UNL d   1      27.807 -15.076   1.919  0.00  0.00    -0.381 N 
ATOM      8  H   UNL d   1      28.551 -15.737   1.710  0.00  0.00     0.160 HD
BRANCH   7   9
ATOM      9  C   UNL d   1      27.006 -14.630   0.786  0.00  0.00     0.223 C 
BRANCH   9  10
ATOM     10  C   UNL d   1      27.525 -15.170  -0.563  0.00  0.00     0.239 C 
ATOM     11  O   UNL d   1      28.572 -14.764  -1.076  0.00  0.00    -0.271 OA
ATOM     12  N   UNL d   1      26.861 -16.231  -1.150  0.00  0.00    -0.324 N 
ATOM     13  H   UNL d   1      27.399 -16.704  -1.869  0.00  0.00     0.169 HD
BRANCH  12  14
ATOM     14  C   UNL d   1      25.595 -16.754  -0.815  0.00  0.00     0.056 C 
ATOM     15  C   UNL d   1      24.459 -16.035  -1.216  0.00  0.00     0.031 C 
ATOM     16  C   UNL d   1      23.178 -16.504  -0.898  0.00  0.00     0.002 C 
ATOM     17  C   UNL d   1      23.019 -17.733  -0.261  0.00  0.00     0.002 C 
ATOM     18  C   UNL d   1      24.137 -18.442   0.160  0.00  0.00     0.026 C 
ATOM     19  C   UNL d   1      25.411 -17.909  -0.035  0.00  0.00     0.060 C 
ATOM     20 CL   UNL d   1      26.655 -18.575   0.981  0.00  0.00    -0.082 Cl
ENDBRANCH  12  14
ENDBRANCH   9  10
ENDBRANCH   7   9
ENDBRANCH   1   7
BRANCH   4  21
ATOM     21  C   UNL d   1      28.398 -11.890   6.652  0.00  0.00     0.251 C 
ATOM     22  O   UNL d   1      28.529 -10.684   6.519  0.00  0.00    -0.268 OA
ATOM     23  N   UNL d   1      28.393 -12.498   7.889  0.00  0.00    -0.351 N 
ATOM     24  H   UNL d   1      28.209 -13.480   7.957  0.00  0.00     0.163 HD
BRANCH  23  25
ATOM     25  C   UNL d   1      28.518 -11.757   9.140  0.00  0.00     0.187 C 
BRANCH  25  26
ATOM     26  C   UNL d   1      28.452 -12.720  10.283  0.00  0.00     0.070 A 
ATOM     27  C   UNL d   1      28.625 -12.573  11.647  0.00  0.00     0.036 A 
ATOM     28  C   UNL d   1      28.450 -13.845  12.230  0.00  0.00     0.027 A 
ATOM     29  C   UNL d   1      28.155 -14.699  11.194  0.00  0.00     0.142 A 
ATOM     30  O   UNL d   1      28.156 -14.029  10.006  0.00  0.00    -0.325 OA
ENDBRANCH  25  26
ENDBRANCH  23  25
ENDBRANCH   4  21
TORSDOF 7
ENDMDL
MODEL 9
REMARK VINA RESULT:    -7.824      7.181      9.632
REMARK INTER + INTRA:         -11.867
REMARK INTER:                  -9.912
REMARK INTRA:                  -1.955
REMARK CONF_INDEPENDENT:        2.088
REMARK UNBOUND:                -1.955
REMARK  7 active torsions:
REMARK  status: ('A' for Active; 'I' for Inactive)
REMARK    1  A    between atoms: C_2  and  C_3 
REMARK       I    between atoms: C_2  and  N_20 
REMARK    2  A    between atoms: C_3  and  N_4 
REMARK    3  A    between atoms: N_4  and  C_5 
REMARK    4  A    between atoms: C_8  and  C_9 
REMARK       I    between atoms: C_9  and  N_11 
REMARK    5  A    between atoms: N_11  and  C_12 
REMARK    6  A    between atoms: C_12  and  C_13 
REMARK    7  A    between atoms: N_20  and  C_21 
ROOT
ATOM      1  C   UNL d   1      28.213 -14.328   3.747  0.00  0.00     0.028 C 
ATOM      2  C   UNL d   1      28.868 -15.069   4.733  0.00  0.00     0.030 C 
ATOM      3  C   UNL d   1      28.900 -14.627   6.068  0.00  0.00     0.019 C 
ATOM      4  C   UNL d   1      28.368 -13.381   6.431  0.00  0.00     0.032 C 
ATOM      5  C   UNL d   1      27.800 -12.596   5.423  0.00  0.00     0.019 C 
ATOM      6  C   UNL d   1      27.757 -13.054   4.098  0.00  0.00     0.030 C 
ENDROOT
BRANCH   1   7
ATOM      7  N   UNL d   1      28.009 -14.850   2.482  0.00  0.00    -0.381 N 
ATOM      8  H   UNL d   1      28.603 -15.600   2.138  0.00  0.00     0.160 HD
BRANCH   7   9
ATOM      9  C   UNL d   1      27.288 -14.086   1.472  0.00  0.00     0.223 C 
BRANCH   9  10
ATOM     10  C   UNL d   1      27.941 -14.171   0.078  0.00  0.00     0.239 C 
ATOM     11  O   UNL d   1      28.826 -13.390  -0.284  0.00  0.00    -0.271 OA
ATOM     12  N   UNL d   1      27.613 -15.235  -0.743  0.00  0.00    -0.324 N 
ATOM     13  H   UNL d   1      28.265 -15.379  -1.507  0.00  0.00     0.169 HD
BRANCH  12  14
ATOM     14  C   UNL d   1      26.551 -16.151  -0.591  0.00  0.00     0.056 C 
ATOM     15  C   UNL d   1      26.748 -17.253   0.253  0.00  0.00     0.031 C 
ATOM     16  C   UNL d   1      25.730 -18.199   0.428  0.00  0.00     0.002 C 
ATOM     17  C   UNL d   1      24.483 -18.005  -0.162  0.00  0.00     0.002 C 
ATOM     18  C   UNL d   1      24.285 -16.928  -1.018  0.00  0.00     0.026 C 
ATOM     19  C   UNL d   1      25.340 -16.063  -1.300  0.00  0.00     0.060 C 
ATOM     20 CL   UNL d   1      25.157 -15.120  -2.750  0.00  0.00    -0.082 Cl
ENDBRANCH  12  14
ENDBRANCH   9  10
ENDBRANCH   7   9
ENDBRANCH   1   7
BRANCH   4  21
ATOM     21  C   UNL d   1      28.477 -12.948   7.873  0.00  0.00     0.251 C 
ATOM     22  O   UNL d   1      28.160 -11.817   8.206  0.00  0.00    -0.268 OA
ATOM     23  N   UNL d   1      28.921 -13.886   8.781  0.00  0.00    -0.351 N 
ATOM     24  H   UNL d   1      29.098 -14.823   8.476  0.00  0.00     0.163 HD
BRANCH  23  25
ATOM     25  C   UNL d   1      29.029 -13.619  10.211  0.00  0.00     0.187 C 
BRANCH  25  26
ATOM     26  C   UNL d   1      29.747 -14.757  10.864  0.00  0.00     0.070 A 
ATOM     27  C   UNL d   1      30.104 -15.015  12.175  0.00  0.00     0.036 A 
ATOM     28  C   UNL d   1      30.781 -16.252  12.188  0.00  0.00     0.027 A 
ATOM     29  C   UNL d   1      30.781 -16.697  10.887  0.00  0.00     0.142 A 
ATOM     30  O   UNL d   1      30.159 -15.797  10.073  0.00  0.00    -0.325 OA
ENDBRANCH  25  26
ENDBRANCH  23  25
ENDBRANCH   4  21
TORSDOF 7
ENDMDL
