MODEL 1
REMARK VINA RESULT:    -9.515      0.000      0.000
REMARK INTER + INTRA:         -13.242
REMARK INTER:                 -11.007
REMARK INTRA:                  -2.235
REMARK CONF_INDEPENDENT:        1.492
REMARK UNBOUND:                -2.235
REMARK  5 active torsions:
REMARK  status: ('A' for Active; 'I' for Inactive)
REMARK    1  A    between atoms: O_2  and  C_3 
REMARK    2  A    between atoms: C_13  and  C_14 
REMARK    3  A    between atoms: C_14  and  C_16 
REMARK    4  A    between atoms: C_22  and  C_23 
REMARK    5  A    between atoms: C_27  and  N_28 
ROOT
ATOM      1  C   UNL d   1      27.010 -13.252   2.602  0.00  0.00     0.069 A 
ATOM      2  C   UNL d   1      27.113 -11.853   2.705  0.00  0.00     0.039 A 
ATOM      3  C   UNL d   1      27.388 -11.079   1.585  0.00  0.00     0.033 A 
ATOM      4  C   UNL d   1      27.587 -11.749   0.404  0.00  0.00     0.044 A 
ATOM      5  C   UNL d   1      27.508 -13.142   0.256  0.00  0.00     0.018 A 
ATOM      6  C   UNL d   1      27.210 -13.905   1.372  0.00  0.00     0.049 A 
ATOM      7  C   UNL d   1      27.747 -13.490  -1.207  0.00  0.00     0.249 C 
ATOM      8  C   UNL d   1      28.235 -12.114  -1.723  0.00  0.00     0.264 C 
ATOM      9  O   UNL d   1      28.808 -11.918  -2.772  0.00  0.00    -0.270 OA
ATOM     10  N   UNL d   1      27.967 -11.161  -0.777  0.00  0.00    -0.324 N 
ATOM     11  C   UNL d   1      26.478 -14.105  -1.840  0.00  0.00     0.122 C 
ATOM     12  C   UNL d   1      26.819 -15.666  -1.910  0.00  0.00     0.065 C 
ATOM     13  C   UNL d   1      28.305 -15.820  -1.491  0.00  0.00     0.209 C 
ATOM     14  C   UNL d   1      29.117 -16.750  -2.397  0.00  0.00     0.109 C 
ATOM     15  S   UNL d   1      30.451 -15.770  -3.075  0.00  0.00    -0.140 SA
ATOM     16  C   UNL d   1      29.574 -14.257  -2.828  0.00  0.00     0.311 C 
ATOM     17  N   UNL d   1      28.878 -14.459  -1.506  0.00  0.00    -0.034 N 
ATOM     18  H   UNL d   1      28.144 -10.176  -0.928  0.00  0.00     0.169 HD
ATOM     19  H   UNL d   1      29.601 -14.350  -0.783  0.00  0.00     0.283 HD
ENDROOT
BRANCH  11  20
ATOM     20  C   UNL d   1      26.066 -13.490  -3.222  0.00  0.00     0.169 C 
ATOM     21  O   UNL d   1      25.102 -12.737  -3.298  0.00  0.00    -0.292 OA
BRANCH  20  22
ATOM     22  C   UNL d   1      26.910 -13.710  -4.459  0.00  0.00     0.028 C 
ATOM     23  C   UNL d   1      27.551 -12.704  -5.177  0.00  0.00     0.018 C 
ATOM     24  C   UNL d   1      28.121 -12.867  -6.424  0.00  0.00     0.020 C 
ATOM     25  C   UNL d   1      28.170 -14.142  -6.894  0.00  0.00     0.116 C 
ATOM     26  N   UNL d   1      27.773 -15.201  -6.148  0.00  0.00    -0.272 NA
ATOM     27  C   UNL d   1      27.194 -14.970  -4.930  0.00  0.00     0.131 C 
ENDBRANCH  20  22
ENDBRANCH  11  20
BRANCH  12  28
ATOM     28  C   UNL d   1      25.913 -16.572  -1.076  0.00  0.00    -0.049 C 
ATOM     29  C   UNL d   1      26.458 -17.330  -0.035  0.00  0.00     0.007 C 
ATOM     30  C   UNL d   1      25.653 -18.194   0.720  0.00  0.00     0.003 C 
ATOM     31  C   UNL d   1      24.317 -18.411   0.374  0.00  0.00     0.036 C 
ATOM     32  C   UNL d   1      23.755 -17.644  -0.638  0.00  0.00     0.103 C 
ATOM     33  C   UNL d   1      24.520 -16.663  -1.276  0.00  0.00     0.043 C 
BRANCH  32  34
ATOM     34  N   UNL d   1      22.383 -17.885  -1.107  0.00  0.00    -0.116 N 
ATOM     35  O   UNL d   1      21.537 -17.010  -0.895  0.00  0.00    -0.532 OA
ATOM     36  O   UNL d   1      22.155 -18.981  -1.645  0.00  0.00    -0.532 OA
ENDBRANCH  32  34
ENDBRANCH  12  28
BRANCH   1  37
ATOM     37  O   UNL d   1      26.809 -14.075   3.676  0.00  0.00    -0.356 OA
ATOM     38  C   UNL d   1      27.997 -14.541   4.317  0.00  0.00     0.210 C 
ENDBRANCH   1  37
TORSDOF 5
ENDMDL
MODEL 2
REMARK VINA RESULT:    -8.879      2.201      5.463
REMARK INTER + INTRA:         -12.708
REMARK INTER:                 -10.371
REMARK INTRA:                  -2.337
REMARK CONF_INDEPENDENT:        1.492
REMARK UNBOUND:                -2.337
REMARK  5 active torsions:
REMARK  status: ('A' for Active; 'I' for Inactive)
REMARK    1  A    between atoms: O_2  and  C_3 
REMARK    2  A    between atoms: C_13  and  C_14 
REMARK    3  A    between atoms: C_14  and  C_16 
REMARK    4  A    between atoms: C_22  and  C_23 
REMARK    5  A    between atoms: C_27  and  N_28 
ROOT
ATOM      1  C   UNL d   1      27.275  -9.542  -1.774  0.00  0.00     0.069 A 
ATOM      2  C   UNL d   1      26.523  -8.932  -2.794  0.00  0.00     0.039 A 
ATOM      3  C   UNL d   1      25.865  -9.701  -3.746  0.00  0.00     0.033 A 
ATOM      4  C   UNL d   1      26.019 -11.062  -3.655  0.00  0.00     0.044 A 
ATOM      5  C   UNL d   1      26.769 -11.713  -2.664  0.00  0.00     0.018 A 
ATOM      6  C   UNL d   1      27.403 -10.942  -1.706  0.00  0.00     0.049 A 
ATOM      7  C   UNL d   1      26.659 -13.217  -2.881  0.00  0.00     0.249 C 
ATOM      8  C   UNL d   1      25.987 -13.228  -4.276  0.00  0.00     0.264 C 
ATOM      9  O   UNL d   1      25.920 -14.183  -5.019  0.00  0.00    -0.270 OA
ATOM     10  N   UNL d   1      25.530 -11.969  -4.562  0.00  0.00    -0.324 N 
ATOM     11  C   UNL d   1      25.919 -13.889  -1.703  0.00  0.00     0.122 C 
ATOM     12  C   UNL d   1      27.097 -14.579  -0.872  0.00  0.00     0.065 C 
ATOM     13  C   UNL d   1      28.393 -14.417  -1.710  0.00  0.00     0.209 C 
ATOM     14  C   UNL d   1      29.237 -15.692  -1.809  0.00  0.00     0.109 C 
ATOM     15  S   UNL d   1      29.356 -16.095  -3.548  0.00  0.00    -0.140 SA
ATOM     16  C   UNL d   1      27.885 -15.200  -3.939  0.00  0.00     0.311 C 
ATOM     17  N   UNL d   1      27.960 -13.983  -3.053  0.00  0.00    -0.034 N 
ATOM     18  H   UNL d   1      24.999 -11.757  -5.397  0.00  0.00     0.169 HD
ATOM     19  H   UNL d   1      28.652 -13.357  -3.484  0.00  0.00     0.283 HD
ENDROOT
BRANCH  11  20
ATOM     20  C   UNL d   1      24.780 -14.883  -2.120  0.00  0.00     0.169 C 
ATOM     21  O   UNL d   1      24.073 -14.637  -3.091  0.00  0.00    -0.292 OA
BRANCH  20  22
ATOM     22  C   UNL d   1      24.607 -16.213  -1.418  0.00  0.00     0.028 C 
ATOM     23  C   UNL d   1      23.402 -16.700  -0.917  0.00  0.00     0.018 C 
ATOM     24  C   UNL d   1      23.281 -17.790  -0.079  0.00  0.00     0.020 C 
ATOM     25  C   UNL d   1      24.419 -18.502   0.140  0.00  0.00     0.116 C 
ATOM     26  N   UNL d   1      25.579 -18.220  -0.499  0.00  0.00    -0.272 NA
ATOM     27  C   UNL d   1      25.641 -17.111  -1.298  0.00  0.00     0.131 C 
ENDBRANCH  20  22
ENDBRANCH  11  20
BRANCH  12  28
ATOM     28  C   UNL d   1      27.290 -14.053   0.551  0.00  0.00    -0.049 C 
ATOM     29  C   UNL d   1      27.691 -14.929   1.566  0.00  0.00     0.007 C 
ATOM     30  C   UNL d   1      27.841 -14.476   2.885  0.00  0.00     0.003 C 
ATOM     31  C   UNL d   1      27.477 -13.175   3.239  0.00  0.00     0.036 C 
ATOM     32  C   UNL d   1      27.106 -12.288   2.238  0.00  0.00     0.103 C 
ATOM     33  C   UNL d   1      27.120 -12.698   0.902  0.00  0.00     0.043 C 
BRANCH  32  34
ATOM     34  N   UNL d   1      26.629 -10.934   2.555  0.00  0.00    -0.116 N 
ATOM     35  O   UNL d   1      25.905 -10.367   1.730  0.00  0.00    -0.532 OA
ATOM     36  O   UNL d   1      27.028 -10.429   3.618  0.00  0.00    -0.532 OA
ENDBRANCH  32  34
ENDBRANCH  12  28
BRANCH   1  37
ATOM     37  O   UNL d   1      28.000  -8.842  -0.850  0.00  0.00    -0.356 OA
ATOM     38  C   UNL d   1      28.568  -9.626   0.200  0.00  0.00     0.210 C 
ENDBRANCH   1  37
TORSDOF 5
ENDMDL
MODEL 3
REMARK VINA RESULT:    -8.833      2.491      5.547
REMARK INTER + INTRA:         -12.544
REMARK INTER:                 -10.324
REMARK INTRA:                  -2.220
REMARK CONF_INDEPENDENT:        1.492
REMARK UNBOUND:                -2.220
REMARK  5 active torsions:
REMARK  status: ('A' for Active; 'I' for Inactive)
REMARK    1  A    between atoms: O_2  and  C_3 
REMARK    2  A    between atoms: C_13  and  C_14 
REMARK    3  A    between atoms: C_14  and  C_16 
REMARK    4  A    between atoms: C_22  and  C_23 
REMARK    5  A    between atoms: C_27  and  N_28 
ROOT
ATOM      1  C   UNL d   1      30.292 -17.586  -0.557  0.00  0.00     0.069 A 
ATOM      2  C   UNL d   1      31.507 -17.134  -0.011  0.00  0.00     0.039 A 
ATOM      3  C   UNL d   1      31.648 -15.817   0.408  0.00  0.00     0.033 A 
ATOM      4  C   UNL d   1      30.567 -14.991   0.228  0.00  0.00     0.044 A 
ATOM      5  C   UNL d   1      29.342 -15.394  -0.324  0.00  0.00     0.018 A 
ATOM      6  C   UNL d   1      29.200 -16.713  -0.719  0.00  0.00     0.049 A 
ATOM      7  C   UNL d   1      28.390 -14.205  -0.315  0.00  0.00     0.249 C 
ATOM      8  C   UNL d   1      29.388 -13.079   0.054  0.00  0.00     0.264 C 
ATOM      9  O   UNL d   1      29.185 -11.891  -0.069  0.00  0.00    -0.270 OA
ATOM     10  N   UNL d   1      30.558 -13.643   0.486  0.00  0.00    -0.324 N 
ATOM     11  C   UNL d   1      27.194 -14.466   0.628  0.00  0.00     0.122 C 
ATOM     12  C   UNL d   1      25.997 -14.804  -0.377  0.00  0.00     0.065 C 
ATOM     13  C   UNL d   1      26.528 -14.540  -1.811  0.00  0.00     0.209 C 
ATOM     14  C   UNL d   1      25.557 -13.759  -2.703  0.00  0.00     0.109 C 
ATOM     15  S   UNL d   1      26.405 -12.261  -3.193  0.00  0.00    -0.140 SA
ATOM     16  C   UNL d   1      27.493 -12.325  -1.803  0.00  0.00     0.311 C 
ATOM     17  N   UNL d   1      27.791 -13.795  -1.650  0.00  0.00    -0.034 N 
ATOM     18  H   UNL d   1      31.331 -13.094   0.840  0.00  0.00     0.169 HD
ATOM     19  H   UNL d   1      28.461 -14.029  -2.394  0.00  0.00     0.283 HD
ENDROOT
BRANCH  11  20
ATOM     20  C   UNL d   1      26.869 -13.296   1.620  0.00  0.00     0.169 C 
ATOM     21  O   UNL d   1      26.082 -12.414   1.295  0.00  0.00    -0.292 OA
BRANCH  20  22
ATOM     22  C   UNL d   1      27.416 -13.292   3.031  0.00  0.00     0.028 C 
ATOM     23  C   UNL d   1      27.781 -14.428   3.749  0.00  0.00     0.018 C 
ATOM     24  C   UNL d   1      28.056 -14.451   5.102  0.00  0.00     0.020 C 
ATOM     25  C   UNL d   1      28.104 -13.240   5.720  0.00  0.00     0.116 C 
ATOM     26  N   UNL d   1      27.987 -12.077   5.035  0.00  0.00    -0.272 NA
ATOM     27  C   UNL d   1      27.691 -12.123   3.701  0.00  0.00     0.131 C 
ENDBRANCH  20  22
ENDBRANCH  11  20
BRANCH  12  28
ATOM     28  C   UNL d   1      25.416 -16.213  -0.253  0.00  0.00    -0.049 C 
ATOM     29  C   UNL d   1      26.242 -17.273   0.135  0.00  0.00     0.007 C 
ATOM     30  C   UNL d   1      25.739 -18.578   0.222  0.00  0.00     0.003 C 
ATOM     31  C   UNL d   1      24.438 -18.872  -0.192  0.00  0.00     0.036 C 
ATOM     32  C   UNL d   1      23.598 -17.826  -0.551  0.00  0.00     0.103 C 
ATOM     33  C   UNL d   1      24.055 -16.507  -0.475  0.00  0.00     0.043 C 
BRANCH  32  34
ATOM     34  N   UNL d   1      22.249 -18.076  -1.079  0.00  0.00    -0.116 N 
ATOM     35  O   UNL d   1      21.386 -17.213  -0.892  0.00  0.00    -0.532 OA
ATOM     36  O   UNL d   1      22.056 -19.168  -1.638  0.00  0.00    -0.532 OA
ENDBRANCH  32  34
ENDBRANCH  12  28
BRANCH   1  37
ATOM     37  O   UNL d   1      30.111 -18.849  -1.051  0.00  0.00    -0.356 OA
ATOM     38  C   UNL d   1      31.188 -19.756  -0.815  0.00  0.00     0.210 C 
ENDBRANCH   1  37
TORSDOF 5
ENDMDL
MODEL 4
REMARK VINA RESULT:    -8.370      3.232      6.599
REMARK INTER + INTRA:         -12.424
REMARK INTER:                  -9.862
REMARK INTRA:                  -2.563
REMARK CONF_INDEPENDENT:        1.492
REMARK UNBOUND:                -2.563
REMARK  5 active torsions:
REMARK  status: ('A' for Active; 'I' for Inactive)
REMARK    1  A    between atoms: O_2  and  C_3 
REMARK    2  A    between atoms: C_13  and  C_14 
REMARK    3  A    between atoms: C_14  and  C_16 
REMARK    4  A    between atoms: C_22  and  C_23 
REMARK    5  A    between atoms: C_27  and  N_28 
ROOT
ATOM      1  C   UNL d   1      31.370 -16.772   0.311  0.00  0.00     0.069 A 
ATOM      2  C   UNL d   1      32.246 -16.917   1.402  0.00  0.00     0.039 A 
ATOM      3  C   UNL d   1      32.255 -15.984   2.431  0.00  0.00     0.033 A 
ATOM      4  C   UNL d   1      31.403 -14.915   2.305  0.00  0.00     0.044 A 
ATOM      5  C   UNL d   1      30.523 -14.723   1.229  0.00  0.00     0.018 A 
ATOM      6  C   UNL d   1      30.502 -15.668   0.219  0.00  0.00     0.049 A 
ATOM      7  C   UNL d   1      29.723 -13.450   1.477  0.00  0.00     0.249 C 
ATOM      8  C   UNL d   1      30.514 -12.879   2.680  0.00  0.00     0.264 C 
ATOM      9  O   UNL d   1      30.445 -11.742   3.092  0.00  0.00    -0.270 OA
ATOM     10  N   UNL d   1      31.349 -13.849   3.167  0.00  0.00    -0.324 N 
ATOM     11  C   UNL d   1      28.224 -13.773   1.670  0.00  0.00     0.122 C 
ATOM     12  C   UNL d   1      27.570 -13.340   0.277  0.00  0.00     0.065 C 
ATOM     13  C   UNL d   1      28.686 -12.639  -0.544  0.00  0.00     0.209 C 
ATOM     14  C   UNL d   1      28.242 -11.337  -1.217  0.00  0.00     0.109 C 
ATOM     15  S   UNL d   1      29.291 -10.040  -0.568  0.00  0.00    -0.140 SA
ATOM     16  C   UNL d   1      29.659 -10.959   0.894  0.00  0.00     0.311 C 
ATOM     17  N   UNL d   1      29.788 -12.378   0.403  0.00  0.00    -0.034 N 
ATOM     18  H   UNL d   1      31.916 -13.716   3.994  0.00  0.00     0.169 HD
ATOM     19  H   UNL d   1      30.703 -12.438  -0.062  0.00  0.00     0.283 HD
ENDROOT
BRANCH  11  20
ATOM     20  C   UNL d   1      27.557 -13.092   2.914  0.00  0.00     0.169 C 
ATOM     21  O   UNL d   1      26.654 -12.277   2.760  0.00  0.00    -0.292 OA
BRANCH  20  22
ATOM     22  C   UNL d   1      27.921 -13.509   4.323  0.00  0.00     0.028 C 
ATOM     23  C   UNL d   1      27.936 -12.661   5.428  0.00  0.00     0.018 C 
ATOM     24  C   UNL d   1      28.486 -12.976   6.655  0.00  0.00     0.020 C 
ATOM     25  C   UNL d   1      28.909 -14.260   6.806  0.00  0.00     0.116 C 
ATOM     26  N   UNL d   1      28.713 -15.200   5.850  0.00  0.00    -0.272 NA
ATOM     27  C   UNL d   1      28.185 -14.819   4.648  0.00  0.00     0.131 C 
ENDBRANCH  20  22
ENDBRANCH  11  20
BRANCH  12  28
ATOM     28  C   UNL d   1      26.924 -14.471  -0.524  0.00  0.00    -0.049 C 
ATOM     29  C   UNL d   1      26.760 -15.731   0.063  0.00  0.00     0.007 C 
ATOM     30  C   UNL d   1      26.202 -16.792  -0.663  0.00  0.00     0.003 C 
ATOM     31  C   UNL d   1      25.909 -16.653  -2.022  0.00  0.00     0.036 C 
ATOM     32  C   UNL d   1      26.039 -15.402  -2.609  0.00  0.00     0.103 C 
ATOM     33  C   UNL d   1      26.438 -14.307  -1.837  0.00  0.00     0.043 C 
BRANCH  32  34
ATOM     34  N   UNL d   1      25.832 -15.210  -4.052  0.00  0.00    -0.116 N 
ATOM     35  O   UNL d   1      26.729 -15.575  -4.819  0.00  0.00    -0.532 OA
ATOM     36  O   UNL d   1      24.782 -14.645  -4.401  0.00  0.00    -0.532 OA
ENDBRANCH  32  34
ENDBRANCH  12  28
BRANCH   1  37
ATOM     37  O   UNL d   1      31.359 -17.618  -0.765  0.00  0.00    -0.356 OA
ATOM     38  C   UNL d   1      30.236 -17.480  -1.636  0.00  0.00     0.210 C 
ENDBRANCH   1  37
TORSDOF 5
ENDMDL
MODEL 5
REMARK VINA RESULT:    -8.340      6.485     11.415
REMARK INTER + INTRA:         -12.306
REMARK INTER:                  -9.831
REMARK INTRA:                  -2.475
REMARK CONF_INDEPENDENT:        1.492
REMARK UNBOUND:                -2.475
REMARK  5 active torsions:
REMARK  status: ('A' for Active; 'I' for Inactive)
REMARK    1  A    between atoms: O_2  and  C_3 
REMARK    2  A    between atoms: C_13  and  C_14 
REMARK    3  A    between atoms: C_14  and  C_16 
REMARK    4  A    between atoms: C_22  and  C_23 
REMARK    5  A    between atoms: C_27  and  N_28 
ROOT
ATOM      1  C   UNL d   1      28.340 -13.233   4.061  0.00  0.00     0.069 A 
ATOM      2  C   UNL d   1      27.892 -14.457   4.588  0.00  0.00     0.039 A 
ATOM      3  C   UNL d   1      28.314 -14.883   5.841  0.00  0.00     0.033 A 
ATOM      4  C   UNL d   1      29.203 -14.075   6.503  0.00  0.00     0.044 A 
ATOM      5  C   UNL d   1      29.687 -12.853   6.010  0.00  0.00     0.018 A 
ATOM      6  C   UNL d   1      29.245 -12.423   4.772  0.00  0.00     0.049 A 
ATOM      7  C   UNL d   1      30.615 -12.242   7.053  0.00  0.00     0.249 C 
ATOM      8  C   UNL d   1      30.754 -13.448   8.014  0.00  0.00     0.264 C 
ATOM      9  O   UNL d   1      31.599 -13.570   8.872  0.00  0.00    -0.270 OA
ATOM     10  N   UNL d   1      29.804 -14.383   7.699  0.00  0.00    -0.324 N 
ATOM     11  C   UNL d   1      30.025 -10.925   7.606  0.00  0.00     0.122 C 
ATOM     12  C   UNL d   1      30.889  -9.796   6.874  0.00  0.00     0.065 C 
ATOM     13  C   UNL d   1      32.019 -10.527   6.101  0.00  0.00     0.209 C 
ATOM     14  C   UNL d   1      33.402  -9.890   6.267  0.00  0.00     0.109 C 
ATOM     15  S   UNL d   1      34.459 -11.139   6.991  0.00  0.00    -0.140 SA
ATOM     16  C   UNL d   1      33.088 -12.019   7.673  0.00  0.00     0.311 C 
ATOM     17  N   UNL d   1      32.029 -11.914   6.605  0.00  0.00    -0.034 N 
ATOM     18  H   UNL d   1      29.668 -15.228   8.239  0.00  0.00     0.169 HD
ATOM     19  H   UNL d   1      32.300 -12.578   5.868  0.00  0.00     0.283 HD
ENDROOT
BRANCH  11  20
ATOM     20  C   UNL d   1      30.033 -10.805   9.170  0.00  0.00     0.169 C 
ATOM     21  O   UNL d   1      30.528  -9.822   9.709  0.00  0.00    -0.292 OA
BRANCH  20  22
ATOM     22  C   UNL d   1      29.328 -11.827  10.036  0.00  0.00     0.028 C 
ATOM     23  C   UNL d   1      29.723 -12.193  11.320  0.00  0.00     0.018 C 
ATOM     24  C   UNL d   1      29.231 -13.279  12.016  0.00  0.00     0.020 C 
ATOM     25  C   UNL d   1      28.189 -13.934  11.438  0.00  0.00     0.116 C 
ATOM     26  N   UNL d   1      27.603 -13.492  10.299  0.00  0.00    -0.272 NA
ATOM     27  C   UNL d   1      28.153 -12.424   9.645  0.00  0.00     0.131 C 
ENDBRANCH  20  22
ENDBRANCH  11  20
BRANCH  12  28
ATOM     28  C   UNL d   1      30.102  -8.865   5.952  0.00  0.00    -0.049 C 
ATOM     29  C   UNL d   1      30.449  -7.512   5.871  0.00  0.00     0.007 C 
ATOM     30  C   UNL d   1      29.720  -6.632   5.059  0.00  0.00     0.003 C 
ATOM     31  C   UNL d   1      28.559  -7.057   4.408  0.00  0.00     0.036 C 
ATOM     32  C   UNL d   1      28.219  -8.402   4.455  0.00  0.00     0.103 C 
ATOM     33  C   UNL d   1      29.045  -9.306   5.130  0.00  0.00     0.043 C 
BRANCH  32  34
ATOM     34  N   UNL d   1      26.965  -8.894   3.866  0.00  0.00    -0.116 N 
ATOM     35  O   UNL d   1      26.696 -10.092   3.997  0.00  0.00    -0.532 OA
ATOM     36  O   UNL d   1      26.281  -8.075   3.230  0.00  0.00    -0.532 OA
ENDBRANCH  32  34
ENDBRANCH  12  28
BRANCH   1  37
ATOM     37  O   UNL d   1      28.017 -12.788   2.807  0.00  0.00    -0.356 OA
ATOM     38  C   UNL d   1      26.657 -12.990   2.422  0.00  0.00     0.210 C 
ENDBRANCH   1  37
TORSDOF 5
ENDMDL
MODEL 6
REMARK VINA RESULT:    -7.818      2.524      5.873
REMARK INTER + INTRA:         -11.920
REMARK INTER:                  -9.310
REMARK INTRA:                  -2.610
REMARK CONF_INDEPENDENT:        1.492
REMARK UNBOUND:                -2.610
REMARK  5 active torsions:
REMARK  status: ('A' for Active; 'I' for Inactive)
REMARK    1  A    between atoms: O_2  and  C_3 
REMARK    2  A    between atoms: C_13  and  C_14 
REMARK    3  A    between atoms: C_14  and  C_16 
REMARK    4  A    between atoms: C_22  and  C_23 
REMARK    5  A    between atoms: C_27  and  N_28 
ROOT
ATOM      1  C   UNL d   1      27.075 -11.243  -1.553  0.00  0.00     0.069 A 
ATOM      2  C   UNL d   1      26.361 -11.411  -2.753  0.00  0.00     0.039 A 
ATOM      3  C   UNL d   1      26.223 -12.670  -3.323  0.00  0.00     0.033 A 
ATOM      4  C   UNL d   1      26.843 -13.712  -2.680  0.00  0.00     0.044 A 
ATOM      5  C   UNL d   1      27.577 -13.589  -1.490  0.00  0.00     0.018 A 
ATOM      6  C   UNL d   1      27.691 -12.335  -0.915  0.00  0.00     0.049 A 
ATOM      7  C   UNL d   1      28.068 -14.970  -1.076  0.00  0.00     0.249 C 
ATOM      8  C   UNL d   1      27.723 -15.762  -2.362  0.00  0.00     0.264 C 
ATOM      9  O   UNL d   1      28.152 -16.858  -2.651  0.00  0.00    -0.270 OA
ATOM     10  N   UNL d   1      26.901 -15.001  -3.150  0.00  0.00    -0.324 N 
ATOM     11  C   UNL d   1      27.415 -15.409   0.254  0.00  0.00     0.122 C 
ATOM     12  C   UNL d   1      28.583 -15.200   1.325  0.00  0.00     0.065 C 
ATOM     13  C   UNL d   1      29.864 -14.836   0.528  0.00  0.00     0.209 C 
ATOM     14  C   UNL d   1      31.118 -15.591   0.981  0.00  0.00     0.109 C 
ATOM     15  S   UNL d   1      31.703 -16.510  -0.438  0.00  0.00    -0.140 SA
ATOM     16  C   UNL d   1      30.110 -16.508  -1.199  0.00  0.00     0.311 C 
ATOM     17  N   UNL d   1      29.565 -15.138  -0.886  0.00  0.00    -0.034 N 
ATOM     18  H   UNL d   1      26.499 -15.345  -4.012  0.00  0.00     0.169 HD
ATOM     19  H   UNL d   1      30.049 -14.487  -1.517  0.00  0.00     0.283 HD
ENDROOT
BRANCH  11  20
ATOM     20  C   UNL d   1      26.819 -16.859   0.250  0.00  0.00     0.169 C 
ATOM     21  O   UNL d   1      27.485 -17.799   0.669  0.00  0.00    -0.292 OA
BRANCH  20  22
ATOM     22  C   UNL d   1      25.382 -17.113  -0.150  0.00  0.00     0.028 C 
ATOM     23  C   UNL d   1      24.541 -16.175  -0.744  0.00  0.00     0.018 C 
ATOM     24  C   UNL d   1      23.177 -16.325  -0.895  0.00  0.00     0.020 C 
ATOM     25  C   UNL d   1      22.670 -17.541  -0.559  0.00  0.00     0.116 C 
ATOM     26  N   UNL d   1      23.464 -18.576  -0.192  0.00  0.00    -0.272 NA
ATOM     27  C   UNL d   1      24.805 -18.356  -0.038  0.00  0.00     0.131 C 
ENDBRANCH  20  22
ENDBRANCH  11  20
BRANCH  12  28
ATOM     28  C   UNL d   1      28.296 -14.164   2.413  0.00  0.00    -0.049 C 
ATOM     29  C   UNL d   1      28.559 -14.473   3.752  0.00  0.00     0.007 C 
ATOM     30  C   UNL d   1      28.272 -13.552   4.769  0.00  0.00     0.003 C 
ATOM     31  C   UNL d   1      27.607 -12.357   4.485  0.00  0.00     0.036 C 
ATOM     32  C   UNL d   1      27.366 -12.025   3.159  0.00  0.00     0.103 C 
ATOM     33  C   UNL d   1      27.806 -12.871   2.137  0.00  0.00     0.043 C 
BRANCH  32  34
ATOM     34  N   UNL d   1      26.594 -10.827   2.799  0.00  0.00    -0.116 N 
ATOM     35  O   UNL d   1      25.974 -10.837   1.731  0.00  0.00    -0.532 OA
ATOM     36  O   UNL d   1      26.656  -9.861   3.578  0.00  0.00    -0.532 OA
ENDBRANCH  32  34
ENDBRANCH  12  28
BRANCH   1  37
ATOM     37  O   UNL d   1      27.305 -10.022  -0.977  0.00  0.00    -0.356 OA
ATOM     38  C   UNL d   1      28.300 -10.010   0.047  0.00  0.00     0.210 C 
ENDBRANCH   1  37
TORSDOF 5
ENDMDL
MODEL 7
REMARK VINA RESULT:    -7.657      5.055      9.064
REMARK INTER + INTRA:         -11.545
REMARK INTER:                  -9.148
REMARK INTRA:                  -2.397
REMARK CONF_INDEPENDENT:        1.492
REMARK UNBOUND:                -2.397
REMARK  5 active torsions:
REMARK  status: ('A' for Active; 'I' for Inactive)
REMARK    1  A    between atoms: O_2  and  C_3 
REMARK    2  A    between atoms: C_13  and  C_14 
REMARK    3  A    between atoms: C_14  and  C_16 
REMARK    4  A    between atoms: C_22  and  C_23 
REMARK    5  A    between atoms: C_27  and  N_28 
ROOT
ATOM      1  C   UNL d   1      33.012 -10.974   3.106  0.00  0.00     0.069 A 
ATOM      2  C   UNL d   1      33.407 -11.931   2.154  0.00  0.00     0.039 A 
ATOM      3  C   UNL d   1      32.796 -13.177   2.107  0.00  0.00     0.033 A 
ATOM      4  C   UNL d   1      31.829 -13.428   3.049  0.00  0.00     0.044 A 
ATOM      5  C   UNL d   1      31.413 -12.510   4.025  0.00  0.00     0.018 A 
ATOM      6  C   UNL d   1      32.010 -11.262   4.051  0.00  0.00     0.049 A 
ATOM      7  C   UNL d   1      30.300 -13.147   4.847  0.00  0.00     0.249 C 
ATOM      8  C   UNL d   1      30.405 -14.606   4.338  0.00  0.00     0.264 C 
ATOM      9  O   UNL d   1      29.912 -15.575   4.872  0.00  0.00    -0.270 OA
ATOM     10  N   UNL d   1      31.194 -14.633   3.219  0.00  0.00    -0.324 N 
ATOM     11  C   UNL d   1      28.967 -12.392   4.644  0.00  0.00     0.122 C 
ATOM     12  C   UNL d   1      28.817 -11.538   5.987  0.00  0.00     0.065 C 
ATOM     13  C   UNL d   1      29.959 -11.990   6.936  0.00  0.00     0.209 C 
ATOM     14  C   UNL d   1      29.510 -12.240   8.379  0.00  0.00     0.109 C 
ATOM     15  S   UNL d   1      29.886 -13.952   8.743  0.00  0.00    -0.140 SA
ATOM     16  C   UNL d   1      29.871 -14.403   7.036  0.00  0.00     0.311 C 
ATOM     17  N   UNL d   1      30.514 -13.225   6.349  0.00  0.00    -0.034 N 
ATOM     18  H   UNL d   1      31.349 -15.475   2.680  0.00  0.00     0.169 HD
ATOM     19  H   UNL d   1      31.523 -13.305   6.531  0.00  0.00     0.283 HD
ENDROOT
BRANCH  11  20
ATOM     20  C   UNL d   1      27.730 -13.306   4.341  0.00  0.00     0.169 C 
ATOM     21  O   UNL d   1      26.980 -13.648   5.248  0.00  0.00    -0.292 OA
BRANCH  20  22
ATOM     22  C   UNL d   1      27.365 -13.683   2.921  0.00  0.00     0.028 C 
ATOM     23  C   UNL d   1      27.780 -14.843   2.271  0.00  0.00     0.018 C 
ATOM     24  C   UNL d   1      27.648 -15.078   0.917  0.00  0.00     0.020 C 
ATOM     25  C   UNL d   1      26.933 -14.155   0.220  0.00  0.00     0.116 C 
ATOM     26  N   UNL d   1      26.304 -13.120   0.829  0.00  0.00    -0.272 NA
ATOM     27  C   UNL d   1      26.495 -12.929   2.170  0.00  0.00     0.131 C 
ENDBRANCH  20  22
ENDBRANCH  11  20
BRANCH  12  28
ATOM     28  C   UNL d   1      28.820 -10.020   5.803  0.00  0.00    -0.049 C 
ATOM     29  C   UNL d   1      29.556  -9.216   6.679  0.00  0.00     0.007 C 
ATOM     30  C   UNL d   1      29.546  -7.820   6.550  0.00  0.00     0.003 C 
ATOM     31  C   UNL d   1      28.707  -7.194   5.625  0.00  0.00     0.036 C 
ATOM     32  C   UNL d   1      27.994  -7.979   4.730  0.00  0.00     0.103 C 
ATOM     33  C   UNL d   1      28.138  -9.370   4.754  0.00  0.00     0.043 C 
BRANCH  32  34
ATOM     34  N   UNL d   1      27.030  -7.386   3.792  0.00  0.00    -0.116 N 
ATOM     35  O   UNL d   1      26.630  -8.084   2.855  0.00  0.00    -0.532 OA
ATOM     36  O   UNL d   1      26.719  -6.198   3.980  0.00  0.00    -0.532 OA
ENDBRANCH  32  34
ENDBRANCH  12  28
BRANCH   1  37
ATOM     37  O   UNL d   1      33.620  -9.756   3.249  0.00  0.00    -0.356 OA
ATOM     38  C   UNL d   1      32.781  -8.712   3.743  0.00  0.00     0.210 C 
ENDBRANCH   1  37
TORSDOF 5
ENDMDL
MODEL 8
REMARK VINA RESULT:    -7.611      6.437     11.379
REMARK INTER + INTRA:         -11.967
REMARK INTER:                  -9.102
REMARK INTRA:                  -2.864
REMARK CONF_INDEPENDENT:        1.492
REMARK UNBOUND:                -2.864
REMARK  5 active torsions:
REMARK  status: ('A' for Active; 'I' for Inactive)
REMARK    1  A    between atoms: O_2  and  C_3 
REMARK    2  A    between atoms: C_13  and  C_14 
REMARK    3  A    between atoms: C_14  and  C_16 
REMARK    4  A    between atoms: C_22  and  C_23 
REMARK    5  A    between atoms: C_27  and  N_28 
ROOT
ATOM      1  C   UNL d   1      28.273 -13.018   3.248  0.00  0.00     0.069 A 
ATOM      2  C   UNL d   1      27.679 -14.263   3.518  0.00  0.00     0.039 A 
ATOM      3  C   UNL d   1      27.822 -14.861   4.764  0.00  0.00     0.033 A 
ATOM      4  C   UNL d   1      28.591 -14.195   5.685  0.00  0.00     0.044 A 
ATOM      5  C   UNL d   1      29.213 -12.958   5.456  0.00  0.00     0.018 A 
ATOM      6  C   UNL d   1      29.048 -12.358   4.220  0.00  0.00     0.049 A 
ATOM      7  C   UNL d   1      29.935 -12.534   6.728  0.00  0.00     0.249 C 
ATOM      8  C   UNL d   1      29.829 -13.852   7.536  0.00  0.00     0.264 C 
ATOM      9  O   UNL d   1      30.479 -14.128   8.520  0.00  0.00    -0.270 OA
ATOM     10  N   UNL d   1      28.926 -14.680   6.925  0.00  0.00    -0.324 N 
ATOM     11  C   UNL d   1      29.300 -11.256   7.320  0.00  0.00     0.122 C 
ATOM     12  C   UNL d   1      30.338 -10.108   6.921  0.00  0.00     0.065 C 
ATOM     13  C   UNL d   1      31.570 -10.815   6.297  0.00  0.00     0.209 C 
ATOM     14  C   UNL d   1      32.916 -10.292   6.809  0.00  0.00     0.109 C 
ATOM     15  S   UNL d   1      33.754 -11.684   7.560  0.00  0.00    -0.140 SA
ATOM     16  C   UNL d   1      32.240 -12.547   7.842  0.00  0.00     0.311 C 
ATOM     17  N   UNL d   1      31.423 -12.249   6.611  0.00  0.00    -0.034 N 
ATOM     18  H   UNL d   1      28.650 -15.571   7.316  0.00  0.00     0.169 HD
ATOM     19  H   UNL d   1      31.810 -12.838   5.862  0.00  0.00     0.283 HD
ENDROOT
BRANCH  11  20
ATOM     20  C   UNL d   1      28.997 -11.321   8.857  0.00  0.00     0.169 C 
ATOM     21  O   UNL d   1      27.958 -11.834   9.259  0.00  0.00    -0.292 OA
BRANCH  20  22
ATOM     22  C   UNL d   1      30.021 -10.869   9.876  0.00  0.00     0.028 C 
ATOM     23  C   UNL d   1      30.419  -9.550  10.077  0.00  0.00     0.018 C 
ATOM     24  C   UNL d   1      31.509  -9.162  10.831  0.00  0.00     0.020 C 
ATOM     25  C   UNL d   1      32.133 -10.149  11.528  0.00  0.00     0.116 C 
ATOM     26  N   UNL d   1      31.658 -11.418  11.561  0.00  0.00    -0.272 NA
ATOM     27  C   UNL d   1      30.589 -11.744  10.773  0.00  0.00     0.131 C 
ENDBRANCH  20  22
ENDBRANCH  11  20
BRANCH  12  28
ATOM     28  C   UNL d   1      29.791  -9.025   5.990  0.00  0.00    -0.049 C 
ATOM     29  C   UNL d   1      30.371  -7.752   5.990  0.00  0.00     0.007 C 
ATOM     30  C   UNL d   1      29.864  -6.734   5.170  0.00  0.00     0.003 C 
ATOM     31  C   UNL d   1      28.697  -6.929   4.427  0.00  0.00     0.036 C 
ATOM     32  C   UNL d   1      28.128  -8.195   4.395  0.00  0.00     0.103 C 
ATOM     33  C   UNL d   1      28.735  -9.250   5.083  0.00  0.00     0.043 C 
BRANCH  32  34
ATOM     34  N   UNL d   1      26.854  -8.443   3.705  0.00  0.00    -0.116 N 
ATOM     35  O   UNL d   1      26.227  -9.466   3.998  0.00  0.00    -0.532 OA
ATOM     36  O   UNL d   1      26.516  -7.625   2.833  0.00  0.00    -0.532 OA
ENDBRANCH  32  34
ENDBRANCH  12  28
BRANCH   1  37
ATOM     37  O   UNL d   1      28.227 -12.409   2.023  0.00  0.00    -0.356 OA
ATOM     38  C   UNL d   1      27.257 -11.369   1.896  0.00  0.00     0.210 C 
ENDBRANCH   1  37
TORSDOF 5
ENDMDL
MODEL 9
REMARK VINA RESULT:    -7.530      3.024      5.660
REMARK INTER + INTRA:         -11.482
REMARK INTER:                  -9.021
REMARK INTRA:                  -2.460
REMARK CONF_INDEPENDENT:        1.492
REMARK UNBOUND:                -2.460
REMARK  5 active torsions:
REMARK  status: ('A' for Active; 'I' for Inactive)
REMARK    1  A    between atoms: O_2  and  C_3 
REMARK    2  A    between atoms: C_13  and  C_14 
REMARK    3  A    between atoms: C_14  and  C_16 
REMARK    4  A    between atoms: C_22  and  C_23 
REMARK    5  A    between atoms: C_27  and  N_28 
ROOT
ATOM      1  C   UNL d   1      26.930 -14.808  -4.937  0.00  0.00     0.069 A 
ATOM      2  C   UNL d   1      27.649 -14.813  -6.145  0.00  0.00     0.039 A 
ATOM      3  C   UNL d   1      29.005 -15.118  -6.160  0.00  0.00     0.033 A 
ATOM      4  C   UNL d   1      29.595 -15.374  -4.948  0.00  0.00     0.044 A 
ATOM      5  C   UNL d   1      28.920 -15.367  -3.718  0.00  0.00     0.018 A 
ATOM      6  C   UNL d   1      27.565 -15.085  -3.712  0.00  0.00     0.049 A 
ATOM      7  C   UNL d   1      29.908 -15.738  -2.619  0.00  0.00     0.249 C 
ATOM      8  C   UNL d   1      31.230 -15.656  -3.424  0.00  0.00     0.264 C 
ATOM      9  O   UNL d   1      32.342 -15.606  -2.947  0.00  0.00    -0.270 OA
ATOM     10  N   UNL d   1      30.937 -15.591  -4.760  0.00  0.00    -0.324 N 
ATOM     11  C   UNL d   1      29.526 -17.086  -1.969  0.00  0.00     0.122 C 
ATOM     12  C   UNL d   1      28.875 -16.652  -0.574  0.00  0.00     0.065 C 
ATOM     13  C   UNL d   1      29.089 -15.121  -0.436  0.00  0.00     0.209 C 
ATOM     14  C   UNL d   1      29.587 -14.682   0.945  0.00  0.00     0.109 C 
ATOM     15  S   UNL d   1      31.160 -13.868   0.688  0.00  0.00    -0.140 SA
ATOM     16  C   UNL d   1      31.435 -14.704  -0.843  0.00  0.00     0.311 C 
ATOM     17  N   UNL d   1      30.068 -14.749  -1.477  0.00  0.00    -0.034 N 
ATOM     18  H   UNL d   1      31.651 -15.596  -5.476  0.00  0.00     0.169 HD
ATOM     19  H   UNL d   1      29.889 -13.803  -1.837  0.00  0.00     0.283 HD
ENDROOT
BRANCH  11  20
ATOM     20  C   UNL d   1      30.707 -18.106  -1.819  0.00  0.00     0.169 C 
ATOM     21  O   UNL d   1      31.334 -18.173  -0.768  0.00  0.00    -0.292 OA
BRANCH  20  22
ATOM     22  C   UNL d   1      31.021 -19.105  -2.912  0.00  0.00     0.028 C 
ATOM     23  C   UNL d   1      30.810 -18.892  -4.272  0.00  0.00     0.018 C 
ATOM     24  C   UNL d   1      30.873 -19.874  -5.242  0.00  0.00     0.020 C 
ATOM     25  C   UNL d   1      31.312 -21.092  -4.828  0.00  0.00     0.116 C 
ATOM     26  N   UNL d   1      31.754 -21.308  -3.565  0.00  0.00    -0.272 NA
ATOM     27  C   UNL d   1      31.643 -20.302  -2.646  0.00  0.00     0.131 C 
ENDBRANCH  20  22
ENDBRANCH  11  20
BRANCH  12  28
ATOM     28  C   UNL d   1      27.403 -17.022  -0.395  0.00  0.00    -0.049 C 
ATOM     29  C   UNL d   1      27.060 -18.198   0.282  0.00  0.00     0.007 C 
ATOM     30  C   UNL d   1      25.718 -18.575   0.429  0.00  0.00     0.003 C 
ATOM     31  C   UNL d   1      24.700 -17.854  -0.201  0.00  0.00     0.036 C 
ATOM     32  C   UNL d   1      25.022 -16.671  -0.851  0.00  0.00     0.103 C 
ATOM     33  C   UNL d   1      26.343 -16.211  -0.850  0.00  0.00     0.043 C 
BRANCH  32  34
ATOM     34  N   UNL d   1      24.012 -15.914  -1.606  0.00  0.00    -0.116 N 
ATOM     35  O   UNL d   1      24.399 -15.209  -2.543  0.00  0.00    -0.532 OA
ATOM     36  O   UNL d   1      22.836 -15.999  -1.215  0.00  0.00    -0.532 OA
ENDBRANCH  32  34
ENDBRANCH  12  28
BRANCH   1  37
ATOM     37  O   UNL d   1      25.612 -14.450  -4.845  0.00  0.00    -0.356 OA
ATOM     38  C   UNL d   1      25.374 -13.077  -4.535  0.00  0.00     0.210 C 
ENDBRANCH   1  37
TORSDOF 5
ENDMDL
