MODEL 1
REMARK VINA RESULT:    -7.798      0.000      0.000
REMARK INTER + INTRA:         -12.079
REMARK INTER:                 -11.079
REMARK INTRA:                  -1.000
REMARK CONF_INDEPENDENT:        3.281
REMARK UNBOUND:                -1.000
REMARK  11 active torsions:
REMARK  status: ('A' for Active; 'I' for Inactive)
REMARK    1  A    between atoms: C_2  and  O_3 
REMARK    2  A    between atoms: O_3  and  C_4 
REMARK    3  A    between atoms: C_4  and  C_5 
REMARK    4  A    between atoms: C_5  and  C_6 
REMARK       I    between atoms: C_6  and  N_8 
REMARK    5  A    between atoms: N_8  and  N_9 
REMARK    6  A    between atoms: N_9  and  C_10 
REMARK    7  A    between atoms: C_10  and  N_12 
REMARK       I    between atoms: N_12  and  C_13 
REMARK    8  A    between atoms: C_13  and  C_15 
REMARK    9  A    between atoms: C_18  and  O_19 
REMARK   10  A    between atoms: O_19  and  C_20 
REMARK   11  A    between atoms: C_20  and  C_22 
ROOT
ATOM      1  N   UNL d   1      26.530 -15.551   0.347  0.00  0.00    -0.298 N 
ATOM      2  C   UNL d   1      26.295 -16.781  -0.312  0.00  0.00     0.257 C 
ATOM      3  O   UNL d   1      27.175 -17.520  -0.770  0.00  0.00    -0.267 OA
ATOM      4  H   UNL d   1      25.714 -15.070   0.701  0.00  0.00     0.171 HD
ENDROOT
BRANCH   1   5
ATOM      5  C   UNL d   1      27.793 -14.972   0.616  0.00  0.00     0.193 C 
ATOM      6  S   UNL d   1      29.185 -15.212  -0.311  0.00  0.00    -0.039 SA
BRANCH   5   7
ATOM      7  N   UNL d   1      27.856 -14.135   1.747  0.00  0.00    -0.273 N 
ATOM      8  H   UNL d   1      27.603 -13.150   1.784  0.00  0.00     0.189 HD
BRANCH   7   9
ATOM      9  N   UNL d   1      28.290 -14.699   3.018  0.00  0.00    -0.268 N 
ATOM     10  C   UNL d   1      27.836 -14.198   4.226  0.00  0.00     0.238 C 
ATOM     11  O   UNL d   1      27.044 -13.256   4.274  0.00  0.00    -0.272 OA
ATOM     12  H   UNL d   1      28.946 -15.479   2.951  0.00  0.00     0.190 HD
BRANCH  10  13
ATOM     13  C   UNL d   1      28.386 -14.890   5.485  0.00  0.00     0.130 C 
BRANCH  13  14
ATOM     14  C   UNL d   1      29.877 -14.576   5.664  0.00  0.00     0.176 C 
BRANCH  14  15
ATOM     15  O   UNL d   1      30.127 -13.838   6.870  0.00  0.00    -0.391 OA
BRANCH  15  16
ATOM     16  C   UNL d   1      28.905 -13.638   7.597  0.00  0.00     0.163 C 
ATOM     17  C   UNL d   1      29.019 -14.225   8.992  0.00  0.00     0.033 C 
ENDBRANCH  15  16
ENDBRANCH  14  15
ENDBRANCH  13  14
ENDBRANCH  10  13
ENDBRANCH   7   9
ENDBRANCH   5   7
ENDBRANCH   1   5
BRANCH   2  18
ATOM     18  C   UNL d   1      24.910 -17.285  -0.533  0.00  0.00     0.032 A 
ATOM     19  C   UNL d   1      23.885 -16.377  -0.881  0.00  0.00     0.020 A 
ATOM     20  C   UNL d   1      22.530 -16.760  -0.865  0.00  0.00     0.038 A 
ATOM     21  C   UNL d   1      22.181 -18.081  -0.586  0.00  0.00     0.069 A 
ATOM     22  C   UNL d   1      23.213 -18.980  -0.281  0.00  0.00     0.038 A 
ATOM     23  C   UNL d   1      24.555 -18.584  -0.203  0.00  0.00     0.020 A 
BRANCH  21  24
ATOM     24  O   UNL d   1      20.839 -18.385  -0.613  0.00  0.00    -0.346 OA
BRANCH  24  25
ATOM     25  C   UNL d   1      20.409 -19.584   0.065  0.00  0.00     0.124 C 
ATOM     26  C   UNL d   1      20.266 -19.325   1.571  0.00  0.00     0.040 C 
BRANCH  25  27
ATOM     27  C   UNL d   1      19.036 -20.031  -0.489  0.00  0.00     0.027 C 
ATOM     28  C   UNL d   1      18.304 -20.976   0.467  0.00  0.00     0.007 C 
ENDBRANCH  25  27
ENDBRANCH  24  25
ENDBRANCH  21  24
ENDBRANCH   2  18
TORSDOF 11
ENDMDL
MODEL 2
REMARK VINA RESULT:    -7.295      4.269      6.243
REMARK INTER + INTRA:         -13.513
REMARK INTER:                 -10.577
REMARK INTRA:                  -2.937
REMARK CONF_INDEPENDENT:        3.281
REMARK UNBOUND:                -2.937
REMARK  11 active torsions:
REMARK  status: ('A' for Active; 'I' for Inactive)
REMARK    1  A    between atoms: C_2  and  O_3 
REMARK    2  A    between atoms: O_3  and  C_4 
REMARK    3  A    between atoms: C_4  and  C_5 
REMARK    4  A    between atoms: C_5  and  C_6 
REMARK       I    between atoms: C_6  and  N_8 
REMARK    5  A    between atoms: N_8  and  N_9 
REMARK    6  A    between atoms: N_9  and  C_10 
REMARK    7  A    between atoms: C_10  and  N_12 
REMARK       I    between atoms: N_12  and  C_13 
REMARK    8  A    between atoms: C_13  and  C_15 
REMARK    9  A    between atoms: C_18  and  O_19 
REMARK   10  A    between atoms: O_19  and  C_20 
REMARK   11  A    between atoms: C_20  and  C_22 
ROOT
ATOM      1  N   UNL d   1      26.519 -16.708  -0.271  0.00  0.00    -0.298 N 
ATOM      2  C   UNL d   1      25.286 -16.286  -0.823  0.00  0.00     0.257 C 
ATOM      3  O   UNL d   1      25.108 -15.229  -1.439  0.00  0.00    -0.267 OA
ATOM      4  H   UNL d   1      26.522 -17.615   0.176  0.00  0.00     0.171 HD
ENDROOT
BRANCH   1   5
ATOM      5  C   UNL d   1      27.752 -16.016  -0.348  0.00  0.00     0.193 C 
ATOM      6  S   UNL d   1      28.492 -15.212   0.939  0.00  0.00    -0.039 SA
BRANCH   5   7
ATOM      7  N   UNL d   1      28.382 -16.025  -1.607  0.00  0.00    -0.273 N 
ATOM      8  H   UNL d   1      29.323 -16.356  -1.809  0.00  0.00     0.189 HD
BRANCH   7   9
ATOM      9  N   UNL d   1      27.643 -15.551  -2.769  0.00  0.00    -0.268 N 
ATOM     10  C   UNL d   1      28.219 -15.510  -4.028  0.00  0.00     0.238 C 
ATOM     11  O   UNL d   1      29.379 -15.876  -4.216  0.00  0.00    -0.272 OA
ATOM     12  H   UNL d   1      26.683 -15.254  -2.587  0.00  0.00     0.190 HD
BRANCH  10  13
ATOM     13  C   UNL d   1      27.319 -14.980  -5.157  0.00  0.00     0.130 C 
BRANCH  13  14
ATOM     14  C   UNL d   1      25.896 -15.538  -5.019  0.00  0.00     0.176 C 
BRANCH  14  15
ATOM     15  O   UNL d   1      25.135 -14.822  -4.034  0.00  0.00    -0.391 OA
BRANCH  15  16
ATOM     16  C   UNL d   1      25.188 -13.410  -4.288  0.00  0.00     0.163 C 
ATOM     17  C   UNL d   1      25.908 -12.697  -3.158  0.00  0.00     0.033 C 
ENDBRANCH  15  16
ENDBRANCH  14  15
ENDBRANCH  13  14
ENDBRANCH  10  13
ENDBRANCH   7   9
ENDBRANCH   5   7
ENDBRANCH   1   5
BRANCH   2  18
ATOM     18  C   UNL d   1      24.053 -17.110  -0.674  0.00  0.00     0.032 A 
ATOM     19  C   UNL d   1      24.163 -18.510  -0.516  0.00  0.00     0.020 A 
ATOM     20  C   UNL d   1      23.037 -19.349  -0.611  0.00  0.00     0.038 A 
ATOM     21  C   UNL d   1      21.767 -18.798  -0.779  0.00  0.00     0.069 A 
ATOM     22  C   UNL d   1      21.669 -17.405  -0.895  0.00  0.00     0.038 A 
ATOM     23  C   UNL d   1      22.795 -16.570  -0.896  0.00  0.00     0.020 A 
BRANCH  21  24
ATOM     24  O   UNL d   1      20.713 -19.681  -0.840  0.00  0.00    -0.346 OA
BRANCH  24  25
ATOM     25  C   UNL d   1      19.672 -19.551   0.152  0.00  0.00     0.124 C 
ATOM     26  C   UNL d   1      18.818 -20.825   0.203  0.00  0.00     0.040 C 
BRANCH  25  27
ATOM     27  C   UNL d   1      20.308 -19.330   1.545  0.00  0.00     0.027 C 
ATOM     28  C   UNL d   1      19.694 -20.237   2.614  0.00  0.00     0.007 C 
ENDBRANCH  25  27
ENDBRANCH  24  25
ENDBRANCH  21  24
ENDBRANCH   2  18
TORSDOF 11
ENDMDL
MODEL 3
REMARK VINA RESULT:    -7.256      4.612      6.184
REMARK INTER + INTRA:         -12.799
REMARK INTER:                 -10.538
REMARK INTRA:                  -2.261
REMARK CONF_INDEPENDENT:        3.281
REMARK UNBOUND:                -2.261
REMARK  11 active torsions:
REMARK  status: ('A' for Active; 'I' for Inactive)
REMARK    1  A    between atoms: C_2  and  O_3 
REMARK    2  A    between atoms: O_3  and  C_4 
REMARK    3  A    between atoms: C_4  and  C_5 
REMARK    4  A    between atoms: C_5  and  C_6 
REMARK       I    between atoms: C_6  and  N_8 
REMARK    5  A    between atoms: N_8  and  N_9 
REMARK    6  A    between atoms: N_9  and  C_10 
REMARK    7  A    between atoms: C_10  and  N_12 
REMARK       I    between atoms: N_12  and  C_13 
REMARK    8  A    between atoms: C_13  and  C_15 
REMARK    9  A    between atoms: C_18  and  O_19 
REMARK   10  A    between atoms: O_19  and  C_20 
REMARK   11  A    between atoms: C_20  and  C_22 
ROOT
ATOM      1  N   UNL d   1      26.405 -16.501  -1.921  0.00  0.00    -0.298 N 
ATOM      2  C   UNL d   1      25.962 -17.153  -0.746  0.00  0.00     0.257 C 
ATOM      3  O   UNL d   1      26.693 -17.506   0.187  0.00  0.00    -0.267 OA
ATOM      4  H   UNL d   1      25.687 -16.241  -2.586  0.00  0.00     0.171 HD
ENDROOT
BRANCH   1   5
ATOM      5  C   UNL d   1      27.735 -16.119  -2.219  0.00  0.00     0.193 C 
ATOM      6  S   UNL d   1      29.046 -16.283  -1.167  0.00  0.00    -0.039 SA
BRANCH   5   7
ATOM      7  N   UNL d   1      27.943 -15.569  -3.498  0.00  0.00    -0.273 N 
ATOM      8  H   UNL d   1      28.542 -15.950  -4.229  0.00  0.00     0.189 HD
BRANCH   7   9
ATOM      9  N   UNL d   1      27.231 -14.354  -3.868  0.00  0.00    -0.268 N 
ATOM     10  C   UNL d   1      25.908 -14.385  -4.275  0.00  0.00     0.238 C 
ATOM     11  O   UNL d   1      25.279 -15.441  -4.338  0.00  0.00    -0.272 OA
ATOM     12  H   UNL d   1      27.774 -13.491  -3.807  0.00  0.00     0.190 HD
BRANCH  10  13
ATOM     13  C   UNL d   1      25.290 -13.024  -4.641  0.00  0.00     0.130 C 
BRANCH  13  14
ATOM     14  C   UNL d   1      25.531 -12.004  -3.520  0.00  0.00     0.176 C 
BRANCH  14  15
ATOM     15  O   UNL d   1      26.896 -11.561  -3.486  0.00  0.00    -0.391 OA
BRANCH  15  16
ATOM     16  C   UNL d   1      26.968 -10.144  -3.706  0.00  0.00     0.163 C 
ATOM     17  C   UNL d   1      25.684  -9.474  -3.253  0.00  0.00     0.033 C 
ENDBRANCH  15  16
ENDBRANCH  14  15
ENDBRANCH  13  14
ENDBRANCH  10  13
ENDBRANCH   7   9
ENDBRANCH   5   7
ENDBRANCH   1   5
BRANCH   2  18
ATOM     18  C   UNL d   1      24.527 -17.502  -0.551  0.00  0.00     0.032 A 
ATOM     19  C   UNL d   1      24.141 -18.859  -0.477  0.00  0.00     0.020 A 
ATOM     20  C   UNL d   1      22.787 -19.241  -0.535  0.00  0.00     0.038 A 
ATOM     21  C   UNL d   1      21.789 -18.269  -0.581  0.00  0.00     0.069 A 
ATOM     22  C   UNL d   1      22.185 -16.925  -0.615  0.00  0.00     0.038 A 
ATOM     23  C   UNL d   1      23.533 -16.540  -0.653  0.00  0.00     0.020 A 
BRANCH  21  24
ATOM     24  O   UNL d   1      20.488 -18.719  -0.612  0.00  0.00    -0.346 OA
BRANCH  24  25
ATOM     25  C   UNL d   1      20.160 -19.874   0.190  0.00  0.00     0.124 C 
ATOM     26  C   UNL d   1      20.229 -19.526   1.684  0.00  0.00     0.040 C 
BRANCH  25  27
ATOM     27  C   UNL d   1      18.723 -20.343  -0.139  0.00  0.00     0.027 C 
ATOM     28  C   UNL d   1      18.140 -21.238   0.956  0.00  0.00     0.007 C 
ENDBRANCH  25  27
ENDBRANCH  24  25
ENDBRANCH  21  24
ENDBRANCH   2  18
TORSDOF 11
ENDMDL
MODEL 4
REMARK VINA RESULT:    -7.068      1.505      2.104
REMARK INTER + INTRA:         -12.205
REMARK INTER:                 -10.350
REMARK INTRA:                  -1.855
REMARK CONF_INDEPENDENT:        3.281
REMARK UNBOUND:                -1.855
REMARK  11 active torsions:
REMARK  status: ('A' for Active; 'I' for Inactive)
REMARK    1  A    between atoms: C_2  and  O_3 
REMARK    2  A    between atoms: O_3  and  C_4 
REMARK    3  A    between atoms: C_4  and  C_5 
REMARK    4  A    between atoms: C_5  and  C_6 
REMARK       I    between atoms: C_6  and  N_8 
REMARK    5  A    between atoms: N_8  and  N_9 
REMARK    6  A    between atoms: N_9  and  C_10 
REMARK    7  A    between atoms: C_10  and  N_12 
REMARK       I    between atoms: N_12  and  C_13 
REMARK    8  A    between atoms: C_13  and  C_15 
REMARK    9  A    between atoms: C_18  and  O_19 
REMARK   10  A    between atoms: O_19  and  C_20 
REMARK   11  A    between atoms: C_20  and  C_22 
ROOT
ATOM      1  N   UNL d   1      27.119 -17.350  -0.822  0.00  0.00    -0.298 N 
ATOM      2  C   UNL d   1      25.953 -16.551  -0.761  0.00  0.00     0.257 C 
ATOM      3  O   UNL d   1      25.941 -15.323  -0.624  0.00  0.00    -0.267 OA
ATOM      4  H   UNL d   1      26.976 -18.340  -0.972  0.00  0.00     0.171 HD
ENDROOT
BRANCH   1   5
ATOM      5  C   UNL d   1      28.456 -16.888  -0.765  0.00  0.00     0.193 C 
ATOM      6  S   UNL d   1      29.571 -16.992  -2.029  0.00  0.00    -0.039 SA
BRANCH   5   7
ATOM      7  N   UNL d   1      28.850 -16.299   0.452  0.00  0.00    -0.273 N 
ATOM      8  H   UNL d   1      29.619 -16.600   1.048  0.00  0.00     0.189 HD
BRANCH   7   9
ATOM      9  N   UNL d   1      28.136 -15.123   0.930  0.00  0.00    -0.268 N 
ATOM     10  C   UNL d   1      28.661 -14.308   1.919  0.00  0.00     0.238 C 
ATOM     11  O   UNL d   1      29.755 -14.544   2.432  0.00  0.00    -0.272 OA
ATOM     12  H   UNL d   1      27.232 -14.949   0.488  0.00  0.00     0.190 HD
BRANCH  10  13
ATOM     13  C   UNL d   1      27.792 -13.106   2.326  0.00  0.00     0.130 C 
BRANCH  13  14
ATOM     14  C   UNL d   1      27.030 -13.407   3.623  0.00  0.00     0.176 C 
BRANCH  14  15
ATOM     15  O   UNL d   1      27.834 -13.155   4.786  0.00  0.00    -0.391 OA
BRANCH  15  16
ATOM     16  C   UNL d   1      28.143 -14.385   5.458  0.00  0.00     0.163 C 
ATOM     17  C   UNL d   1      29.640 -14.503   5.682  0.00  0.00     0.033 C 
ENDBRANCH  15  16
ENDBRANCH  14  15
ENDBRANCH  13  14
ENDBRANCH  10  13
ENDBRANCH   7   9
ENDBRANCH   5   7
ENDBRANCH   1   5
BRANCH   2  18
ATOM     18  C   UNL d   1      24.596 -17.162  -0.834  0.00  0.00     0.032 A 
ATOM     19  C   UNL d   1      23.461 -16.330  -0.967  0.00  0.00     0.020 A 
ATOM     20  C   UNL d   1      22.158 -16.836  -0.800  0.00  0.00     0.038 A 
ATOM     21  C   UNL d   1      21.960 -18.199  -0.584  0.00  0.00     0.069 A 
ATOM     22  C   UNL d   1      23.093 -19.019  -0.494  0.00  0.00     0.038 A 
ATOM     23  C   UNL d   1      24.397 -18.508  -0.565  0.00  0.00     0.020 A 
BRANCH  21  24
ATOM     24  O   UNL d   1      20.656 -18.621  -0.454  0.00  0.00    -0.346 OA
BRANCH  24  25
ATOM     25  C   UNL d   1      20.403 -19.766   0.388  0.00  0.00     0.124 C 
ATOM     26  C   UNL d   1      20.277 -19.334   1.855  0.00  0.00     0.040 C 
BRANCH  25  27
ATOM     27  C   UNL d   1      19.079 -20.443  -0.040  0.00  0.00     0.027 C 
ATOM     28  C   UNL d   1      18.320 -21.037   1.148  0.00  0.00     0.007 C 
ENDBRANCH  25  27
ENDBRANCH  24  25
ENDBRANCH  21  24
ENDBRANCH   2  18
TORSDOF 11
ENDMDL
MODEL 5
REMARK VINA RESULT:    -7.042      3.969      6.101
REMARK INTER + INTRA:         -13.305
REMARK INTER:                 -10.323
REMARK INTRA:                  -2.982
REMARK CONF_INDEPENDENT:        3.281
REMARK UNBOUND:                -2.982
REMARK  11 active torsions:
REMARK  status: ('A' for Active; 'I' for Inactive)
REMARK    1  A    between atoms: C_2  and  O_3 
REMARK    2  A    between atoms: O_3  and  C_4 
REMARK    3  A    between atoms: C_4  and  C_5 
REMARK    4  A    between atoms: C_5  and  C_6 
REMARK       I    between atoms: C_6  and  N_8 
REMARK    5  A    between atoms: N_8  and  N_9 
REMARK    6  A    between atoms: N_9  and  C_10 
REMARK    7  A    between atoms: C_10  and  N_12 
REMARK       I    between atoms: N_12  and  C_13 
REMARK    8  A    between atoms: C_13  and  C_15 
REMARK    9  A    between atoms: C_18  and  O_19 
REMARK   10  A    between atoms: O_19  and  C_20 
REMARK   11  A    between atoms: C_20  and  C_22 
ROOT
ATOM      1  N   UNL d   1      26.259 -14.842   0.178  0.00  0.00    -0.298 N 
ATOM      2  C   UNL d   1      26.005 -15.901  -0.725  0.00  0.00     0.257 C 
ATOM      3  O   UNL d   1      26.706 -16.181  -1.704  0.00  0.00    -0.267 OA
ATOM      4  H   UNL d   1      25.616 -14.753   0.955  0.00  0.00     0.171 HD
ENDROOT
BRANCH   1   5
ATOM      5  C   UNL d   1      27.355 -13.948   0.137  0.00  0.00     0.193 C 
ATOM      6  S   UNL d   1      28.725 -14.051   1.120  0.00  0.00    -0.039 SA
BRANCH   5   7
ATOM      7  N   UNL d   1      27.265 -12.911  -0.811  0.00  0.00    -0.273 N 
ATOM      8  H   UNL d   1      27.641 -11.970  -0.713  0.00  0.00     0.189 HD
BRANCH   7   9
ATOM      9  N   UNL d   1      26.606 -13.173  -2.083  0.00  0.00    -0.268 N 
ATOM     10  C   UNL d   1      26.208 -12.143  -2.918  0.00  0.00     0.238 C 
ATOM     11  O   UNL d   1      26.398 -10.963  -2.621  0.00  0.00    -0.272 OA
ATOM     12  H   UNL d   1      26.461 -14.158  -2.307  0.00  0.00     0.190 HD
BRANCH  10  13
ATOM     13  C   UNL d   1      25.519 -12.571  -4.225  0.00  0.00     0.130 C 
BRANCH  13  14
ATOM     14  C   UNL d   1      24.518 -13.703  -3.960  0.00  0.00     0.176 C 
BRANCH  14  15
ATOM     15  O   UNL d   1      25.171 -14.975  -3.828  0.00  0.00    -0.391 OA
BRANCH  15  16
ATOM     16  C   UNL d   1      25.908 -15.285  -5.021  0.00  0.00     0.163 C 
ATOM     17  C   UNL d   1      27.400 -15.208  -4.754  0.00  0.00     0.033 C 
ENDBRANCH  15  16
ENDBRANCH  14  15
ENDBRANCH  13  14
ENDBRANCH  10  13
ENDBRANCH   7   9
ENDBRANCH   5   7
ENDBRANCH   1   5
BRANCH   2  18
ATOM     18  C   UNL d   1      24.809 -16.777  -0.571  0.00  0.00     0.032 A 
ATOM     19  C   UNL d   1      24.982 -18.151  -0.287  0.00  0.00     0.020 A 
ATOM     20  C   UNL d   1      23.907 -19.056  -0.370  0.00  0.00     0.038 A 
ATOM     21  C   UNL d   1      22.623 -18.593  -0.652  0.00  0.00     0.069 A 
ATOM     22  C   UNL d   1      22.460 -17.221  -0.893  0.00  0.00     0.038 A 
ATOM     23  C   UNL d   1      23.541 -16.328  -0.906  0.00  0.00     0.020 A 
BRANCH  21  24
ATOM     24  O   UNL d   1      21.620 -19.535  -0.692  0.00  0.00    -0.346 OA
BRANCH  24  25
ATOM     25  C   UNL d   1      20.416 -19.264   0.057  0.00  0.00     0.124 C 
ATOM     26  C   UNL d   1      19.230 -19.053  -0.895  0.00  0.00     0.040 C 
BRANCH  25  27
ATOM     27  C   UNL d   1      20.098 -20.465   0.979  0.00  0.00     0.027 C 
ATOM     28  C   UNL d   1      18.662 -20.965   0.806  0.00  0.00     0.007 C 
ENDBRANCH  25  27
ENDBRANCH  24  25
ENDBRANCH  21  24
ENDBRANCH   2  18
TORSDOF 11
ENDMDL
MODEL 6
REMARK VINA RESULT:    -6.671      3.769      5.771
REMARK INTER + INTRA:         -12.567
REMARK INTER:                  -9.952
REMARK INTRA:                  -2.615
REMARK CONF_INDEPENDENT:        3.281
REMARK UNBOUND:                -2.615
REMARK  11 active torsions:
REMARK  status: ('A' for Active; 'I' for Inactive)
REMARK    1  A    between atoms: C_2  and  O_3 
REMARK    2  A    between atoms: O_3  and  C_4 
REMARK    3  A    between atoms: C_4  and  C_5 
REMARK    4  A    between atoms: C_5  and  C_6 
REMARK       I    between atoms: C_6  and  N_8 
REMARK    5  A    between atoms: N_8  and  N_9 
REMARK    6  A    between atoms: N_9  and  C_10 
REMARK    7  A    between atoms: C_10  and  N_12 
REMARK       I    between atoms: N_12  and  C_13 
REMARK    8  A    between atoms: C_13  and  C_15 
REMARK    9  A    between atoms: C_18  and  O_19 
REMARK   10  A    between atoms: O_19  and  C_20 
REMARK   11  A    between atoms: C_20  and  C_22 
ROOT
ATOM      1  N   UNL d   1      26.798 -16.543   0.469  0.00  0.00    -0.298 N 
ATOM      2  C   UNL d   1      26.118 -16.668  -0.765  0.00  0.00     0.257 C 
ATOM      3  O   UNL d   1      26.563 -16.308  -1.861  0.00  0.00    -0.267 OA
ATOM      4  H   UNL d   1      26.323 -16.914   1.282  0.00  0.00     0.171 HD
ENDROOT
BRANCH   1   5
ATOM      5  C   UNL d   1      28.098 -16.016   0.660  0.00  0.00     0.193 C 
ATOM      6  S   UNL d   1      28.450 -14.589   1.492  0.00  0.00    -0.039 SA
BRANCH   5   7
ATOM      7  N   UNL d   1      29.152 -16.767   0.106  0.00  0.00    -0.273 N 
ATOM      8  H   UNL d   1      29.712 -17.468   0.586  0.00  0.00     0.189 HD
BRANCH   7   9
ATOM      9  N   UNL d   1      29.489 -16.578  -1.299  0.00  0.00    -0.268 N 
ATOM     10  C   UNL d   1      30.744 -16.893  -1.791  0.00  0.00     0.238 C 
ATOM     11  O   UNL d   1      31.626 -17.349  -1.062  0.00  0.00    -0.272 OA
ATOM     12  H   UNL d   1      28.741 -16.200  -1.883  0.00  0.00     0.190 HD
BRANCH  10  13
ATOM     13  C   UNL d   1      30.956 -16.635  -3.293  0.00  0.00     0.130 C 
BRANCH  13  14
ATOM     14  C   UNL d   1      29.675 -16.941  -4.079  0.00  0.00     0.176 C 
BRANCH  14  15
ATOM     15  O   UNL d   1      28.625 -16.011  -3.771  0.00  0.00    -0.391 OA
BRANCH  15  16
ATOM     16  C   UNL d   1      28.165 -15.361  -4.967  0.00  0.00     0.163 C 
ATOM     17  C   UNL d   1      26.662 -15.160  -4.914  0.00  0.00     0.033 C 
ENDBRANCH  15  16
ENDBRANCH  14  15
ENDBRANCH  13  14
ENDBRANCH  10  13
ENDBRANCH   7   9
ENDBRANCH   5   7
ENDBRANCH   1   5
BRANCH   2  18
ATOM     18  C   UNL d   1      24.745 -17.244  -0.834  0.00  0.00     0.032 A 
ATOM     19  C   UNL d   1      23.639 -16.390  -1.049  0.00  0.00     0.020 A 
ATOM     20  C   UNL d   1      22.318 -16.847  -0.884  0.00  0.00     0.038 A 
ATOM     21  C   UNL d   1      22.074 -18.187  -0.585  0.00  0.00     0.069 A 
ATOM     22  C   UNL d   1      23.180 -19.031  -0.413  0.00  0.00     0.038 A 
ATOM     23  C   UNL d   1      24.499 -18.563  -0.483  0.00  0.00     0.020 A 
BRANCH  21  24
ATOM     24  O   UNL d   1      20.755 -18.562  -0.462  0.00  0.00    -0.346 OA
BRANCH  24  25
ATOM     25  C   UNL d   1      20.463 -19.731   0.333  0.00  0.00     0.124 C 
ATOM     26  C   UNL d   1      20.334 -19.352   1.815  0.00  0.00     0.040 C 
BRANCH  25  27
ATOM     27  C   UNL d   1      19.125 -20.355  -0.133  0.00  0.00     0.027 C 
ATOM     28  C   UNL d   1      18.340 -20.975   1.024  0.00  0.00     0.007 C 
ENDBRANCH  25  27
ENDBRANCH  24  25
ENDBRANCH  21  24
ENDBRANCH   2  18
TORSDOF 11
ENDMDL
MODEL 7
REMARK VINA RESULT:    -6.573      5.057      6.730
REMARK INTER + INTRA:         -12.235
REMARK INTER:                  -9.854
REMARK INTRA:                  -2.381
REMARK CONF_INDEPENDENT:        3.281
REMARK UNBOUND:                -2.381
REMARK  11 active torsions:
REMARK  status: ('A' for Active; 'I' for Inactive)
REMARK    1  A    between atoms: C_2  and  O_3 
REMARK    2  A    between atoms: O_3  and  C_4 
REMARK    3  A    between atoms: C_4  and  C_5 
REMARK    4  A    between atoms: C_5  and  C_6 
REMARK       I    between atoms: C_6  and  N_8 
REMARK    5  A    between atoms: N_8  and  N_9 
REMARK    6  A    between atoms: N_9  and  C_10 
REMARK    7  A    between atoms: C_10  and  N_12 
REMARK       I    between atoms: N_12  and  C_13 
REMARK    8  A    between atoms: C_13  and  C_15 
REMARK    9  A    between atoms: C_18  and  O_19 
REMARK   10  A    between atoms: O_19  and  C_20 
REMARK   11  A    between atoms: C_20  and  C_22 
ROOT
ATOM      1  N   UNL d   1      26.631 -15.988  -1.460  0.00  0.00    -0.298 N 
ATOM      2  C   UNL d   1      25.266 -15.974  -1.833  0.00  0.00     0.257 C 
ATOM      3  O   UNL d   1      24.773 -15.235  -2.693  0.00  0.00    -0.267 OA
ATOM      4  H   UNL d   1      26.898 -16.672  -0.764  0.00  0.00     0.171 HD
ENDROOT
BRANCH   1   5
ATOM      5  C   UNL d   1      27.660 -15.190  -2.015  0.00  0.00     0.193 C 
ATOM      6  S   UNL d   1      29.156 -14.897  -1.287  0.00  0.00    -0.039 SA
BRANCH   5   7
ATOM      7  N   UNL d   1      27.383 -14.617  -3.270  0.00  0.00    -0.273 N 
ATOM      8  H   UNL d   1      26.510 -14.175  -3.553  0.00  0.00     0.189 HD
BRANCH   7   9
ATOM      9  N   UNL d   1      28.427 -14.603  -4.286  0.00  0.00    -0.268 N 
ATOM     10  C   UNL d   1      28.154 -14.903  -5.610  0.00  0.00     0.238 C 
ATOM     11  O   UNL d   1      27.017 -15.191  -5.983  0.00  0.00    -0.272 OA
ATOM     12  H   UNL d   1      29.361 -14.360  -3.952  0.00  0.00     0.190 HD
BRANCH  10  13
ATOM     13  C   UNL d   1      29.358 -14.853  -6.567  0.00  0.00     0.130 C 
BRANCH  13  14
ATOM     14  C   UNL d   1      30.417 -15.883  -6.154  0.00  0.00     0.176 C 
BRANCH  14  15
ATOM     15  O   UNL d   1      30.647 -15.875  -4.736  0.00  0.00    -0.391 OA
BRANCH  15  16
ATOM     16  C   UNL d   1      31.361 -17.055  -4.338  0.00  0.00     0.163 C 
ATOM     17  C   UNL d   1      30.402 -18.220  -4.167  0.00  0.00     0.033 C 
ENDBRANCH  15  16
ENDBRANCH  14  15
ENDBRANCH  13  14
ENDBRANCH  10  13
ENDBRANCH   7   9
ENDBRANCH   5   7
ENDBRANCH   1   5
BRANCH   2  18
ATOM     18  C   UNL d   1      24.277 -16.869  -1.170  0.00  0.00     0.032 A 
ATOM     19  C   UNL d   1      24.625 -18.211  -0.892  0.00  0.00     0.020 A 
ATOM     20  C   UNL d   1      23.656 -19.151  -0.492  0.00  0.00     0.038 A 
ATOM     21  C   UNL d   1      22.339 -18.748  -0.277  0.00  0.00     0.069 A 
ATOM     22  C   UNL d   1      22.017 -17.406  -0.519  0.00  0.00     0.038 A 
ATOM     23  C   UNL d   1      22.954 -16.485  -1.008  0.00  0.00     0.020 A 
BRANCH  21  24
ATOM     24  O   UNL d   1      21.455 -19.720   0.136  0.00  0.00    -0.346 OA
BRANCH  24  25
ATOM     25  C   UNL d   1      20.089 -19.324   0.379  0.00  0.00     0.124 C 
ATOM     26  C   UNL d   1      19.253 -19.470  -0.900  0.00  0.00     0.040 C 
BRANCH  25  27
ATOM     27  C   UNL d   1      19.473 -20.227   1.474  0.00  0.00     0.027 C 
ATOM     28  C   UNL d   1      18.381 -21.145   0.922  0.00  0.00     0.007 C 
ENDBRANCH  25  27
ENDBRANCH  24  25
ENDBRANCH  21  24
ENDBRANCH   2  18
TORSDOF 11
ENDMDL
MODEL 8
REMARK VINA RESULT:    -6.565      4.153      6.093
REMARK INTER + INTRA:         -12.306
REMARK INTER:                  -9.846
REMARK INTRA:                  -2.461
REMARK CONF_INDEPENDENT:        3.281
REMARK UNBOUND:                -2.461
REMARK  11 active torsions:
REMARK  status: ('A' for Active; 'I' for Inactive)
REMARK    1  A    between atoms: C_2  and  O_3 
REMARK    2  A    between atoms: O_3  and  C_4 
REMARK    3  A    between atoms: C_4  and  C_5 
REMARK    4  A    between atoms: C_5  and  C_6 
REMARK       I    between atoms: C_6  and  N_8 
REMARK    5  A    between atoms: N_8  and  N_9 
REMARK    6  A    between atoms: N_9  and  C_10 
REMARK    7  A    between atoms: C_10  and  N_12 
REMARK       I    between atoms: N_12  and  C_13 
REMARK    8  A    between atoms: C_13  and  C_15 
REMARK    9  A    between atoms: C_18  and  O_19 
REMARK   10  A    between atoms: O_19  and  C_20 
REMARK   11  A    between atoms: C_20  and  C_22 
ROOT
ATOM      1  N   UNL d   1      26.111 -15.263  -0.625  0.00  0.00    -0.298 N 
ATOM      2  C   UNL d   1      25.931 -16.661  -0.748  0.00  0.00     0.257 C 
ATOM      3  O   UNL d   1      26.845 -17.490  -0.827  0.00  0.00    -0.267 OA
ATOM      4  H   UNL d   1      25.269 -14.710  -0.535  0.00  0.00     0.171 HD
ENDROOT
BRANCH   1   5
ATOM      5  C   UNL d   1      27.349 -14.581  -0.545  0.00  0.00     0.193 C 
ATOM      6  S   UNL d   1      28.575 -14.928   0.563  0.00  0.00    -0.039 SA
BRANCH   5   7
ATOM      7  N   UNL d   1      27.539 -13.544  -1.478  0.00  0.00    -0.273 N 
ATOM      8  H   UNL d   1      27.897 -12.611  -1.279  0.00  0.00     0.189 HD
BRANCH   7   9
ATOM      9  N   UNL d   1      27.237 -13.793  -2.881  0.00  0.00    -0.268 N 
ATOM     10  C   UNL d   1      25.939 -13.993  -3.318  0.00  0.00     0.238 C 
ATOM     11  O   UNL d   1      24.986 -13.966  -2.539  0.00  0.00    -0.272 OA
ATOM     12  H   UNL d   1      28.044 -13.809  -3.507  0.00  0.00     0.190 HD
BRANCH  10  13
ATOM     13  C   UNL d   1      25.775 -14.250  -4.826  0.00  0.00     0.130 C 
BRANCH  13  14
ATOM     14  C   UNL d   1      26.914 -15.136  -5.349  0.00  0.00     0.176 C 
BRANCH  14  15
ATOM     15  O   UNL d   1      28.151 -14.413  -5.446  0.00  0.00    -0.391 OA
BRANCH  15  16
ATOM     16  C   UNL d   1      29.252 -15.323  -5.600  0.00  0.00     0.163 C 
ATOM     17  C   UNL d   1      29.277 -16.319  -4.455  0.00  0.00     0.033 C 
ENDBRANCH  15  16
ENDBRANCH  14  15
ENDBRANCH  13  14
ENDBRANCH  10  13
ENDBRANCH   7   9
ENDBRANCH   5   7
ENDBRANCH   1   5
BRANCH   2  18
ATOM     18  C   UNL d   1      24.568 -17.259  -0.821  0.00  0.00     0.032 A 
ATOM     19  C   UNL d   1      23.448 -16.422  -1.026  0.00  0.00     0.020 A 
ATOM     20  C   UNL d   1      22.135 -16.902  -0.864  0.00  0.00     0.038 A 
ATOM     21  C   UNL d   1      21.914 -18.249  -0.579  0.00  0.00     0.069 A 
ATOM     22  C   UNL d   1      23.034 -19.076  -0.417  0.00  0.00     0.038 A 
ATOM     23  C   UNL d   1      24.345 -18.586  -0.484  0.00  0.00     0.020 A 
BRANCH  21  24
ATOM     24  O   UNL d   1      20.601 -18.648  -0.459  0.00  0.00    -0.346 OA
BRANCH  24  25
ATOM     25  C   UNL d   1      20.335 -19.860   0.280  0.00  0.00     0.124 C 
ATOM     26  C   UNL d   1      20.289 -19.569   1.786  0.00  0.00     0.040 C 
BRANCH  25  27
ATOM     27  C   UNL d   1      18.966 -20.439  -0.151  0.00  0.00     0.027 C 
ATOM     28  C   UNL d   1      18.151 -20.948   1.040  0.00  0.00     0.007 C 
ENDBRANCH  25  27
ENDBRANCH  24  25
ENDBRANCH  21  24
ENDBRANCH   2  18
TORSDOF 11
ENDMDL
MODEL 9
REMARK VINA RESULT:    -6.491      3.066      4.571
REMARK INTER + INTRA:         -12.289
REMARK INTER:                  -9.772
REMARK INTRA:                  -2.517
REMARK CONF_INDEPENDENT:        3.281
REMARK UNBOUND:                -2.517
REMARK  11 active torsions:
REMARK  status: ('A' for Active; 'I' for Inactive)
REMARK    1  A    between atoms: C_2  and  O_3 
REMARK    2  A    between atoms: O_3  and  C_4 
REMARK    3  A    between atoms: C_4  and  C_5 
REMARK    4  A    between atoms: C_5  and  C_6 
REMARK       I    between atoms: C_6  and  N_8 
REMARK    5  A    between atoms: N_8  and  N_9 
REMARK    6  A    between atoms: N_9  and  C_10 
REMARK    7  A    between atoms: C_10  and  N_12 
REMARK       I    between atoms: N_12  and  C_13 
REMARK    8  A    between atoms: C_13  and  C_15 
REMARK    9  A    between atoms: C_18  and  O_19 
REMARK   10  A    between atoms: O_19  and  C_20 
REMARK   11  A    between atoms: C_20  and  C_22 
ROOT
ATOM      1  N   UNL d   1      27.065 -17.456  -0.318  0.00  0.00    -0.298 N 
ATOM      2  C   UNL d   1      25.939 -16.655  -0.624  0.00  0.00     0.257 C 
ATOM      3  O   UNL d   1      25.963 -15.430  -0.790  0.00  0.00    -0.267 OA
ATOM      4  H   UNL d   1      26.900 -18.451  -0.245  0.00  0.00     0.171 HD
ENDROOT
BRANCH   1   5
ATOM      5  C   UNL d   1      28.399 -17.006  -0.175  0.00  0.00     0.193 C 
ATOM      6  S   UNL d   1      29.743 -17.714  -0.915  0.00  0.00    -0.039 SA
BRANCH   5   7
ATOM      7  N   UNL d   1      28.582 -15.880   0.649  0.00  0.00    -0.273 N 
ATOM      8  H   UNL d   1      28.985 -15.875   1.584  0.00  0.00     0.189 HD
BRANCH   7   9
ATOM      9  N   UNL d   1      28.202 -14.567   0.145  0.00  0.00    -0.268 N 
ATOM     10  C   UNL d   1      28.282 -13.435   0.939  0.00  0.00     0.238 C 
ATOM     11  O   UNL d   1      28.681 -13.492   2.102  0.00  0.00    -0.272 OA
ATOM     12  H   UNL d   1      27.875 -14.547  -0.822  0.00  0.00     0.190 HD
BRANCH  10  13
ATOM     13  C   UNL d   1      27.840 -12.121   0.273  0.00  0.00     0.130 C 
BRANCH  13  14
ATOM     14  C   UNL d   1      27.634 -12.323  -1.234  0.00  0.00     0.176 C 
BRANCH  14  15
ATOM     15  O   UNL d   1      26.447 -13.081  -1.514  0.00  0.00    -0.391 OA
BRANCH  15  16
ATOM     16  C   UNL d   1      25.906 -12.710  -2.791  0.00  0.00     0.163 C 
ATOM     17  C   UNL d   1      27.009 -12.641  -3.832  0.00  0.00     0.033 C 
ENDBRANCH  15  16
ENDBRANCH  14  15
ENDBRANCH  13  14
ENDBRANCH  10  13
ENDBRANCH   7   9
ENDBRANCH   5   7
ENDBRANCH   1   5
BRANCH   2  18
ATOM     18  C   UNL d   1      24.579 -17.253  -0.749  0.00  0.00     0.032 A 
ATOM     19  C   UNL d   1      23.456 -16.408  -0.894  0.00  0.00     0.020 A 
ATOM     20  C   UNL d   1      22.144 -16.907  -0.775  0.00  0.00     0.038 A 
ATOM     21  C   UNL d   1      21.929 -18.273  -0.596  0.00  0.00     0.069 A 
ATOM     22  C   UNL d   1      23.053 -19.104  -0.493  0.00  0.00     0.038 A 
ATOM     23  C   UNL d   1      24.362 -18.603  -0.516  0.00  0.00     0.020 A 
BRANCH  21  24
ATOM     24  O   UNL d   1      20.619 -18.686  -0.513  0.00  0.00    -0.346 OA
BRANCH  24  25
ATOM     25  C   UNL d   1      20.337 -19.864   0.273  0.00  0.00     0.124 C 
ATOM     26  C   UNL d   1      20.280 -19.510   1.766  0.00  0.00     0.040 C 
BRANCH  25  27
ATOM     27  C   UNL d   1      18.968 -20.451  -0.145  0.00  0.00     0.027 C 
ATOM     28  C   UNL d   1      18.227 -21.090   1.032  0.00  0.00     0.007 C 
ENDBRANCH  25  27
ENDBRANCH  24  25
ENDBRANCH  21  24
ENDBRANCH   2  18
TORSDOF 11
ENDMDL
