MODEL 1
REMARK VINA RESULT:    -8.267      0.000      0.000
REMARK INTER + INTRA:          -9.736
REMARK INTER:                  -9.460
REMARK INTRA:                  -0.276
REMARK CONF_INDEPENDENT:        1.193
REMARK UNBOUND:                -0.276
REMARK  4 active torsions:
REMARK  status: ('A' for Active; 'I' for Inactive)
REMARK    1  A    between atoms: C_5  and  C_6 
REMARK       I    between atoms: C_6  and  N_8 
REMARK    2  A    between atoms: N_8  and  C_9 
REMARK    3  A    between atoms: C_13  and  C_14 
REMARK    4  A    between atoms: C_20  and  O_21 
ROOT
ATOM      1  C   UNL d   1      21.982 -18.260  -0.330  0.00  0.00     0.256 C 
ATOM      2  O   UNL d   1      21.754 -17.186  -0.895  0.00  0.00    -0.267 OA
ATOM      3  N   UNL d   1      23.264 -18.750  -0.093  0.00  0.00    -0.323 N 
ATOM      4  H   UNL d   1      23.403 -19.705   0.200  0.00  0.00     0.169 HD
ENDROOT
BRANCH   3   5
ATOM      5  C   UNL d   1      24.439 -18.013  -0.367  0.00  0.00     0.035 A 
ATOM      6  C   UNL d   1      25.576 -18.171   0.432  0.00  0.00     0.029 A 
ATOM      7  C   UNL d   1      26.716 -17.390   0.198  0.00  0.00     0.003 A 
ATOM      8  C   UNL d   1      26.726 -16.459  -0.841  0.00  0.00     0.016 A 
ATOM      9  C   UNL d   1      25.583 -16.273  -1.628  0.00  0.00     0.050 A 
ATOM     10  C   UNL d   1      24.452 -17.066  -1.389  0.00  0.00     0.045 A 
BRANCH   9  11
ATOM     11  C   UNL d   1      25.540 -15.203  -2.685  0.00  0.00     0.417 C 
ATOM     12  F   UNL d   1      24.306 -14.633  -2.780  0.00  0.00    -0.166 F 
ATOM     13  F   UNL d   1      26.406 -14.184  -2.439  0.00  0.00    -0.166 F 
ATOM     14  F   UNL d   1      25.832 -15.656  -3.936  0.00  0.00    -0.166 F 
ENDBRANCH   9  11
ENDBRANCH   3   5
BRANCH   1  15
ATOM     15  C   UNL d   1      20.802 -19.098   0.065  0.00  0.00     0.035 A 
ATOM     16  C   UNL d   1      19.852 -19.552  -0.855  0.00  0.00     0.018 A 
ATOM     17  C   UNL d   1      18.783 -20.351  -0.432  0.00  0.00     0.010 A 
ATOM     18  C   UNL d   1      18.641 -20.709   0.914  0.00  0.00    -0.029 A 
ATOM     19  C   UNL d   1      17.497 -21.575   1.355  0.00  0.00     0.051 C 
ATOM     20  C   UNL d   1      19.583 -20.248   1.834  0.00  0.00     0.072 A 
ATOM     21  C   UNL d   1      20.655 -19.453   1.424  0.00  0.00     0.054 A 
BRANCH  20  22
ATOM     22  O   UNL d   1      19.416 -20.601   3.145  0.00  0.00    -0.360 OA
ATOM     23  H   UNL d   1      20.242 -20.968   3.498  0.00  0.00     0.217 HD
ENDBRANCH  20  22
ENDBRANCH   1  15
TORSDOF 4
ENDMDL
MODEL 2
REMARK VINA RESULT:    -7.869      0.969      1.112
REMARK INTER + INTRA:          -9.427
REMARK INTER:                  -9.062
REMARK INTRA:                  -0.365
REMARK CONF_INDEPENDENT:        1.193
REMARK UNBOUND:                -0.365
REMARK  4 active torsions:
REMARK  status: ('A' for Active; 'I' for Inactive)
REMARK    1  A    between atoms: C_5  and  C_6 
REMARK       I    between atoms: C_6  and  N_8 
REMARK    2  A    between atoms: N_8  and  C_9 
REMARK    3  A    between atoms: C_13  and  C_14 
REMARK    4  A    between atoms: C_20  and  O_21 
ROOT
ATOM      1  C   UNL d   1      22.658 -17.625  -0.688  0.00  0.00     0.256 C 
ATOM      2  O   UNL d   1      22.432 -16.424  -0.871  0.00  0.00    -0.267 OA
ATOM      3  N   UNL d   1      23.914 -18.205  -0.844  0.00  0.00    -0.323 N 
ATOM      4  H   UNL d   1      24.017 -19.208  -0.865  0.00  0.00     0.169 HD
ENDROOT
BRANCH   3   5
ATOM      5  C   UNL d   1      25.085 -17.460  -1.111  0.00  0.00     0.035 A 
ATOM      6  C   UNL d   1      26.163 -17.491  -0.220  0.00  0.00     0.029 A 
ATOM      7  C   UNL d   1      27.295 -16.699  -0.455  0.00  0.00     0.003 A 
ATOM      8  C   UNL d   1      27.359 -15.886  -1.586  0.00  0.00     0.016 A 
ATOM      9  C   UNL d   1      26.273 -15.826  -2.470  0.00  0.00     0.050 A 
ATOM     10  C   UNL d   1      25.150 -16.629  -2.227  0.00  0.00     0.045 A 
BRANCH   9  11
ATOM     11  C   UNL d   1      26.280 -14.878  -3.637  0.00  0.00     0.417 C 
ATOM     12  F   UNL d   1      25.184 -14.069  -3.641  0.00  0.00    -0.166 F 
ATOM     13  F   UNL d   1      27.359 -14.049  -3.637  0.00  0.00    -0.166 F 
ATOM     14  F   UNL d   1      26.281 -15.500  -4.849  0.00  0.00    -0.166 F 
ENDBRANCH   9  11
ENDBRANCH   3   5
BRANCH   1  15
ATOM     15  C   UNL d   1      21.494 -18.501  -0.334  0.00  0.00     0.035 A 
ATOM     16  C   UNL d   1      20.535 -18.903  -1.269  0.00  0.00     0.018 A 
ATOM     17  C   UNL d   1      19.481 -19.741  -0.886  0.00  0.00     0.010 A 
ATOM     18  C   UNL d   1      19.364 -20.193   0.433  0.00  0.00    -0.029 A 
ATOM     19  C   UNL d   1      18.235 -21.100   0.831  0.00  0.00     0.051 C 
ATOM     20  C   UNL d   1      20.314 -19.784   1.370  0.00  0.00     0.072 A 
ATOM     21  C   UNL d   1      21.371 -18.950   0.999  0.00  0.00     0.054 A 
BRANCH  20  22
ATOM     22  O   UNL d   1      20.171 -20.228   2.655  0.00  0.00    -0.360 OA
ATOM     23  H   UNL d   1      21.029 -20.518   3.004  0.00  0.00     0.217 HD
ENDBRANCH  20  22
ENDBRANCH   1  15
TORSDOF 4
ENDMDL
MODEL 3
REMARK VINA RESULT:    -7.391      1.403      2.022
REMARK INTER + INTRA:          -8.947
REMARK INTER:                  -8.584
REMARK INTRA:                  -0.362
REMARK CONF_INDEPENDENT:        1.193
REMARK UNBOUND:                -0.362
REMARK  4 active torsions:
REMARK  status: ('A' for Active; 'I' for Inactive)
REMARK    1  A    between atoms: C_5  and  C_6 
REMARK       I    between atoms: C_6  and  N_8 
REMARK    2  A    between atoms: N_8  and  C_9 
REMARK    3  A    between atoms: C_13  and  C_14 
REMARK    4  A    between atoms: C_20  and  O_21 
ROOT
ATOM      1  C   UNL d   1      22.654 -18.479  -0.884  0.00  0.00     0.256 C 
ATOM      2  O   UNL d   1      22.814 -18.912  -2.030  0.00  0.00    -0.267 OA
ATOM      3  N   UNL d   1      23.537 -17.599  -0.262  0.00  0.00    -0.323 N 
ATOM      4  H   UNL d   1      23.469 -17.418   0.728  0.00  0.00     0.169 HD
ENDROOT
BRANCH   3   5
ATOM      5  C   UNL d   1      24.644 -17.016  -0.920  0.00  0.00     0.035 A 
ATOM      6  C   UNL d   1      25.947 -17.295  -0.496  0.00  0.00     0.029 A 
ATOM      7  C   UNL d   1      27.038 -16.663  -1.108  0.00  0.00     0.003 A 
ATOM      8  C   UNL d   1      26.831 -15.763  -2.153  0.00  0.00     0.016 A 
ATOM      9  C   UNL d   1      25.528 -15.455  -2.566  0.00  0.00     0.050 A 
ATOM     10  C   UNL d   1      24.446 -16.099  -1.951  0.00  0.00     0.045 A 
BRANCH   9  11
ATOM     11  C   UNL d   1      25.280 -14.410  -3.619  0.00  0.00     0.417 C 
ATOM     12  F   UNL d   1      25.666 -14.832  -4.855  0.00  0.00    -0.166 F 
ATOM     13  F   UNL d   1      23.966 -14.074  -3.729  0.00  0.00    -0.166 F 
ATOM     14  F   UNL d   1      25.952 -13.244  -3.403  0.00  0.00    -0.166 F 
ENDBRANCH   9  11
ENDBRANCH   3   5
BRANCH   1  15
ATOM     15  C   UNL d   1      21.470 -18.982  -0.114  0.00  0.00     0.035 A 
ATOM     16  C   UNL d   1      21.405 -18.950   1.283  0.00  0.00     0.018 A 
ATOM     17  C   UNL d   1      20.263 -19.413   1.948  0.00  0.00     0.010 A 
ATOM     18  C   UNL d   1      19.169 -19.916   1.235  0.00  0.00    -0.029 A 
ATOM     19  C   UNL d   1      17.946 -20.400   1.958  0.00  0.00     0.051 C 
ATOM     20  C   UNL d   1      19.237 -19.958  -0.158  0.00  0.00     0.072 A 
ATOM     21  C   UNL d   1      20.369 -19.497  -0.833  0.00  0.00     0.054 A 
BRANCH  20  22
ATOM     22  O   UNL d   1      18.161 -20.465  -0.832  0.00  0.00    -0.360 OA
ATOM     23  H   UNL d   1      17.663 -19.746  -1.252  0.00  0.00     0.217 HD
ENDBRANCH  20  22
ENDBRANCH   1  15
TORSDOF 4
ENDMDL
MODEL 4
REMARK VINA RESULT:    -7.252      1.827      2.426
REMARK INTER + INTRA:          -8.799
REMARK INTER:                  -8.446
REMARK INTRA:                  -0.353
REMARK CONF_INDEPENDENT:        1.193
REMARK UNBOUND:                -0.353
REMARK  4 active torsions:
REMARK  status: ('A' for Active; 'I' for Inactive)
REMARK    1  A    between atoms: C_5  and  C_6 
REMARK       I    between atoms: C_6  and  N_8 
REMARK    2  A    between atoms: N_8  and  C_9 
REMARK    3  A    between atoms: C_13  and  C_14 
REMARK    4  A    between atoms: C_20  and  O_21 
ROOT
ATOM      1  C   UNL d   1      22.232 -18.531  -0.949  0.00  0.00     0.256 C 
ATOM      2  O   UNL d   1      22.648 -18.962  -2.029  0.00  0.00    -0.267 OA
ATOM      3  N   UNL d   1      22.857 -17.511  -0.234  0.00  0.00    -0.323 N 
ATOM      4  H   UNL d   1      22.595 -17.317   0.720  0.00  0.00     0.169 HD
ENDROOT
BRANCH   3   5
ATOM      5  C   UNL d   1      23.963 -16.782  -0.729  0.00  0.00     0.035 A 
ATOM      6  C   UNL d   1      23.774 -15.743  -1.645  0.00  0.00     0.029 A 
ATOM      7  C   UNL d   1      24.878 -15.068  -2.184  0.00  0.00     0.003 A 
ATOM      8  C   UNL d   1      26.171 -15.421  -1.798  0.00  0.00     0.016 A 
ATOM      9  C   UNL d   1      26.373 -16.479  -0.903  0.00  0.00     0.050 A 
ATOM     10  C   UNL d   1      25.260 -17.141  -0.366  0.00  0.00     0.045 A 
BRANCH   9  11
ATOM     11  C   UNL d   1      27.761 -16.942  -0.556  0.00  0.00     0.417 C 
ATOM     12  F   UNL d   1      28.346 -16.139   0.376  0.00  0.00    -0.166 F 
ATOM     13  F   UNL d   1      27.784 -18.199  -0.037  0.00  0.00    -0.166 F 
ATOM     14  F   UNL d   1      28.616 -16.955  -1.617  0.00  0.00    -0.166 F 
ENDBRANCH   9  11
ENDBRANCH   3   5
BRANCH   1  15
ATOM     15  C   UNL d   1      21.020 -19.189  -0.360  0.00  0.00     0.035 A 
ATOM     16  C   UNL d   1      19.890 -19.512  -1.118  0.00  0.00     0.018 A 
ATOM     17  C   UNL d   1      18.796 -20.147  -0.519  0.00  0.00     0.010 A 
ATOM     18  C   UNL d   1      18.807 -20.470   0.843  0.00  0.00    -0.029 A 
ATOM     19  C   UNL d   1      17.632 -21.161   1.472  0.00  0.00     0.051 C 
ATOM     20  C   UNL d   1      19.930 -20.139   1.602  0.00  0.00     0.072 A 
ATOM     21  C   UNL d   1      21.029 -19.508   1.015  0.00  0.00     0.054 A 
BRANCH  20  22
ATOM     22  O   UNL d   1      19.914 -20.454   2.932  0.00  0.00    -0.360 OA
ATOM     23  H   UNL d   1      20.812 -20.404   3.297  0.00  0.00     0.217 HD
ENDBRANCH  20  22
ENDBRANCH   1  15
TORSDOF 4
ENDMDL
MODEL 5
REMARK VINA RESULT:    -6.895      4.331      8.004
REMARK INTER + INTRA:          -8.438
REMARK INTER:                  -8.088
REMARK INTRA:                  -0.350
REMARK CONF_INDEPENDENT:        1.193
REMARK UNBOUND:                -0.350
REMARK  4 active torsions:
REMARK  status: ('A' for Active; 'I' for Inactive)
REMARK    1  A    between atoms: C_5  and  C_6 
REMARK       I    between atoms: C_6  and  N_8 
REMARK    2  A    between atoms: N_8  and  C_9 
REMARK    3  A    between atoms: C_13  and  C_14 
REMARK    4  A    between atoms: C_20  and  O_21 
ROOT
ATOM      1  C   UNL d   1      23.087 -17.641  -0.381  0.00  0.00     0.256 C 
ATOM      2  O   UNL d   1      22.323 -16.694  -0.592  0.00  0.00    -0.267 OA
ATOM      3  N   UNL d   1      22.652 -18.933  -0.092  0.00  0.00    -0.323 N 
ATOM      4  H   UNL d   1      23.298 -19.627   0.252  0.00  0.00     0.169 HD
ENDROOT
BRANCH   3   5
ATOM      5  C   UNL d   1      21.293 -19.320  -0.127  0.00  0.00     0.035 A 
ATOM      6  C   UNL d   1      20.516 -19.077  -1.264  0.00  0.00     0.029 A 
ATOM      7  C   UNL d   1      19.153 -19.402  -1.270  0.00  0.00     0.003 A 
ATOM      8  C   UNL d   1      18.566 -19.982  -0.145  0.00  0.00     0.016 A 
ATOM      9  C   UNL d   1      19.329 -20.203   1.009  0.00  0.00     0.050 A 
ATOM     10  C   UNL d   1      20.693 -19.880   0.999  0.00  0.00     0.045 A 
BRANCH   9  11
ATOM     11  C   UNL d   1      18.691 -20.729   2.266  0.00  0.00     0.417 C 
ATOM     12  F   UNL d   1      17.667 -19.935   2.687  0.00  0.00    -0.166 F 
ATOM     13  F   UNL d   1      18.163 -21.972   2.108  0.00  0.00    -0.166 F 
ATOM     14  F   UNL d   1      19.548 -20.813   3.322  0.00  0.00    -0.166 F 
ENDBRANCH   9  11
ENDBRANCH   3   5
BRANCH   1  15
ATOM     15  C   UNL d   1      24.559 -17.357  -0.386  0.00  0.00     0.035 A 
ATOM     16  C   UNL d   1      25.489 -18.161   0.281  0.00  0.00     0.018 A 
ATOM     17  C   UNL d   1      26.855 -17.860   0.223  0.00  0.00     0.010 A 
ATOM     18  C   UNL d   1      27.318 -16.754  -0.499  0.00  0.00    -0.029 A 
ATOM     19  C   UNL d   1      28.786 -16.446  -0.563  0.00  0.00     0.051 C 
ATOM     20  C   UNL d   1      26.390 -15.944  -1.155  0.00  0.00     0.072 A 
ATOM     21  C   UNL d   1      25.025 -16.236  -1.107  0.00  0.00     0.054 A 
BRANCH  20  22
ATOM     22  O   UNL d   1      26.865 -14.862  -1.843  0.00  0.00    -0.360 OA
ATOM     23  H   UNL d   1      26.904 -14.088  -1.259  0.00  0.00     0.217 HD
ENDBRANCH  20  22
ENDBRANCH   1  15
TORSDOF 4
ENDMDL
MODEL 6
REMARK VINA RESULT:    -6.840      4.048      8.547
REMARK INTER + INTRA:          -8.293
REMARK INTER:                  -8.033
REMARK INTRA:                  -0.260
REMARK CONF_INDEPENDENT:        1.193
REMARK UNBOUND:                -0.260
REMARK  4 active torsions:
REMARK  status: ('A' for Active; 'I' for Inactive)
REMARK    1  A    between atoms: C_5  and  C_6 
REMARK       I    between atoms: C_6  and  N_8 
REMARK    2  A    between atoms: N_8  and  C_9 
REMARK    3  A    between atoms: C_13  and  C_14 
REMARK    4  A    between atoms: C_20  and  O_21 
ROOT
ATOM      1  C   UNL d   1      25.652 -14.976  -3.277  0.00  0.00     0.256 C 
ATOM      2  O   UNL d   1      24.478 -14.645  -3.085  0.00  0.00    -0.267 OA
ATOM      3  N   UNL d   1      26.334 -15.895  -2.482  0.00  0.00    -0.323 N 
ATOM      4  H   UNL d   1      27.335 -15.997  -2.558  0.00  0.00     0.169 HD
ENDROOT
BRANCH   3   5
ATOM      5  C   UNL d   1      25.717 -16.633  -1.447  0.00  0.00     0.035 A 
ATOM      6  C   UNL d   1      26.481 -17.167  -0.404  0.00  0.00     0.029 A 
ATOM      7  C   UNL d   1      25.875 -17.955   0.583  0.00  0.00     0.003 A 
ATOM      8  C   UNL d   1      24.503 -18.200   0.539  0.00  0.00     0.016 A 
ATOM      9  C   UNL d   1      23.733 -17.694  -0.516  0.00  0.00     0.050 A 
ATOM     10  C   UNL d   1      24.350 -16.902  -1.493  0.00  0.00     0.045 A 
BRANCH   9  11
ATOM     11  C   UNL d   1      22.272 -18.034  -0.637  0.00  0.00     0.417 C 
ATOM     12  F   UNL d   1      21.782 -18.581   0.510  0.00  0.00    -0.166 F 
ATOM     13  F   UNL d   1      21.498 -16.947  -0.897  0.00  0.00    -0.166 F 
ATOM     14  F   UNL d   1      22.000 -18.938  -1.620  0.00  0.00    -0.166 F 
ENDBRANCH   9  11
ENDBRANCH   3   5
BRANCH   1  15
ATOM     15  C   UNL d   1      26.388 -14.301  -4.396  0.00  0.00     0.035 A 
ATOM     16  C   UNL d   1      26.242 -12.940  -4.686  0.00  0.00     0.018 A 
ATOM     17  C   UNL d   1      26.972 -12.358  -5.729  0.00  0.00     0.010 A 
ATOM     18  C   UNL d   1      27.857 -13.120  -6.501  0.00  0.00    -0.029 A 
ATOM     19  C   UNL d   1      28.643 -12.483  -7.611  0.00  0.00     0.051 C 
ATOM     20  C   UNL d   1      27.995 -14.480  -6.219  0.00  0.00     0.072 A 
ATOM     21  C   UNL d   1      27.274 -15.071  -5.179  0.00  0.00     0.054 A 
BRANCH  20  22
ATOM     22  O   UNL d   1      28.855 -15.205  -6.994  0.00  0.00    -0.360 OA
ATOM     23  H   UNL d   1      28.896 -14.829  -7.889  0.00  0.00     0.217 HD
ENDBRANCH  20  22
ENDBRANCH   1  15
TORSDOF 4
ENDMDL
MODEL 7
REMARK VINA RESULT:    -6.727      2.175      3.070
REMARK INTER + INTRA:          -8.261
REMARK INTER:                  -7.920
REMARK INTRA:                  -0.341
REMARK CONF_INDEPENDENT:        1.193
REMARK UNBOUND:                -0.341
REMARK  4 active torsions:
REMARK  status: ('A' for Active; 'I' for Inactive)
REMARK    1  A    between atoms: C_5  and  C_6 
REMARK       I    between atoms: C_6  and  N_8 
REMARK    2  A    between atoms: N_8  and  C_9 
REMARK    3  A    between atoms: C_13  and  C_14 
REMARK    4  A    between atoms: C_20  and  O_21 
ROOT
ATOM      1  C   UNL d   1      23.889 -17.717  -0.679  0.00  0.00     0.256 C 
ATOM      2  O   UNL d   1      24.917 -18.320  -0.354  0.00  0.00    -0.267 OA
ATOM      3  N   UNL d   1      23.889 -16.467  -1.292  0.00  0.00    -0.323 N 
ATOM      4  H   UNL d   1      23.036 -15.934  -1.371  0.00  0.00     0.169 HD
ENDROOT
BRANCH   3   5
ATOM      5  C   UNL d   1      25.067 -15.810  -1.715  0.00  0.00     0.035 A 
ATOM      6  C   UNL d   1      25.873 -15.136  -0.792  0.00  0.00     0.029 A 
ATOM      7  C   UNL d   1      27.003 -14.431  -1.224  0.00  0.00     0.003 A 
ATOM      8  C   UNL d   1      27.339 -14.408  -2.578  0.00  0.00     0.016 A 
ATOM      9  C   UNL d   1      26.523 -15.056  -3.515  0.00  0.00     0.050 A 
ATOM     10  C   UNL d   1      25.400 -15.764  -3.068  0.00  0.00     0.045 A 
BRANCH   9  11
ATOM     11  C   UNL d   1      26.810 -14.955  -4.988  0.00  0.00     0.417 C 
ATOM     12  F   UNL d   1      28.082 -15.343  -5.285  0.00  0.00    -0.166 F 
ATOM     13  F   UNL d   1      25.992 -15.739  -5.739  0.00  0.00    -0.166 F 
ATOM     14  F   UNL d   1      26.687 -13.692  -5.485  0.00  0.00    -0.166 F 
ENDBRANCH   9  11
ENDBRANCH   3   5
BRANCH   1  15
ATOM     15  C   UNL d   1      22.575 -18.356  -0.337  0.00  0.00     0.035 A 
ATOM     16  C   UNL d   1      22.160 -18.575   0.980  0.00  0.00     0.018 A 
ATOM     17  C   UNL d   1      20.912 -19.155   1.240  0.00  0.00     0.010 A 
ATOM     18  C   UNL d   1      20.059 -19.527   0.195  0.00  0.00    -0.029 A 
ATOM     19  C   UNL d   1      18.719 -20.138   0.486  0.00  0.00     0.051 C 
ATOM     20  C   UNL d   1      20.478 -19.318  -1.120  0.00  0.00     0.072 A 
ATOM     21  C   UNL d   1      21.718 -18.738  -1.392  0.00  0.00     0.054 A 
BRANCH  20  22
ATOM     22  O   UNL d   1      19.632 -19.700  -2.124  0.00  0.00    -0.360 OA
ATOM     23  H   UNL d   1      18.746 -19.334  -1.971  0.00  0.00     0.217 HD
ENDBRANCH  20  22
ENDBRANCH   1  15
TORSDOF 4
ENDMDL
MODEL 8
REMARK VINA RESULT:    -6.658      1.592      2.055
REMARK INTER + INTRA:          -8.185
REMARK INTER:                  -7.851
REMARK INTRA:                  -0.334
REMARK CONF_INDEPENDENT:        1.193
REMARK UNBOUND:                -0.334
REMARK  4 active torsions:
REMARK  status: ('A' for Active; 'I' for Inactive)
REMARK    1  A    between atoms: C_5  and  C_6 
REMARK       I    between atoms: C_6  and  N_8 
REMARK    2  A    between atoms: N_8  and  C_9 
REMARK    3  A    between atoms: C_13  and  C_14 
REMARK    4  A    between atoms: C_20  and  O_21 
ROOT
ATOM      1  C   UNL d   1      22.914 -17.790  -0.554  0.00  0.00     0.256 C 
ATOM      2  O   UNL d   1      22.817 -16.789  -1.272  0.00  0.00    -0.267 OA
ATOM      3  N   UNL d   1      24.122 -18.259  -0.044  0.00  0.00    -0.323 N 
ATOM      4  H   UNL d   1      24.181 -19.173   0.379  0.00  0.00     0.169 HD
ENDROOT
BRANCH   3   5
ATOM      5  C   UNL d   1      25.348 -17.572  -0.197  0.00  0.00     0.035 A 
ATOM      6  C   UNL d   1      26.530 -18.277  -0.440  0.00  0.00     0.029 A 
ATOM      7  C   UNL d   1      27.753 -17.598  -0.524  0.00  0.00     0.003 A 
ATOM      8  C   UNL d   1      27.795 -16.211  -0.380  0.00  0.00     0.016 A 
ATOM      9  C   UNL d   1      26.620 -15.498  -0.108  0.00  0.00     0.050 A 
ATOM     10  C   UNL d   1      25.403 -16.189  -0.034  0.00  0.00     0.045 A 
BRANCH   9  11
ATOM     11  C   UNL d   1      26.660 -14.017   0.154  0.00  0.00     0.417 C 
ATOM     12  F   UNL d   1      26.444 -13.294  -0.981  0.00  0.00    -0.166 F 
ATOM     13  F   UNL d   1      25.714 -13.613   1.043  0.00  0.00    -0.166 F 
ATOM     14  F   UNL d   1      27.853 -13.579   0.646  0.00  0.00    -0.166 F 
ENDBRANCH   9  11
ENDBRANCH   3   5
BRANCH   1  15
ATOM     15  C   UNL d   1      21.660 -18.562  -0.270  0.00  0.00     0.035 A 
ATOM     16  C   UNL d   1      20.752 -18.926  -1.270  0.00  0.00     0.018 A 
ATOM     17  C   UNL d   1      19.608 -19.667  -0.949  0.00  0.00     0.010 A 
ATOM     18  C   UNL d   1      19.349 -20.058   0.369  0.00  0.00    -0.029 A 
ATOM     19  C   UNL d   1      18.125 -20.862   0.700  0.00  0.00     0.051 C 
ATOM     20  C   UNL d   1      20.249 -19.686   1.369  0.00  0.00     0.072 A 
ATOM     21  C   UNL d   1      21.395 -18.949   1.061  0.00  0.00     0.054 A 
BRANCH  20  22
ATOM     22  O   UNL d   1      19.969 -20.069   2.651  0.00  0.00    -0.360 OA
ATOM     23  H   UNL d   1      20.731 -20.531   3.035  0.00  0.00     0.217 HD
ENDBRANCH  20  22
ENDBRANCH   1  15
TORSDOF 4
ENDMDL
MODEL 9
REMARK VINA RESULT:    -6.517      4.199      8.555
REMARK INTER + INTRA:          -8.074
REMARK INTER:                  -7.710
REMARK INTRA:                  -0.364
REMARK CONF_INDEPENDENT:        1.193
REMARK UNBOUND:                -0.364
REMARK  4 active torsions:
REMARK  status: ('A' for Active; 'I' for Inactive)
REMARK    1  A    between atoms: C_5  and  C_6 
REMARK       I    between atoms: C_6  and  N_8 
REMARK    2  A    between atoms: N_8  and  C_9 
REMARK    3  A    between atoms: C_13  and  C_14 
REMARK    4  A    between atoms: C_20  and  O_21 
ROOT
ATOM      1  C   UNL d   1      25.768 -14.928  -3.521  0.00  0.00     0.256 C 
ATOM      2  O   UNL d   1      25.530 -15.950  -4.171  0.00  0.00    -0.267 OA
ATOM      3  N   UNL d   1      25.640 -14.847  -2.136  0.00  0.00    -0.323 N 
ATOM      4  H   UNL d   1      25.665 -13.954  -1.669  0.00  0.00     0.169 HD
ENDROOT
BRANCH   3   5
ATOM      5  C   UNL d   1      25.339 -15.961  -1.319  0.00  0.00     0.035 A 
ATOM      6  C   UNL d   1      26.355 -16.627  -0.627  0.00  0.00     0.029 A 
ATOM      7  C   UNL d   1      26.063 -17.771   0.128  0.00  0.00     0.003 A 
ATOM      8  C   UNL d   1      24.752 -18.243   0.204  0.00  0.00     0.016 A 
ATOM      9  C   UNL d   1      23.732 -17.601  -0.508  0.00  0.00     0.050 A 
ATOM     10  C   UNL d   1      24.037 -16.454  -1.254  0.00  0.00     0.045 A 
BRANCH   9  11
ATOM     11  C   UNL d   1      22.334 -18.156  -0.523  0.00  0.00     0.417 C 
ATOM     12  F   UNL d   1      21.952 -18.602   0.706  0.00  0.00    -0.166 F 
ATOM     13  F   UNL d   1      21.405 -17.235  -0.895  0.00  0.00    -0.166 F 
ATOM     14  F   UNL d   1      22.174 -19.216  -1.364  0.00  0.00    -0.166 F 
ENDBRANCH   9  11
ENDBRANCH   3   5
BRANCH   1  15
ATOM     15  C   UNL d   1      26.162 -13.698  -4.284  0.00  0.00     0.035 A 
ATOM     16  C   UNL d   1      27.067 -13.725  -5.349  0.00  0.00     0.018 A 
ATOM     17  C   UNL d   1      27.381 -12.548  -6.040  0.00  0.00     0.010 A 
ATOM     18  C   UNL d   1      26.800 -11.326  -5.682  0.00  0.00    -0.029 A 
ATOM     19  C   UNL d   1      27.135 -10.072  -6.436  0.00  0.00     0.051 C 
ATOM     20  C   UNL d   1      25.905 -11.297  -4.612  0.00  0.00     0.072 A 
ATOM     21  C   UNL d   1      25.582 -12.464  -3.917  0.00  0.00     0.054 A 
BRANCH  20  22
ATOM     22  O   UNL d   1      25.360 -10.090  -4.272  0.00  0.00    -0.360 OA
ATOM     23  H   UNL d   1      24.407 -10.091  -4.458  0.00  0.00     0.217 HD
ENDBRANCH  20  22
ENDBRANCH   1  15
TORSDOF 4
ENDMDL
