MODEL 1
REMARK VINA RESULT:    -9.243      0.000      0.000
REMARK INTER + INTRA:         -12.141
REMARK INTER:                 -10.436
REMARK INTRA:                  -1.705
REMARK CONF_INDEPENDENT:        1.193
REMARK UNBOUND:                -1.705
REMARK  4 active torsions:
REMARK  status: ('A' for Active; 'I' for Inactive)
REMARK    1  A    between atoms: O_2  and  C_3 
REMARK    2  A    between atoms: C_7  and  C_6 
REMARK    3  A    between atoms: C_18  and  N_19 
REMARK    4  A    between atoms: C_30  and  O_31 
ROOT
ATOM      1  C   UNL d   1      25.076 -15.719  -0.936  0.00  0.00     0.100 C 
ATOM      2  C   UNL d   1      24.122 -16.908  -0.815  0.00  0.00     0.024 C 
ATOM      3  C   UNL d   1      24.597 -18.131  -0.489  0.00  0.00     0.021 C 
ATOM      4  C   UNL d   1      23.698 -19.331  -0.261  0.00  0.00     0.058 C 
ATOM      5  C   UNL d   1      22.272 -18.934   0.116  0.00  0.00     0.014 C 
ATOM      6  C   UNL d   1      21.744 -17.931  -0.892  0.00  0.00     0.084 C 
ATOM      7  C   UNL d   1      22.638 -16.701  -0.895  0.00  0.00     0.158 C 
ATOM      8  O   UNL d   1      22.157 -15.575  -0.971  0.00  0.00    -0.293 OA
ATOM      9  N   UNL d   1      25.963 -18.305  -0.291  0.00  0.00    -0.344 N 
ATOM     10  C   UNL d   1      26.875 -17.269  -0.157  0.00  0.00     0.134 A 
ATOM     11  N   UNL d   1      28.241 -17.462  -0.147  0.00  0.00    -0.174 N 
ATOM     12  C   UNL d   1      29.135 -16.432  -0.247  0.00  0.00     0.707 A 
ATOM     13  N   UNL d   1      28.769 -15.186  -0.228  0.00  0.00    -0.023 NA
ATOM     14  C   UNL d   1      27.420 -14.856  -0.187  0.00  0.00     0.294 A 
ATOM     15  O   UNL d   1      27.034 -13.707  -0.298  0.00  0.00    -0.265 OA
ATOM     16  C   UNL d   1      26.421 -15.996  -0.225  0.00  0.00     0.070 A 
ATOM     17  H   UNL d   1      26.292 -19.243  -0.097  0.00  0.00     0.167 HD
ATOM     18  H   UNL d   1      28.582 -18.407  -0.155  0.00  0.00     0.186 HD
ENDROOT
BRANCH   1  19
ATOM     19  C   UNL d   1      25.460 -15.338  -2.403  0.00  0.00    -0.042 C 
ATOM     20  C   UNL d   1      24.900 -14.296  -3.123  0.00  0.00     0.011 C 
ATOM     21  C   UNL d   1      25.549 -13.863  -4.304  0.00  0.00     0.040 C 
ATOM     22  C   UNL d   1      26.814 -14.362  -4.700  0.00  0.00     0.101 C 
ATOM     23  C   UNL d   1      27.378 -15.367  -3.951  0.00  0.00     0.099 C 
ATOM     24  C   UNL d   1      26.597 -15.950  -2.987  0.00  0.00     0.047 C 
BRANCH  22  25
ATOM     25  O   UNL d   1      27.356 -13.835  -5.842  0.00  0.00    -0.353 OA
ATOM     26  C   UNL d   1      27.422 -12.407  -5.877  0.00  0.00     0.210 C 
ENDBRANCH  22  25
BRANCH  23  27
ATOM     27  O   UNL d   1      28.649 -15.858  -4.092  0.00  0.00    -0.358 OA
ATOM     28  H   UNL d   1      29.077 -15.451  -4.874  0.00  0.00     0.217 HD
ENDBRANCH  23  27
ENDBRANCH   1  19
BRANCH  12  29
ATOM     29  N   UNL d   1      30.473 -16.780  -0.261  0.00  0.00    -0.216 N 
ATOM     30  C   UNL d   1      30.921 -17.798  -1.213  0.00  0.00     0.141 C 
ATOM     31  C   UNL d   1      31.529 -18.998  -0.499  0.00  0.00     0.020 C 
ATOM     32  C   UNL d   1      32.663 -18.577   0.430  0.00  0.00     0.003 C 
ATOM     33  C   UNL d   1      32.195 -17.473   1.380  0.00  0.00     0.020 C 
ATOM     34  C   UNL d   1      31.534 -16.299   0.629  0.00  0.00     0.141 C 
ENDBRANCH  12  29
TORSDOF 4
ENDMDL
MODEL 2
REMARK VINA RESULT:    -9.117      0.579      1.154
REMARK INTER + INTRA:         -12.002
REMARK INTER:                 -10.310
REMARK INTRA:                  -1.692
REMARK CONF_INDEPENDENT:        1.193
REMARK UNBOUND:                -1.692
REMARK  4 active torsions:
REMARK  status: ('A' for Active; 'I' for Inactive)
REMARK    1  A    between atoms: O_2  and  C_3 
REMARK    2  A    between atoms: C_7  and  C_6 
REMARK    3  A    between atoms: C_18  and  N_19 
REMARK    4  A    between atoms: C_30  and  O_31 
ROOT
ATOM      1  C   UNL d   1      25.068 -15.742  -0.856  0.00  0.00     0.100 C 
ATOM      2  C   UNL d   1      24.100 -16.921  -0.744  0.00  0.00     0.024 C 
ATOM      3  C   UNL d   1      24.551 -18.138  -0.365  0.00  0.00     0.021 C 
ATOM      4  C   UNL d   1      23.633 -19.325  -0.145  0.00  0.00     0.058 C 
ATOM      5  C   UNL d   1      22.196 -18.908   0.160  0.00  0.00     0.014 C 
ATOM      6  C   UNL d   1      21.719 -17.928  -0.895  0.00  0.00     0.084 C 
ATOM      7  C   UNL d   1      22.622 -16.706  -0.893  0.00  0.00     0.158 C 
ATOM      8  O   UNL d   1      22.155 -15.578  -1.019  0.00  0.00    -0.293 OA
ATOM      9  N   UNL d   1      25.906 -18.317  -0.105  0.00  0.00    -0.344 N 
ATOM     10  C   UNL d   1      26.820 -17.284   0.041  0.00  0.00     0.134 A 
ATOM     11  N   UNL d   1      28.182 -17.486   0.114  0.00  0.00    -0.174 N 
ATOM     12  C   UNL d   1      29.089 -16.465   0.025  0.00  0.00     0.707 A 
ATOM     13  N   UNL d   1      28.732 -15.217  -0.005  0.00  0.00    -0.023 NA
ATOM     14  C   UNL d   1      27.386 -14.876  -0.030  0.00  0.00     0.294 A 
ATOM     15  O   UNL d   1      27.014 -13.728  -0.188  0.00  0.00    -0.265 OA
ATOM     16  C   UNL d   1      26.380 -16.010  -0.080  0.00  0.00     0.070 A 
ATOM     17  H   UNL d   1      26.219 -19.251   0.128  0.00  0.00     0.167 HD
ATOM     18  H   UNL d   1      28.515 -18.433   0.146  0.00  0.00     0.186 HD
ENDROOT
BRANCH   1  19
ATOM     19  C   UNL d   1      25.517 -15.403  -2.314  0.00  0.00    -0.042 C 
ATOM     20  C   UNL d   1      24.928 -14.445  -3.122  0.00  0.00     0.011 C 
ATOM     21  C   UNL d   1      25.618 -14.020  -4.282  0.00  0.00     0.040 C 
ATOM     22  C   UNL d   1      26.941 -14.435  -4.572  0.00  0.00     0.101 C 
ATOM     23  C   UNL d   1      27.530 -15.354  -3.737  0.00  0.00     0.099 C 
ATOM     24  C   UNL d   1      26.734 -15.950  -2.793  0.00  0.00     0.047 C 
BRANCH  22  25
ATOM     25  O   UNL d   1      27.515 -13.922  -5.705  0.00  0.00    -0.353 OA
ATOM     26  C   UNL d   1      27.481 -12.497  -5.808  0.00  0.00     0.210 C 
ENDBRANCH  22  25
BRANCH  23  27
ATOM     27  O   UNL d   1      28.841 -15.749  -3.773  0.00  0.00    -0.358 OA
ATOM     28  H   UNL d   1      29.276 -15.380  -4.569  0.00  0.00     0.217 HD
ENDBRANCH  23  27
ENDBRANCH   1  19
BRANCH  12  29
ATOM     29  N   UNL d   1      30.422 -16.823   0.078  0.00  0.00    -0.216 N 
ATOM     30  C   UNL d   1      31.348 -15.968   0.824  0.00  0.00     0.141 C 
ATOM     31  C   UNL d   1      32.446 -15.417  -0.076  0.00  0.00     0.020 C 
ATOM     32  C   UNL d   1      33.191 -16.538  -0.795  0.00  0.00     0.003 C 
ATOM     33  C   UNL d   1      32.206 -17.454  -1.522  0.00  0.00     0.020 C 
ATOM     34  C   UNL d   1      31.076 -17.950  -0.596  0.00  0.00     0.141 C 
ENDBRANCH  12  29
TORSDOF 4
ENDMDL
MODEL 3
REMARK VINA RESULT:    -9.103      1.810      2.257
REMARK INTER + INTRA:         -11.696
REMARK INTER:                 -10.296
REMARK INTRA:                  -1.400
REMARK CONF_INDEPENDENT:        1.193
REMARK UNBOUND:                -1.400
REMARK  4 active torsions:
REMARK  status: ('A' for Active; 'I' for Inactive)
REMARK    1  A    between atoms: O_2  and  C_3 
REMARK    2  A    between atoms: C_7  and  C_6 
REMARK    3  A    between atoms: C_18  and  N_19 
REMARK    4  A    between atoms: C_30  and  O_31 
ROOT
ATOM      1  C   UNL d   1      25.910 -14.906  -0.912  0.00  0.00     0.100 C 
ATOM      2  C   UNL d   1      25.243 -16.270  -0.723  0.00  0.00     0.024 C 
ATOM      3  C   UNL d   1      25.859 -17.237  -0.008  0.00  0.00     0.021 C 
ATOM      4  C   UNL d   1      25.215 -18.575   0.296  0.00  0.00     0.058 C 
ATOM      5  C   UNL d   1      23.690 -18.522   0.230  0.00  0.00     0.014 C 
ATOM      6  C   UNL d   1      23.263 -17.900  -1.086  0.00  0.00     0.084 C 
ATOM      7  C   UNL d   1      23.833 -16.494  -1.187  0.00  0.00     0.158 C 
ATOM      8  O   UNL d   1      23.162 -15.575  -1.645  0.00  0.00    -0.293 OA
ATOM      9  N   UNL d   1      27.118 -16.992   0.532  0.00  0.00    -0.344 N 
ATOM     10  C   UNL d   1      27.708 -15.739   0.612  0.00  0.00     0.134 A 
ATOM     11  N   UNL d   1      29.023 -15.546   0.980  0.00  0.00    -0.174 N 
ATOM     12  C   UNL d   1      29.664 -14.346   0.837  0.00  0.00     0.707 A 
ATOM     13  N   UNL d   1      29.046 -13.266   0.465  0.00  0.00    -0.023 NA
ATOM     14  C   UNL d   1      27.703 -13.315   0.116  0.00  0.00     0.294 A 
ATOM     15  O   UNL d   1      27.124 -12.355  -0.359  0.00  0.00    -0.265 OA
ATOM     16  C   UNL d   1      27.027 -14.673   0.133  0.00  0.00     0.070 A 
ATOM     17  H   UNL d   1      27.574 -17.753   1.020  0.00  0.00     0.167 HD
ATOM     18  H   UNL d   1      29.549 -16.347   1.282  0.00  0.00     0.186 HD
ENDROOT
BRANCH   1  19
ATOM     19  C   UNL d   1      26.601 -14.705  -2.300  0.00  0.00    -0.042 C 
ATOM     20  C   UNL d   1      27.965 -14.572  -2.494  0.00  0.00     0.011 C 
ATOM     21  C   UNL d   1      28.480 -14.714  -3.805  0.00  0.00     0.040 C 
ATOM     22  C   UNL d   1      27.674 -15.121  -4.896  0.00  0.00     0.101 C 
ATOM     23  C   UNL d   1      26.327 -15.292  -4.679  0.00  0.00     0.099 C 
ATOM     24  C   UNL d   1      25.824 -14.874  -3.475  0.00  0.00     0.047 C 
BRANCH  22  25
ATOM     25  O   UNL d   1      28.298 -15.261  -6.108  0.00  0.00    -0.353 OA
ATOM     26  C   UNL d   1      28.905 -14.070  -6.615  0.00  0.00     0.210 C 
ENDBRANCH  22  25
BRANCH  23  27
ATOM     27  O   UNL d   1      25.431 -15.825  -5.568  0.00  0.00    -0.358 OA
ATOM     28  H   UNL d   1      25.905 -16.148  -6.362  0.00  0.00     0.217 HD
ENDBRANCH  23  27
ENDBRANCH   1  19
BRANCH  12  29
ATOM     29  N   UNL d   1      30.993 -14.312   1.213  0.00  0.00    -0.216 N 
ATOM     30  C   UNL d   1      32.004 -14.044   0.188  0.00  0.00     0.141 C 
ATOM     31  C   UNL d   1      32.989 -15.200   0.062  0.00  0.00     0.020 C 
ATOM     32  C   UNL d   1      33.638 -15.527   1.403  0.00  0.00     0.003 C 
ATOM     33  C   UNL d   1      32.570 -15.748   2.474  0.00  0.00     0.020 C 
ATOM     34  C   UNL d   1      31.558 -14.585   2.539  0.00  0.00     0.141 C 
ENDBRANCH  12  29
TORSDOF 4
ENDMDL
MODEL 4
REMARK VINA RESULT:    -8.935      2.861      5.974
REMARK INTER + INTRA:         -11.164
REMARK INTER:                 -10.128
REMARK INTRA:                  -1.036
REMARK CONF_INDEPENDENT:        1.193
REMARK UNBOUND:                -1.036
REMARK  4 active torsions:
REMARK  status: ('A' for Active; 'I' for Inactive)
REMARK    1  A    between atoms: O_2  and  C_3 
REMARK    2  A    between atoms: C_7  and  C_6 
REMARK    3  A    between atoms: C_18  and  N_19 
REMARK    4  A    between atoms: C_30  and  O_31 
ROOT
ATOM      1  C   UNL d   1      26.939 -15.433  -1.839  0.00  0.00     0.100 C 
ATOM      2  C   UNL d   1      26.378 -14.327  -2.734  0.00  0.00     0.024 C 
ATOM      3  C   UNL d   1      26.134 -13.098  -2.226  0.00  0.00     0.021 C 
ATOM      4  C   UNL d   1      25.667 -11.933  -3.076  0.00  0.00     0.058 C 
ATOM      5  C   UNL d   1      26.032 -12.097  -4.550  0.00  0.00     0.014 C 
ATOM      6  C   UNL d   1      25.570 -13.458  -5.036  0.00  0.00     0.084 C 
ATOM      7  C   UNL d   1      26.247 -14.542  -4.213  0.00  0.00     0.158 C 
ATOM      8  O   UNL d   1      26.663 -15.567  -4.745  0.00  0.00    -0.293 OA
ATOM      9  N   UNL d   1      26.371 -12.855  -0.877  0.00  0.00    -0.344 N 
ATOM     10  C   UNL d   1      27.078 -13.705  -0.039  0.00  0.00     0.134 A 
ATOM     11  N   UNL d   1      27.142 -13.535   1.329  0.00  0.00    -0.174 N 
ATOM     12  C   UNL d   1      27.640 -14.491   2.172  0.00  0.00     0.707 A 
ATOM     13  N   UNL d   1      28.207 -15.575   1.738  0.00  0.00    -0.023 NA
ATOM     14  C   UNL d   1      28.255 -15.842   0.376  0.00  0.00     0.294 A 
ATOM     15  O   UNL d   1      28.662 -16.903  -0.060  0.00  0.00    -0.265 OA
ATOM     16  C   UNL d   1      27.574 -14.854  -0.552  0.00  0.00     0.070 A 
ATOM     17  H   UNL d   1      26.131 -11.940  -0.517  0.00  0.00     0.167 HD
ATOM     18  H   UNL d   1      26.724 -12.709   1.719  0.00  0.00     0.186 HD
ENDROOT
BRANCH   1  19
ATOM     19  C   UNL d   1      25.879 -16.469  -1.341  0.00  0.00    -0.042 C 
ATOM     20  C   UNL d   1      26.149 -17.536  -0.501  0.00  0.00     0.011 C 
ATOM     21  C   UNL d   1      25.064 -18.200   0.120  0.00  0.00     0.040 C 
ATOM     22  C   UNL d   1      23.732 -17.730   0.023  0.00  0.00     0.101 C 
ATOM     23  C   UNL d   1      23.485 -16.643  -0.782  0.00  0.00     0.099 C 
ATOM     24  C   UNL d   1      24.508 -16.205  -1.582  0.00  0.00     0.047 C 
BRANCH  22  25
ATOM     25  O   UNL d   1      22.775 -18.438   0.702  0.00  0.00    -0.353 OA
ATOM     26  C   UNL d   1      21.748 -19.003  -0.116  0.00  0.00     0.210 C 
ENDBRANCH  22  25
BRANCH  23  27
ATOM     27  O   UNL d   1      22.298 -15.965  -0.874  0.00  0.00    -0.358 OA
ATOM     28  H   UNL d   1      21.705 -16.234  -0.143  0.00  0.00     0.217 HD
ENDBRANCH  23  27
ENDBRANCH   1  19
BRANCH  12  29
ATOM     29  N   UNL d   1      27.606 -14.196   3.521  0.00  0.00    -0.216 N 
ATOM     30  C   UNL d   1      27.417 -12.802   3.928  0.00  0.00     0.141 C 
ATOM     31  C   UNL d   1      28.594 -12.297   4.752  0.00  0.00     0.020 C 
ATOM     32  C   UNL d   1      28.853 -13.193   5.960  0.00  0.00     0.003 C 
ATOM     33  C   UNL d   1      28.993 -14.652   5.523  0.00  0.00     0.020 C 
ATOM     34  C   UNL d   1      27.811 -15.115   4.646  0.00  0.00     0.141 C 
ENDBRANCH  12  29
TORSDOF 4
ENDMDL
MODEL 5
REMARK VINA RESULT:    -8.452      2.870      6.356
REMARK INTER + INTRA:         -10.956
REMARK INTER:                  -9.645
REMARK INTRA:                  -1.311
REMARK CONF_INDEPENDENT:        1.193
REMARK UNBOUND:                -1.311
REMARK  4 active torsions:
REMARK  status: ('A' for Active; 'I' for Inactive)
REMARK    1  A    between atoms: O_2  and  C_3 
REMARK    2  A    between atoms: C_7  and  C_6 
REMARK    3  A    between atoms: C_18  and  N_19 
REMARK    4  A    between atoms: C_30  and  O_31 
ROOT
ATOM      1  C   UNL d   1      26.494 -16.104  -1.601  0.00  0.00     0.100 C 
ATOM      2  C   UNL d   1      25.229 -16.749  -1.034  0.00  0.00     0.024 C 
ATOM      3  C   UNL d   1      24.012 -16.250  -1.346  0.00  0.00     0.021 C 
ATOM      4  C   UNL d   1      22.716 -16.896  -0.895  0.00  0.00     0.058 C 
ATOM      5  C   UNL d   1      22.880 -18.380  -0.573  0.00  0.00     0.014 C 
ATOM      6  C   UNL d   1      24.043 -18.565   0.382  0.00  0.00     0.084 C 
ATOM      7  C   UNL d   1      25.313 -18.034  -0.263  0.00  0.00     0.158 C 
ATOM      8  O   UNL d   1      26.377 -18.635  -0.145  0.00  0.00    -0.293 OA
ATOM      9  N   UNL d   1      23.920 -15.129  -2.164  0.00  0.00    -0.344 N 
ATOM     10  C   UNL d   1      24.972 -14.608  -2.903  0.00  0.00     0.134 A 
ATOM     11  N   UNL d   1      24.907 -13.396  -3.558  0.00  0.00    -0.174 N 
ATOM     12  C   UNL d   1      26.008 -12.780  -4.088  0.00  0.00     0.707 A 
ATOM     13  N   UNL d   1      27.174 -13.351  -4.128  0.00  0.00    -0.023 NA
ATOM     14  C   UNL d   1      27.361 -14.599  -3.547  0.00  0.00     0.294 A 
ATOM     15  O   UNL d   1      28.463 -15.106  -3.451  0.00  0.00    -0.265 OA
ATOM     16  C   UNL d   1      26.177 -15.219  -2.830  0.00  0.00     0.070 A 
ATOM     17  H   UNL d   1      22.997 -14.750  -2.338  0.00  0.00     0.167 HD
ATOM     18  H   UNL d   1      24.027 -12.912  -3.565  0.00  0.00     0.186 HD
ENDROOT
BRANCH   1  19
ATOM     19  C   UNL d   1      27.250 -15.165  -0.606  0.00  0.00    -0.042 C 
ATOM     20  C   UNL d   1      26.639 -14.282   0.268  0.00  0.00     0.011 C 
ATOM     21  C   UNL d   1      27.407 -13.732   1.322  0.00  0.00     0.040 C 
ATOM     22  C   UNL d   1      28.731 -14.154   1.596  0.00  0.00     0.101 C 
ATOM     23  C   UNL d   1      29.310 -15.065   0.744  0.00  0.00     0.099 C 
ATOM     24  C   UNL d   1      28.642 -15.358  -0.415  0.00  0.00     0.047 C 
BRANCH  22  25
ATOM     25  O   UNL d   1      29.356 -13.574   2.669  0.00  0.00    -0.353 OA
ATOM     26  C   UNL d   1      29.599 -14.450   3.772  0.00  0.00     0.210 C 
ENDBRANCH  22  25
BRANCH  23  27
ATOM     27  O   UNL d   1      30.511 -15.695   0.938  0.00  0.00    -0.358 OA
ATOM     28  H   UNL d   1      30.460 -16.269   1.730  0.00  0.00     0.217 HD
ENDBRANCH  23  27
ENDBRANCH   1  19
BRANCH  12  29
ATOM     29  N   UNL d   1      25.797 -11.551  -4.683  0.00  0.00    -0.216 N 
ATOM     30  C   UNL d   1      25.911 -11.450  -6.139  0.00  0.00     0.141 C 
ATOM     31  C   UNL d   1      27.000 -10.465  -6.545  0.00  0.00     0.020 C 
ATOM     32  C   UNL d   1      26.775  -9.094  -5.914  0.00  0.00     0.003 C 
ATOM     33  C   UNL d   1      26.601  -9.225  -4.400  0.00  0.00     0.020 C 
ATOM     34  C   UNL d   1      25.530 -10.269  -4.023  0.00  0.00     0.141 C 
ENDBRANCH  12  29
TORSDOF 4
ENDMDL
MODEL 6
REMARK VINA RESULT:    -8.405      5.987      8.363
REMARK INTER + INTRA:         -11.169
REMARK INTER:                  -9.599
REMARK INTRA:                  -1.570
REMARK CONF_INDEPENDENT:        1.193
REMARK UNBOUND:                -1.570
REMARK  4 active torsions:
REMARK  status: ('A' for Active; 'I' for Inactive)
REMARK    1  A    between atoms: O_2  and  C_3 
REMARK    2  A    between atoms: C_7  and  C_6 
REMARK    3  A    between atoms: C_18  and  N_19 
REMARK    4  A    between atoms: C_30  and  O_31 
ROOT
ATOM      1  C   UNL d   1      28.369 -13.987   2.529  0.00  0.00     0.100 C 
ATOM      2  C   UNL d   1      29.573 -14.359   1.662  0.00  0.00     0.024 C 
ATOM      3  C   UNL d   1      30.788 -14.544   2.226  0.00  0.00     0.021 C 
ATOM      4  C   UNL d   1      32.000 -15.004   1.440  0.00  0.00     0.058 C 
ATOM      5  C   UNL d   1      31.623 -15.753   0.163  0.00  0.00     0.014 C 
ATOM      6  C   UNL d   1      30.631 -14.927  -0.633  0.00  0.00     0.084 C 
ATOM      7  C   UNL d   1      29.388 -14.683   0.208  0.00  0.00     0.158 C 
ATOM      8  O   UNL d   1      28.269 -14.741  -0.292  0.00  0.00    -0.293 OA
ATOM      9  N   UNL d   1      30.941 -14.365   3.597  0.00  0.00    -0.344 N 
ATOM     10  C   UNL d   1      29.890 -14.249   4.496  0.00  0.00     0.134 A 
ATOM     11  N   UNL d   1      30.063 -13.890   5.816  0.00  0.00    -0.174 N 
ATOM     12  C   UNL d   1      29.020 -13.554   6.635  0.00  0.00     0.707 A 
ATOM     13  N   UNL d   1      27.780 -13.672   6.268  0.00  0.00    -0.023 NA
ATOM     14  C   UNL d   1      27.469 -14.076   4.976  0.00  0.00     0.294 A 
ATOM     15  O   UNL d   1      26.327 -14.075   4.557  0.00  0.00    -0.265 OA
ATOM     16  C   UNL d   1      28.625 -14.308   4.021  0.00  0.00     0.070 A 
ATOM     17  H   UNL d   1      31.873 -14.462   3.980  0.00  0.00     0.167 HD
ATOM     18  H   UNL d   1      31.003 -13.789   6.156  0.00  0.00     0.186 HD
ENDROOT
BRANCH   1  19
ATOM     19  C   UNL d   1      27.987 -12.471   2.497  0.00  0.00    -0.042 C 
ATOM     20  C   UNL d   1      27.101 -11.897   1.602  0.00  0.00     0.011 C 
ATOM     21  C   UNL d   1      26.606 -10.600   1.877  0.00  0.00     0.040 C 
ATOM     22  C   UNL d   1      26.874  -9.928   3.093  0.00  0.00     0.101 C 
ATOM     23  C   UNL d   1      27.722 -10.530   3.993  0.00  0.00     0.099 C 
ATOM     24  C   UNL d   1      28.399 -11.645   3.573  0.00  0.00     0.047 C 
BRANCH  22  25
ATOM     25  O   UNL d   1      26.305  -8.693   3.257  0.00  0.00    -0.353 OA
ATOM     26  C   UNL d   1      26.300  -7.870   2.087  0.00  0.00     0.210 C 
ENDBRANCH  22  25
BRANCH  23  27
ATOM     27  O   UNL d   1      27.971 -10.104   5.271  0.00  0.00    -0.358 OA
ATOM     28  H   UNL d   1      27.405  -9.333   5.480  0.00  0.00     0.217 HD
ENDBRANCH  23  27
ENDBRANCH   1  19
BRANCH  12  29
ATOM     29  N   UNL d   1      29.348 -13.178   7.924  0.00  0.00    -0.216 N 
ATOM     30  C   UNL d   1      30.244 -14.041   8.696  0.00  0.00     0.141 C 
ATOM     31  C   UNL d   1      29.570 -14.551   9.964  0.00  0.00     0.020 C 
ATOM     32  C   UNL d   1      29.044 -13.400  10.816  0.00  0.00     0.003 C 
ATOM     33  C   UNL d   1      28.156 -12.478   9.979  0.00  0.00     0.020 C 
ATOM     34  C   UNL d   1      28.847 -12.024   8.677  0.00  0.00     0.141 C 
ENDBRANCH  12  29
TORSDOF 4
ENDMDL
MODEL 7
REMARK VINA RESULT:    -8.142      5.248      7.927
REMARK INTER + INTRA:         -10.479
REMARK INTER:                  -9.335
REMARK INTRA:                  -1.144
REMARK CONF_INDEPENDENT:        1.193
REMARK UNBOUND:                -1.144
REMARK  4 active torsions:
REMARK  status: ('A' for Active; 'I' for Inactive)
REMARK    1  A    between atoms: O_2  and  C_3 
REMARK    2  A    between atoms: C_7  and  C_6 
REMARK    3  A    between atoms: C_18  and  N_19 
REMARK    4  A    between atoms: C_30  and  O_31 
ROOT
ATOM      1  C   UNL d   1      29.567 -12.048   3.699  0.00  0.00     0.100 C 
ATOM      2  C   UNL d   1      29.315 -12.282   5.190  0.00  0.00     0.024 C 
ATOM      3  C   UNL d   1      28.724 -13.423   5.610  0.00  0.00     0.021 C 
ATOM      4  C   UNL d   1      28.530 -13.760   7.075  0.00  0.00     0.058 C 
ATOM      5  C   UNL d   1      29.514 -13.025   7.983  0.00  0.00     0.014 C 
ATOM      6  C   UNL d   1      29.482 -11.542   7.666  0.00  0.00     0.084 C 
ATOM      7  C   UNL d   1      29.866 -11.329   6.211  0.00  0.00     0.158 C 
ATOM      8  O   UNL d   1      30.595 -10.399   5.882  0.00  0.00    -0.293 OA
ATOM      9  N   UNL d   1      28.322 -14.370   4.673  0.00  0.00    -0.344 N 
ATOM     10  C   UNL d   1      28.697 -14.363   3.338  0.00  0.00     0.134 A 
ATOM     11  N   UNL d   1      28.141 -15.200   2.393  0.00  0.00    -0.174 N 
ATOM     12  C   UNL d   1      28.339 -15.037   1.050  0.00  0.00     0.707 A 
ATOM     13  N   UNL d   1      29.169 -14.161   0.570  0.00  0.00    -0.023 NA
ATOM     14  C   UNL d   1      29.835 -13.289   1.421  0.00  0.00     0.294 A 
ATOM     15  O   UNL d   1      30.519 -12.374   1.002  0.00  0.00    -0.265 OA
ATOM     16  C   UNL d   1      29.505 -13.371   2.899  0.00  0.00     0.070 A 
ATOM     17  H   UNL d   1      27.838 -15.191   5.016  0.00  0.00     0.167 HD
ATOM     18  H   UNL d   1      27.495 -15.902   2.710  0.00  0.00     0.186 HD
ENDROOT
BRANCH   1  19
ATOM     19  C   UNL d   1      28.535 -11.100   3.005  0.00  0.00    -0.042 C 
ATOM     20  C   UNL d   1      27.621 -11.495   2.043  0.00  0.00     0.011 C 
ATOM     21  C   UNL d   1      26.548 -10.626   1.732  0.00  0.00     0.040 C 
ATOM     22  C   UNL d   1      26.299  -9.438   2.460  0.00  0.00     0.101 C 
ATOM     23  C   UNL d   1      27.191  -9.081   3.443  0.00  0.00     0.099 C 
ATOM     24  C   UNL d   1      28.360  -9.793   3.523  0.00  0.00     0.047 C 
BRANCH  22  25
ATOM     25  O   UNL d   1      25.205  -8.702   2.088  0.00  0.00    -0.353 OA
ATOM     26  C   UNL d   1      25.377  -7.922   0.902  0.00  0.00     0.210 C 
ENDBRANCH  22  25
BRANCH  23  27
ATOM     27  O   UNL d   1      27.030  -8.060   4.343  0.00  0.00    -0.358 OA
ATOM     28  H   UNL d   1      26.932  -8.426   5.246  0.00  0.00     0.217 HD
ENDBRANCH  23  27
ENDBRANCH   1  19
BRANCH  12  29
ATOM     29  N   UNL d   1      27.688 -15.930   0.220  0.00  0.00    -0.216 N 
ATOM     30  C   UNL d   1      26.729 -15.408  -0.755  0.00  0.00     0.141 C 
ATOM     31  C   UNL d   1      25.334 -15.974  -0.522  0.00  0.00     0.020 C 
ATOM     32  C   UNL d   1      25.346 -17.500  -0.525  0.00  0.00     0.003 C 
ATOM     33  C   UNL d   1      26.392 -18.028   0.457  0.00  0.00     0.020 C 
ATOM     34  C   UNL d   1      27.780 -17.394   0.230  0.00  0.00     0.141 C 
ENDBRANCH  12  29
TORSDOF 4
ENDMDL
MODEL 8
REMARK VINA RESULT:    -8.067      2.227      3.199
REMARK INTER + INTRA:         -10.821
REMARK INTER:                  -9.260
REMARK INTRA:                  -1.561
REMARK CONF_INDEPENDENT:        1.193
REMARK UNBOUND:                -1.561
REMARK  4 active torsions:
REMARK  status: ('A' for Active; 'I' for Inactive)
REMARK    1  A    between atoms: O_2  and  C_3 
REMARK    2  A    between atoms: C_7  and  C_6 
REMARK    3  A    between atoms: C_18  and  N_19 
REMARK    4  A    between atoms: C_30  and  O_31 
ROOT
ATOM      1  C   UNL d   1      27.131 -14.807  -1.553  0.00  0.00     0.100 C 
ATOM      2  C   UNL d   1      26.225 -15.990  -1.207  0.00  0.00     0.024 C 
ATOM      3  C   UNL d   1      26.509 -16.778  -0.146  0.00  0.00     0.021 C 
ATOM      4  C   UNL d   1      25.605 -17.908   0.308  0.00  0.00     0.058 C 
ATOM      5  C   UNL d   1      24.159 -17.722  -0.147  0.00  0.00     0.014 C 
ATOM      6  C   UNL d   1      24.129 -17.450  -1.639  0.00  0.00     0.084 C 
ATOM      7  C   UNL d   1      24.929 -16.192  -1.937  0.00  0.00     0.158 C 
ATOM      8  O   UNL d   1      24.530 -15.373  -2.758  0.00  0.00    -0.293 OA
ATOM      9  N   UNL d   1      27.647 -16.521   0.613  0.00  0.00    -0.344 N 
ATOM     10  C   UNL d   1      28.402 -15.361   0.527  0.00  0.00     0.134 A 
ATOM     11  N   UNL d   1      29.622 -15.207   1.151  0.00  0.00    -0.174 N 
ATOM     12  C   UNL d   1      30.466 -14.164   0.882  0.00  0.00     0.707 A 
ATOM     13  N   UNL d   1      30.126 -13.173   0.115  0.00  0.00    -0.023 NA
ATOM     14  C   UNL d   1      28.898 -13.182  -0.535  0.00  0.00     0.294 A 
ATOM     15  O   UNL d   1      28.598 -12.338  -1.358  0.00  0.00    -0.265 OA
ATOM     16  C   UNL d   1      28.022 -14.407  -0.353  0.00  0.00     0.070 A 
ATOM     17  H   UNL d   1      27.858 -17.159   1.371  0.00  0.00     0.167 HD
ATOM     18  H   UNL d   1      29.933 -15.942   1.762  0.00  0.00     0.186 HD
ENDROOT
BRANCH   1  19
ATOM     19  C   UNL d   1      28.124 -15.069  -2.731  0.00  0.00    -0.042 C 
ATOM     20  C   UNL d   1      29.264 -15.851  -2.647  0.00  0.00     0.011 C 
ATOM     21  C   UNL d   1      29.894 -16.261  -3.846  0.00  0.00     0.040 C 
ATOM     22  C   UNL d   1      29.328 -16.019  -5.121  0.00  0.00     0.101 C 
ATOM     23  C   UNL d   1      28.171 -15.278  -5.187  0.00  0.00     0.099 C 
ATOM     24  C   UNL d   1      27.749 -14.663  -4.037  0.00  0.00     0.047 C 
BRANCH  22  25
ATOM     25  O   UNL d   1      30.014 -16.501  -6.204  0.00  0.00    -0.353 OA
ATOM     26  C   UNL d   1      31.227 -15.807  -6.508  0.00  0.00     0.210 C 
ENDBRANCH  22  25
BRANCH  23  27
ATOM     27  O   UNL d   1      27.408 -15.077  -6.307  0.00  0.00    -0.358 OA
ATOM     28  H   UNL d   1      27.909 -15.350  -7.103  0.00  0.00     0.217 HD
ENDBRANCH  23  27
ENDBRANCH   1  19
BRANCH  12  29
ATOM     29  N   UNL d   1      31.672 -14.161   1.557  0.00  0.00    -0.216 N 
ATOM     30  C   UNL d   1      32.776 -13.368   1.012  0.00  0.00     0.141 C 
ATOM     31  C   UNL d   1      33.978 -14.243   0.679  0.00  0.00     0.020 C 
ATOM     32  C   UNL d   1      34.428 -15.055   1.890  0.00  0.00     0.003 C 
ATOM     33  C   UNL d   1      33.251 -15.832   2.480  0.00  0.00     0.020 C 
ATOM     34  C   UNL d   1      32.032 -14.927   2.754  0.00  0.00     0.141 C 
ENDBRANCH  12  29
TORSDOF 4
ENDMDL
MODEL 9
REMARK VINA RESULT:    -7.457      2.848      6.581
REMARK INTER + INTRA:         -10.299
REMARK INTER:                  -8.650
REMARK INTRA:                  -1.649
REMARK CONF_INDEPENDENT:        1.193
REMARK UNBOUND:                -1.649
REMARK  4 active torsions:
REMARK  status: ('A' for Active; 'I' for Inactive)
REMARK    1  A    between atoms: O_2  and  C_3 
REMARK    2  A    between atoms: C_7  and  C_6 
REMARK    3  A    between atoms: C_18  and  N_19 
REMARK    4  A    between atoms: C_30  and  O_31 
ROOT
ATOM      1  C   UNL d   1      27.406 -13.671  -5.777  0.00  0.00     0.100 C 
ATOM      2  C   UNL d   1      28.854 -13.836  -6.240  0.00  0.00     0.024 C 
ATOM      3  C   UNL d   1      29.707 -14.621  -5.544  0.00  0.00     0.021 C 
ATOM      4  C   UNL d   1      31.126 -14.901  -5.998  0.00  0.00     0.058 C 
ATOM      5  C   UNL d   1      31.311 -14.711  -7.502  0.00  0.00     0.014 C 
ATOM      6  C   UNL d   1      30.775 -13.351  -7.909  0.00  0.00     0.084 C 
ATOM      7  C   UNL d   1      29.299 -13.265  -7.555  0.00  0.00     0.158 C 
ATOM      8  O   UNL d   1      28.499 -12.735  -8.320  0.00  0.00    -0.293 OA
ATOM      9  N   UNL d   1      29.265 -15.254  -4.387  0.00  0.00    -0.344 N 
ATOM     10  C   UNL d   1      27.935 -15.354  -4.006  0.00  0.00     0.134 A 
ATOM     11  N   UNL d   1      27.537 -15.822  -2.771  0.00  0.00    -0.174 N 
ATOM     12  C   UNL d   1      26.253 -15.704  -2.312  0.00  0.00     0.707 A 
ATOM     13  N   UNL d   1      25.286 -15.260  -3.056  0.00  0.00    -0.023 NA
ATOM     14  C   UNL d   1      25.546 -14.805  -4.342  0.00  0.00     0.294 A 
ATOM     15  O   UNL d   1      24.692 -14.264  -5.020  0.00  0.00    -0.265 OA
ATOM     16  C   UNL d   1      26.992 -14.798  -4.800  0.00  0.00     0.070 A 
ATOM     17  H   UNL d   1      29.941 -15.795  -3.862  0.00  0.00     0.167 HD
ATOM     18  H   UNL d   1      28.244 -16.183  -2.155  0.00  0.00     0.186 HD
ENDROOT
BRANCH   1  19
ATOM     19  C   UNL d   1      27.113 -12.339  -5.013  0.00  0.00    -0.042 C 
ATOM     20  C   UNL d   1      26.328 -11.306  -5.495  0.00  0.00     0.011 C 
ATOM     21  C   UNL d   1      25.889 -10.310  -4.590  0.00  0.00     0.040 C 
ATOM     22  C   UNL d   1      26.107 -10.405  -3.194  0.00  0.00     0.101 C 
ATOM     23  C   UNL d   1      26.852 -11.460  -2.724  0.00  0.00     0.099 C 
ATOM     24  C   UNL d   1      27.493 -12.242  -3.650  0.00  0.00     0.047 C 
BRANCH  22  25
ATOM     25  O   UNL d   1      25.598  -9.396  -2.419  0.00  0.00    -0.353 OA
ATOM     26  C   UNL d   1      26.137  -8.099  -2.686  0.00  0.00     0.210 C 
ENDBRANCH  22  25
BRANCH  23  27
ATOM     27  O   UNL d   1      27.032 -11.794  -1.408  0.00  0.00    -0.358 OA
ATOM     28  H   UNL d   1      27.023 -10.985  -0.857  0.00  0.00     0.217 HD
ENDBRANCH  23  27
ENDBRANCH   1  19
BRANCH  12  29
ATOM     29  N   UNL d   1      26.009 -16.186  -1.040  0.00  0.00    -0.216 N 
ATOM     30  C   UNL d   1      27.113 -16.209  -0.078  0.00  0.00     0.141 C 
ATOM     31  C   UNL d   1      27.404 -17.626   0.401  0.00  0.00     0.020 C 
ATOM     32  C   UNL d   1      26.155 -18.285   0.980  0.00  0.00     0.003 C 
ATOM     33  C   UNL d   1      24.997 -18.202  -0.016  0.00  0.00     0.020 C 
ATOM     34  C   UNL d   1      24.765 -16.764  -0.523  0.00  0.00     0.141 C 
ENDBRANCH  12  29
TORSDOF 4
ENDMDL
