MODEL 1
REMARK VINA RESULT:    -7.572      0.000      0.000
REMARK INTER + INTRA:          -9.585
REMARK INTER:                  -8.766
REMARK INTRA:                  -0.820
REMARK CONF_INDEPENDENT:        1.193
REMARK UNBOUND:                -0.820
REMARK  4 active torsions:
REMARK  status: ('A' for Active; 'I' for Inactive)
REMARK       I    between atoms: N_1  and  C_2 
REMARK    1  A    between atoms: C_2  and  C_4 
REMARK    2  A    between atoms: C_7  and  C_8 
REMARK       I    between atoms: C_8  and  N_10 
REMARK    3  A    between atoms: N_10  and  N_11 
REMARK    4  A    between atoms: N_11  and  C_12 
ROOT
ATOM      1  C   UNL d   1      23.338 -17.051  -0.700  0.00  0.00     0.270 C 
ATOM      2  O   UNL d   1      22.719 -15.994  -0.821  0.00  0.00    -0.266 OA
ATOM      3  N   UNL d   1      22.694 -18.289  -0.585  0.00  0.00    -0.265 N 
ATOM      4  H   UNL d   1      23.192 -19.158  -0.725  0.00  0.00     0.190 HD
ENDROOT
BRANCH   1   5
ATOM      5  C   UNL d   1      24.851 -17.038  -0.706  0.00  0.00     0.033 A 
ATOM      6  C   UNL d   1      25.530 -16.251  -1.659  0.00  0.00     0.018 A 
ATOM      7  C   UNL d   1      26.933 -16.293  -1.772  0.00  0.00     0.018 A 
ATOM      8  C   UNL d   1      27.684 -17.079  -0.892  0.00  0.00     0.031 A 
ATOM      9  C   UNL d   1      27.025 -17.829   0.085  0.00  0.00     0.018 A 
ATOM     10  C   UNL d   1      25.623 -17.807   0.176  0.00  0.00     0.018 A 
BRANCH   8  11
ATOM     11  C   UNL d   1      29.168 -17.028  -0.931  0.00  0.00     0.249 C 
ATOM     12  N   UNL d   1      29.819 -16.727   0.230  0.00  0.00    -0.366 N 
ATOM     13  H   UNL d   1      30.832 -16.728   0.209  0.00  0.00     0.159 HD
ATOM     14  H   UNL d   1      29.363 -16.670   1.130  0.00  0.00     0.159 HD
ATOM     15  O   UNL d   1      29.785 -17.242  -1.973  0.00  0.00    -0.268 OA
ENDBRANCH   8  11
ENDBRANCH   1   5
BRANCH   3  16
ATOM     16  N   UNL d   1      21.346 -18.347  -0.970  0.00  0.00    -0.298 N 
ATOM     17  H   UNL d   1      20.978 -17.523  -1.454  0.00  0.00     0.187 HD
BRANCH  16  18
ATOM     18  C   UNL d   1      20.451 -19.128  -0.215  0.00  0.00     0.048 A 
ATOM     19  C   UNL d   1      19.310 -19.632  -0.866  0.00  0.00     0.034 A 
ATOM     20  C   UNL d   1      18.390 -20.453  -0.203  0.00  0.00     0.044 A 
ATOM     21  C   UNL d   1      18.629 -20.820   1.111  0.00  0.00     0.116 A 
ATOM     22  F   UNL d   1      17.787 -21.660   1.728  0.00  0.00    -0.206 F 
ATOM     23  C   UNL d   1      19.741 -20.336   1.787  0.00  0.00     0.044 A 
ATOM     24  C   UNL d   1      20.647 -19.490   1.126  0.00  0.00     0.034 A 
ENDBRANCH  16  18
ENDBRANCH   3  16
TORSDOF 4
ENDMDL
MODEL 2
REMARK VINA RESULT:    -7.255      4.469      8.151
REMARK INTER + INTRA:          -8.942
REMARK INTER:                  -8.448
REMARK INTRA:                  -0.494
REMARK CONF_INDEPENDENT:        1.193
REMARK UNBOUND:                -0.494
REMARK  4 active torsions:
REMARK  status: ('A' for Active; 'I' for Inactive)
REMARK       I    between atoms: N_1  and  C_2 
REMARK    1  A    between atoms: C_2  and  C_4 
REMARK    2  A    between atoms: C_7  and  C_8 
REMARK       I    between atoms: C_8  and  N_10 
REMARK    3  A    between atoms: N_10  and  N_11 
REMARK    4  A    between atoms: N_11  and  C_12 
ROOT
ATOM      1  C   UNL d   1      25.951 -16.425  -0.418  0.00  0.00     0.270 C 
ATOM      2  O   UNL d   1      26.120 -15.475  -1.181  0.00  0.00    -0.266 OA
ATOM      3  N   UNL d   1      26.927 -16.832   0.501  0.00  0.00    -0.265 N 
ATOM      4  H   UNL d   1      26.701 -17.443   1.275  0.00  0.00     0.190 HD
ENDROOT
BRANCH   1   5
ATOM      5  C   UNL d   1      24.637 -17.174  -0.432  0.00  0.00     0.033 A 
ATOM      6  C   UNL d   1      24.646 -18.584  -0.393  0.00  0.00     0.018 A 
ATOM      7  C   UNL d   1      23.454 -19.324  -0.514  0.00  0.00     0.018 A 
ATOM      8  C   UNL d   1      22.226 -18.663  -0.618  0.00  0.00     0.031 A 
ATOM      9  C   UNL d   1      22.201 -17.266  -0.614  0.00  0.00     0.018 A 
ATOM     10  C   UNL d   1      23.394 -16.531  -0.522  0.00  0.00     0.018 A 
BRANCH   8  11
ATOM     11  C   UNL d   1      20.961 -19.441  -0.622  0.00  0.00     0.249 C 
ATOM     12  N   UNL d   1      20.580 -20.030   0.549  0.00  0.00    -0.366 N 
ATOM     13  H   UNL d   1      19.698 -20.530   0.553  0.00  0.00     0.159 HD
ATOM     14  H   UNL d   1      21.031 -19.858   1.437  0.00  0.00     0.159 HD
ATOM     15  O   UNL d   1      20.288 -19.556  -1.643  0.00  0.00    -0.268 OA
ENDBRANCH   8  11
ENDBRANCH   1   5
BRANCH   3  16
ATOM     16  N   UNL d   1      27.955 -15.921   0.787  0.00  0.00    -0.298 N 
ATOM     17  H   UNL d   1      28.871 -16.326   1.002  0.00  0.00     0.187 HD
BRANCH  16  18
ATOM     18  C   UNL d   1      27.629 -14.676   1.357  0.00  0.00     0.048 A 
ATOM     19  C   UNL d   1      27.780 -14.533   2.749  0.00  0.00     0.034 A 
ATOM     20  C   UNL d   1      27.519 -13.317   3.393  0.00  0.00     0.044 A 
ATOM     21  C   UNL d   1      27.150 -12.214   2.641  0.00  0.00     0.116 A 
ATOM     22  F   UNL d   1      26.967 -11.031   3.245  0.00  0.00    -0.206 F 
ATOM     23  C   UNL d   1      26.986 -12.321   1.266  0.00  0.00     0.044 A 
ATOM     24  C   UNL d   1      27.221 -13.550   0.627  0.00  0.00     0.034 A 
ENDBRANCH  16  18
ENDBRANCH   3  16
TORSDOF 4
ENDMDL
MODEL 3
REMARK VINA RESULT:    -7.164      3.762      8.162
REMARK INTER + INTRA:          -8.843
REMARK INTER:                  -8.357
REMARK INTRA:                  -0.486
REMARK CONF_INDEPENDENT:        1.193
REMARK UNBOUND:                -0.486
REMARK  4 active torsions:
REMARK  status: ('A' for Active; 'I' for Inactive)
REMARK       I    between atoms: N_1  and  C_2 
REMARK    1  A    between atoms: C_2  and  C_4 
REMARK    2  A    between atoms: C_7  and  C_8 
REMARK       I    between atoms: C_8  and  N_10 
REMARK    3  A    between atoms: N_10  and  N_11 
REMARK    4  A    between atoms: N_11  and  C_12 
ROOT
ATOM      1  C   UNL d   1      23.037 -17.717  -0.321  0.00  0.00     0.270 C 
ATOM      2  O   UNL d   1      22.917 -16.504  -0.486  0.00  0.00    -0.266 OA
ATOM      3  N   UNL d   1      24.287 -18.347  -0.264  0.00  0.00    -0.265 N 
ATOM      4  H   UNL d   1      24.390 -19.283   0.104  0.00  0.00     0.190 HD
ENDROOT
BRANCH   1   5
ATOM      5  C   UNL d   1      21.804 -18.575  -0.137  0.00  0.00     0.033 A 
ATOM      6  C   UNL d   1      21.077 -18.989  -1.272  0.00  0.00     0.018 A 
ATOM      7  C   UNL d   1      19.865 -19.694  -1.144  0.00  0.00     0.018 A 
ATOM      8  C   UNL d   1      19.392 -20.048   0.123  0.00  0.00     0.031 A 
ATOM      9  C   UNL d   1      20.126 -19.682   1.254  0.00  0.00     0.018 A 
ATOM     10  C   UNL d   1      21.320 -18.952   1.123  0.00  0.00     0.018 A 
BRANCH   8  11
ATOM     11  C   UNL d   1      18.180 -20.897   0.254  0.00  0.00     0.249 C 
ATOM     12  N   UNL d   1      18.125 -21.759   1.311  0.00  0.00    -0.366 N 
ATOM     13  H   UNL d   1      17.281 -22.311   1.417  0.00  0.00     0.159 HD
ATOM     14  H   UNL d   1      18.789 -21.757   2.072  0.00  0.00     0.159 HD
ATOM     15  O   UNL d   1      17.265 -20.831  -0.565  0.00  0.00    -0.268 OA
ENDBRANCH   8  11
ENDBRANCH   1   5
BRANCH   3  16
ATOM     16  N   UNL d   1      25.405 -17.530  -0.039  0.00  0.00    -0.298 N 
ATOM     17  H   UNL d   1      25.715 -17.444   0.933  0.00  0.00     0.187 HD
BRANCH  16  18
ATOM     18  C   UNL d   1      25.655 -16.454  -0.912  0.00  0.00     0.048 A 
ATOM     19  C   UNL d   1      25.375 -16.641  -2.278  0.00  0.00     0.034 A 
ATOM     20  C   UNL d   1      25.553 -15.611  -3.210  0.00  0.00     0.044 A 
ATOM     21  C   UNL d   1      25.969 -14.363  -2.775  0.00  0.00     0.116 A 
ATOM     22  F   UNL d   1      26.075 -13.356  -3.653  0.00  0.00    -0.206 F 
ATOM     23  C   UNL d   1      26.261 -14.145  -1.434  0.00  0.00     0.044 A 
ATOM     24  C   UNL d   1      26.107 -15.190  -0.507  0.00  0.00     0.034 A 
ENDBRANCH  16  18
ENDBRANCH   3  16
TORSDOF 4
ENDMDL
MODEL 4
REMARK VINA RESULT:    -6.858      2.617      3.274
REMARK INTER + INTRA:          -8.900
REMARK INTER:                  -8.051
REMARK INTRA:                  -0.849
REMARK CONF_INDEPENDENT:        1.193
REMARK UNBOUND:                -0.849
REMARK  4 active torsions:
REMARK  status: ('A' for Active; 'I' for Inactive)
REMARK       I    between atoms: N_1  and  C_2 
REMARK    1  A    between atoms: C_2  and  C_4 
REMARK    2  A    between atoms: C_7  and  C_8 
REMARK       I    between atoms: C_8  and  N_10 
REMARK    3  A    between atoms: N_10  and  N_11 
REMARK    4  A    between atoms: N_11  and  C_12 
ROOT
ATOM      1  C   UNL d   1      24.359 -17.553  -0.612  0.00  0.00     0.270 C 
ATOM      2  O   UNL d   1      25.124 -18.269   0.033  0.00  0.00    -0.266 OA
ATOM      3  N   UNL d   1      22.971 -17.742  -0.607  0.00  0.00    -0.265 N 
ATOM      4  H   UNL d   1      22.339 -17.023  -0.935  0.00  0.00     0.190 HD
ENDROOT
BRANCH   1   5
ATOM      5  C   UNL d   1      24.913 -16.400  -1.420  0.00  0.00     0.033 A 
ATOM      6  C   UNL d   1      24.022 -15.487  -2.020  0.00  0.00     0.018 A 
ATOM      7  C   UNL d   1      24.489 -14.465  -2.869  0.00  0.00     0.018 A 
ATOM      8  C   UNL d   1      25.861 -14.304  -3.084  0.00  0.00     0.031 A 
ATOM      9  C   UNL d   1      26.756 -15.175  -2.459  0.00  0.00     0.018 A 
ATOM     10  C   UNL d   1      26.286 -16.212  -1.636  0.00  0.00     0.018 A 
BRANCH   8  11
ATOM     11  C   UNL d   1      26.359 -13.152  -3.879  0.00  0.00     0.249 C 
ATOM     12  N   UNL d   1      25.438 -12.247  -4.321  0.00  0.00    -0.366 N 
ATOM     13  H   UNL d   1      25.785 -11.443  -4.832  0.00  0.00     0.159 HD
ATOM     14  H   UNL d   1      24.471 -12.242  -4.029  0.00  0.00     0.159 HD
ATOM     15  O   UNL d   1      27.554 -13.025  -4.135  0.00  0.00    -0.268 OA
ENDBRANCH   8  11
ENDBRANCH   1   5
BRANCH   3  16
ATOM     16  N   UNL d   1      22.436 -18.530   0.423  0.00  0.00    -0.298 N 
ATOM     17  H   UNL d   1      23.113 -18.986   1.042  0.00  0.00     0.187 HD
BRANCH  16  18
ATOM     18  C   UNL d   1      21.189 -19.152   0.232  0.00  0.00     0.048 A 
ATOM     19  C   UNL d   1      20.606 -19.805   1.334  0.00  0.00     0.034 A 
ATOM     20  C   UNL d   1      19.348 -20.413   1.244  0.00  0.00     0.044 A 
ATOM     21  C   UNL d   1      18.635 -20.331   0.059  0.00  0.00     0.116 A 
ATOM     22  F   UNL d   1      17.402 -20.852  -0.010  0.00  0.00    -0.206 F 
ATOM     23  C   UNL d   1      19.182 -19.700  -1.050  0.00  0.00     0.044 A 
ATOM     24  C   UNL d   1      20.456 -19.116  -0.964  0.00  0.00     0.034 A 
ENDBRANCH  16  18
ENDBRANCH   3  16
TORSDOF 4
ENDMDL
MODEL 5
REMARK VINA RESULT:    -6.823      4.775      8.846
REMARK INTER + INTRA:          -8.856
REMARK INTER:                  -8.016
REMARK INTRA:                  -0.840
REMARK CONF_INDEPENDENT:        1.193
REMARK UNBOUND:                -0.840
REMARK  4 active torsions:
REMARK  status: ('A' for Active; 'I' for Inactive)
REMARK       I    between atoms: N_1  and  C_2 
REMARK    1  A    between atoms: C_2  and  C_4 
REMARK    2  A    between atoms: C_7  and  C_8 
REMARK       I    between atoms: C_8  and  N_10 
REMARK    3  A    between atoms: N_10  and  N_11 
REMARK    4  A    between atoms: N_11  and  C_12 
ROOT
ATOM      1  C   UNL d   1      25.506 -16.387  -1.036  0.00  0.00     0.270 C 
ATOM      2  O   UNL d   1      26.143 -16.012  -0.053  0.00  0.00    -0.266 OA
ATOM      3  N   UNL d   1      25.931 -16.136  -2.346  0.00  0.00    -0.265 N 
ATOM      4  H   UNL d   1      25.544 -16.640  -3.133  0.00  0.00     0.190 HD
ENDROOT
BRANCH   1   5
ATOM      5  C   UNL d   1      24.231 -17.179  -0.846  0.00  0.00     0.033 A 
ATOM      6  C   UNL d   1      24.312 -18.556  -0.552  0.00  0.00     0.018 A 
ATOM      7  C   UNL d   1      23.154 -19.353  -0.474  0.00  0.00     0.018 A 
ATOM      8  C   UNL d   1      21.892 -18.774  -0.631  0.00  0.00     0.031 A 
ATOM      9  C   UNL d   1      21.797 -17.402  -0.879  0.00  0.00     0.018 A 
ATOM     10  C   UNL d   1      22.955 -16.614  -0.985  0.00  0.00     0.018 A 
BRANCH   8  11
ATOM     11  C   UNL d   1      20.668 -19.590  -0.427  0.00  0.00     0.249 C 
ATOM     12  N   UNL d   1      20.524 -20.220   0.775  0.00  0.00    -0.366 N 
ATOM     13  H   UNL d   1      19.671 -20.747   0.924  0.00  0.00     0.159 HD
ATOM     14  H   UNL d   1      21.126 -20.057   1.570  0.00  0.00     0.159 HD
ATOM     15  O   UNL d   1      19.822 -19.700  -1.312  0.00  0.00    -0.268 OA
ENDBRANCH   8  11
ENDBRANCH   1   5
BRANCH   3  16
ATOM     16  N   UNL d   1      27.273 -15.765  -2.523  0.00  0.00    -0.298 N 
ATOM     17  H   UNL d   1      27.772 -15.459  -1.683  0.00  0.00     0.187 HD
BRANCH  16  18
ATOM     18  C   UNL d   1      27.681 -15.243  -3.765  0.00  0.00     0.048 A 
ATOM     19  C   UNL d   1      28.857 -15.761  -4.339  0.00  0.00     0.034 A 
ATOM     20  C   UNL d   1      29.313 -15.330  -5.591  0.00  0.00     0.044 A 
ATOM     21  C   UNL d   1      28.567 -14.408  -6.307  0.00  0.00     0.116 A 
ATOM     22  F   UNL d   1      28.964 -14.045  -7.534  0.00  0.00    -0.206 F 
ATOM     23  C   UNL d   1      27.405 -13.871  -5.768  0.00  0.00     0.044 A 
ATOM     24  C   UNL d   1      26.966 -14.285  -4.500  0.00  0.00     0.034 A 
ENDBRANCH  16  18
ENDBRANCH   3  16
TORSDOF 4
ENDMDL
MODEL 6
REMARK VINA RESULT:    -6.221      4.256      8.779
REMARK INTER + INTRA:          -8.260
REMARK INTER:                  -7.415
REMARK INTRA:                  -0.846
REMARK CONF_INDEPENDENT:        1.193
REMARK UNBOUND:                -0.846
REMARK  4 active torsions:
REMARK  status: ('A' for Active; 'I' for Inactive)
REMARK       I    between atoms: N_1  and  C_2 
REMARK    1  A    between atoms: C_2  and  C_4 
REMARK    2  A    between atoms: C_7  and  C_8 
REMARK       I    between atoms: C_8  and  N_10 
REMARK    3  A    between atoms: N_10  and  N_11 
REMARK    4  A    between atoms: N_11  and  C_12 
ROOT
ATOM      1  C   UNL d   1      25.692 -16.417  -0.641  0.00  0.00     0.270 C 
ATOM      2  O   UNL d   1      25.714 -15.251  -0.250  0.00  0.00    -0.266 OA
ATOM      3  N   UNL d   1      26.836 -17.073  -1.112  0.00  0.00    -0.265 N 
ATOM      4  H   UNL d   1      26.867 -18.080  -1.204  0.00  0.00     0.190 HD
ENDROOT
BRANCH   1   5
ATOM      5  C   UNL d   1      24.399 -17.201  -0.587  0.00  0.00     0.033 A 
ATOM      6  C   UNL d   1      24.437 -18.574  -0.269  0.00  0.00     0.018 A 
ATOM      7  C   UNL d   1      23.273 -19.365  -0.314  0.00  0.00     0.018 A 
ATOM      8  C   UNL d   1      22.040 -18.781  -0.621  0.00  0.00     0.031 A 
ATOM      9  C   UNL d   1      21.982 -17.412  -0.895  0.00  0.00     0.018 A 
ATOM     10  C   UNL d   1      23.151 -16.632  -0.878  0.00  0.00     0.018 A 
BRANCH   8  11
ATOM     11  C   UNL d   1      20.796 -19.589  -0.548  0.00  0.00     0.249 C 
ATOM     12  N   UNL d   1      20.517 -20.211   0.634  0.00  0.00    -0.366 N 
ATOM     13  H   UNL d   1      19.649 -20.732   0.692  0.00  0.00     0.159 HD
ATOM     14  H   UNL d   1      21.030 -20.047   1.490  0.00  0.00     0.159 HD
ATOM     15  O   UNL d   1      20.051 -19.699  -1.519  0.00  0.00    -0.268 OA
ENDBRANCH   8  11
ENDBRANCH   1   5
BRANCH   3  16
ATOM     16  N   UNL d   1      28.077 -16.499  -0.798  0.00  0.00    -0.298 N 
ATOM     17  H   UNL d   1      28.055 -15.537  -0.449  0.00  0.00     0.187 HD
BRANCH  16  18
ATOM     18  C   UNL d   1      29.225 -16.928  -1.490  0.00  0.00     0.048 A 
ATOM     19  C   UNL d   1      29.279 -16.696  -2.877  0.00  0.00     0.034 A 
ATOM     20  C   UNL d   1      30.401 -17.052  -3.636  0.00  0.00     0.044 A 
ATOM     21  C   UNL d   1      31.505 -17.601  -3.004  0.00  0.00     0.116 A 
ATOM     22  F   UNL d   1      32.606 -17.879  -3.716  0.00  0.00    -0.206 F 
ATOM     23  C   UNL d   1      31.483 -17.849  -1.638  0.00  0.00     0.044 A 
ATOM     24  C   UNL d   1      30.345 -17.517  -0.885  0.00  0.00     0.034 A 
ENDBRANCH  16  18
ENDBRANCH   3  16
TORSDOF 4
ENDMDL
MODEL 7
REMARK VINA RESULT:    -6.196      6.060      7.745
REMARK INTER + INTRA:          -8.032
REMARK INTER:                  -7.389
REMARK INTRA:                  -0.643
REMARK CONF_INDEPENDENT:        1.193
REMARK UNBOUND:                -0.643
REMARK  4 active torsions:
REMARK  status: ('A' for Active; 'I' for Inactive)
REMARK       I    between atoms: N_1  and  C_2 
REMARK    1  A    between atoms: C_2  and  C_4 
REMARK    2  A    between atoms: C_7  and  C_8 
REMARK       I    between atoms: C_8  and  N_10 
REMARK    3  A    between atoms: N_10  and  N_11 
REMARK    4  A    between atoms: N_11  and  C_12 
ROOT
ATOM      1  C   UNL d   1      27.405 -14.021   2.584  0.00  0.00     0.270 C 
ATOM      2  O   UNL d   1      26.746 -13.165   1.995  0.00  0.00    -0.266 OA
ATOM      3  N   UNL d   1      27.792 -15.221   1.974  0.00  0.00    -0.265 N 
ATOM      4  H   UNL d   1      28.520 -15.803   2.368  0.00  0.00     0.190 HD
ENDROOT
BRANCH   1   5
ATOM      5  C   UNL d   1      27.853 -13.775   4.007  0.00  0.00     0.033 A 
ATOM      6  C   UNL d   1      28.332 -14.855   4.777  0.00  0.00     0.018 A 
ATOM      7  C   UNL d   1      28.657 -14.693   6.137  0.00  0.00     0.018 A 
ATOM      8  C   UNL d   1      28.562 -13.433   6.735  0.00  0.00     0.031 A 
ATOM      9  C   UNL d   1      28.131 -12.346   5.972  0.00  0.00     0.018 A 
ATOM     10  C   UNL d   1      27.780 -12.516   4.622  0.00  0.00     0.018 A 
BRANCH   8  11
ATOM     11  C   UNL d   1      29.021 -13.238   8.135  0.00  0.00     0.249 C 
ATOM     12  N   UNL d   1      29.296 -14.355   8.869  0.00  0.00    -0.366 N 
ATOM     13  H   UNL d   1      29.643 -14.218   9.812  0.00  0.00     0.159 HD
ATOM     14  H   UNL d   1      29.335 -15.287   8.480  0.00  0.00     0.159 HD
ATOM     15  O   UNL d   1      29.139 -12.112   8.614  0.00  0.00    -0.268 OA
ENDBRANCH   8  11
ENDBRANCH   1   5
BRANCH   3  16
ATOM     16  N   UNL d   1      27.726 -15.278   0.573  0.00  0.00    -0.298 N 
ATOM     17  H   UNL d   1      28.076 -14.457   0.070  0.00  0.00     0.187 HD
BRANCH  16  18
ATOM     18  C   UNL d   1      26.717 -16.048  -0.034  0.00  0.00     0.048 A 
ATOM     19  C   UNL d   1      26.555 -17.376   0.401  0.00  0.00     0.034 A 
ATOM     20  C   UNL d   1      25.549 -18.200  -0.119  0.00  0.00     0.044 A 
ATOM     21  C   UNL d   1      24.659 -17.685  -1.047  0.00  0.00     0.116 A 
ATOM     22  F   UNL d   1      23.653 -18.449  -1.495  0.00  0.00    -0.206 F 
ATOM     23  C   UNL d   1      24.793 -16.380  -1.503  0.00  0.00     0.044 A 
ATOM     24  C   UNL d   1      25.821 -15.566  -1.000  0.00  0.00     0.034 A 
ENDBRANCH  16  18
ENDBRANCH   3  16
TORSDOF 4
ENDMDL
MODEL 8
REMARK VINA RESULT:    -6.020      4.781      8.731
REMARK INTER + INTRA:          -8.022
REMARK INTER:                  -7.213
REMARK INTRA:                  -0.809
REMARK CONF_INDEPENDENT:        1.193
REMARK UNBOUND:                -0.809
REMARK  4 active torsions:
REMARK  status: ('A' for Active; 'I' for Inactive)
REMARK       I    between atoms: N_1  and  C_2 
REMARK    1  A    between atoms: C_2  and  C_4 
REMARK    2  A    between atoms: C_7  and  C_8 
REMARK       I    between atoms: C_8  and  N_10 
REMARK    3  A    between atoms: N_10  and  N_11 
REMARK    4  A    between atoms: N_11  and  C_12 
ROOT
ATOM      1  C   UNL d   1      26.995 -16.338  -0.293  0.00  0.00     0.270 C 
ATOM      2  O   UNL d   1      27.740 -16.329  -1.273  0.00  0.00    -0.266 OA
ATOM      3  N   UNL d   1      27.367 -15.783   0.937  0.00  0.00    -0.265 N 
ATOM      4  H   UNL d   1      26.682 -15.580   1.654  0.00  0.00     0.190 HD
ENDROOT
BRANCH   1   5
ATOM      5  C   UNL d   1      25.611 -16.936  -0.411  0.00  0.00     0.033 A 
ATOM      6  C   UNL d   1      24.581 -16.180  -1.007  0.00  0.00     0.018 A 
ATOM      7  C   UNL d   1      23.255 -16.652  -1.040  0.00  0.00     0.018 A 
ATOM      8  C   UNL d   1      22.948 -17.916  -0.527  0.00  0.00     0.031 A 
ATOM      9  C   UNL d   1      23.968 -18.694   0.027  0.00  0.00     0.018 A 
ATOM     10  C   UNL d   1      25.285 -18.207   0.084  0.00  0.00     0.018 A 
BRANCH   8  11
ATOM     11  C   UNL d   1      21.575 -18.464  -0.672  0.00  0.00     0.249 C 
ATOM     12  N   UNL d   1      21.329 -19.695  -0.137  0.00  0.00    -0.366 N 
ATOM     13  H   UNL d   1      20.382 -20.051  -0.206  0.00  0.00     0.159 HD
ATOM     14  H   UNL d   1      21.979 -20.189   0.459  0.00  0.00     0.159 HD
ATOM     15  O   UNL d   1      20.698 -17.835  -1.258  0.00  0.00    -0.268 OA
ENDBRANCH   8  11
ENDBRANCH   1   5
BRANCH   3  16
ATOM     16  N   UNL d   1      28.457 -14.900   0.938  0.00  0.00    -0.298 N 
ATOM     17  H   UNL d   1      29.099 -14.973   0.143  0.00  0.00     0.187 HD
BRANCH  16  18
ATOM     18  C   UNL d   1      28.972 -14.448   2.167  0.00  0.00     0.048 A 
ATOM     19  C   UNL d   1      28.077 -14.315   3.244  0.00  0.00     0.034 A 
ATOM     20  C   UNL d   1      28.511 -13.913   4.513  0.00  0.00     0.044 A 
ATOM     21  C   UNL d   1      29.860 -13.685   4.730  0.00  0.00     0.116 A 
ATOM     22  F   UNL d   1      30.289 -13.366   5.959  0.00  0.00    -0.206 F 
ATOM     23  C   UNL d   1      30.771 -13.800   3.689  0.00  0.00     0.044 A 
ATOM     24  C   UNL d   1      30.327 -14.176   2.410  0.00  0.00     0.034 A 
ENDBRANCH  16  18
ENDBRANCH   3  16
TORSDOF 4
ENDMDL
