MODEL 1
REMARK VINA RESULT:   -31.965      0.000      0.000
REMARK INTER + INTRA:         -36.452
REMARK INTER:                 -34.650
REMARK INTRA:                  -1.802
REMARK CONF_INDEPENDENT:        2.685
REMARK UNBOUND:                -1.802
REMARK  9 active torsions:
REMARK  status: ('A' for Active; 'I' for Inactive)
REMARK    1  A    between atoms: C_2  and  C_4 
REMARK    2  A    between atoms: C_7  and  C_8 
REMARK    3  A    between atoms: C_8  and  C_9 
REMARK    4  A    between atoms: C_9  and  C_10 
REMARK    5  A    between atoms: C_10  and  N_11 
REMARK       I    between atoms: N_11  and  C_12 
REMARK       I    between atoms: C_12  and  N_14 
REMARK    6  A    between atoms: CA_15  and  N_14 
REMARK    7  A    between atoms: CA_15  and  C_18 
REMARK    8  A    between atoms: CA_15  and  C_16 
REMARK    9  A    between atoms: C_16  and  O_17 
ROOT
ATOM      1  N   UNL d   1      26.124 -17.447   0.169  0.00  0.00    -0.343 N 
ATOM      2  C   UNL d   1      27.295 -18.135   0.269  0.00  0.00     0.316 C 
ATOM      3  O   UNL d   1      27.366 -19.271   0.707  0.00  0.00    -0.247 OA
ATOM      4  N   UNL d   1      28.419 -17.519  -0.191  0.00  0.00    -0.332 N 
ATOM      5  H   UNL d   1      26.183 -16.470   0.388  0.00  0.00     0.164 HD
ATOM      6  H   UNL d   1      29.239 -18.058   0.065  0.00  0.00     0.165 HD
ENDROOT
BRANCH   1   7
ATOM      7  C   UNL d   1      24.852 -18.050   0.515  0.00  0.00     0.125 C 
BRANCH   7   8
ATOM      8  C   UNL d   1      23.740 -17.543  -0.396  0.00  0.00     0.028 C 
BRANCH   8   9
ATOM      9  C   UNL d   1      23.140 -18.669  -1.244  0.00  0.00     0.090 C 
BRANCH   9  10
ATOM     10  C   UNL d   1      21.741 -18.934  -0.837  0.00  0.00     0.172 A 
ATOM     11  O   UNL d   1      20.799 -19.050  -1.817  0.00  0.00    -0.196 OA
ATOM     12  N   UNL d   1      19.589 -19.325  -1.164  0.00  0.00    -0.111 NA
ATOM     13  C   UNL d   1      19.940 -19.360   0.129  0.00  0.00     0.159 A 
ATOM     14  N   UNL d   1      21.261 -19.105   0.370  0.00  0.00    -0.208 NA
BRANCH  13  15
ATOM     15  C   UNL d   1      19.004 -19.754   1.225  0.00  0.00     0.051 C 
ATOM     16  C   UNL d   1      18.098 -20.895   0.762  0.00  0.00     0.018 C 
ATOM     17  C   UNL d   1      19.759 -20.193   2.487  0.00  0.00     0.018 C 
ENDBRANCH  13  15
ENDBRANCH   9  10
ENDBRANCH   8   9
ENDBRANCH   7   8
ENDBRANCH   1   7
BRANCH   4  18
ATOM     18  CA  UNL d   1      28.668 -16.193  -0.748  0.00  0.00     0.143 C 
BRANCH  18  19
ATOM     19  C   UNL d   1      27.989 -15.980  -2.134  0.00  0.00    -0.033 A 
ATOM     20  C   UNL d   1      28.728 -15.699  -3.288  0.00  0.00     0.009 A 
ATOM     21  C   UNL d   1      28.073 -15.261  -4.452  0.00  0.00     0.001 A 
ATOM     22  C   UNL d   1      26.682 -15.131  -4.501  0.00  0.00     0.000 A 
ATOM     23  C   UNL d   1      25.929 -15.422  -3.384  0.00  0.00     0.001 A 
ATOM     24  C   UNL d   1      26.575 -15.867  -2.242  0.00  0.00     0.009 A 
ENDBRANCH  18  19
BRANCH  18  25
ATOM     25  C   UNL d   1      28.316 -14.967   0.133  0.00  0.00     0.194 C 
BRANCH  25  26
ATOM     26  O   UNL d   1      27.796 -15.423   1.393  0.00  0.00    -0.398 OA
ATOM     27  H   UNL d   1      28.549 -15.716   1.943  0.00  0.00     0.209 HD
ENDBRANCH  25  26
ENDBRANCH  18  25
ENDBRANCH   4  18
TORSDOF 9
ENDMDL
MODEL 2
REMARK VINA RESULT:   -31.783      0.504      1.094
REMARK INTER + INTRA:         -36.286
REMARK INTER:                 -34.468
REMARK INTRA:                  -1.818
REMARK CONF_INDEPENDENT:        2.685
REMARK UNBOUND:                -1.818
REMARK  9 active torsions:
REMARK  status: ('A' for Active; 'I' for Inactive)
REMARK    1  A    between atoms: C_2  and  C_4 
REMARK    2  A    between atoms: C_7  and  C_8 
REMARK    3  A    between atoms: C_8  and  C_9 
REMARK    4  A    between atoms: C_9  and  C_10 
REMARK    5  A    between atoms: C_10  and  N_11 
REMARK       I    between atoms: N_11  and  C_12 
REMARK       I    between atoms: C_12  and  N_14 
REMARK    6  A    between atoms: CA_15  and  N_14 
REMARK    7  A    between atoms: CA_15  and  C_18 
REMARK    8  A    between atoms: CA_15  and  C_16 
REMARK    9  A    between atoms: C_16  and  O_17 
ROOT
ATOM      1  N   UNL d   1      25.968 -17.221   0.202  0.00  0.00    -0.343 N 
ATOM      2  C   UNL d   1      27.153 -17.887   0.114  0.00  0.00     0.316 C 
ATOM      3  O   UNL d   1      27.275 -19.070   0.386  0.00  0.00    -0.247 OA
ATOM      4  N   UNL d   1      28.227 -17.187  -0.344  0.00  0.00    -0.332 N 
ATOM      5  H   UNL d   1      26.032 -16.281   0.548  0.00  0.00     0.164 HD
ATOM      6  H   UNL d   1      29.073 -17.735  -0.230  0.00  0.00     0.165 HD
ENDROOT
BRANCH   1   7
ATOM      7  C   UNL d   1      24.738 -17.897   0.562  0.00  0.00     0.125 C 
BRANCH   7   8
ATOM      8  C   UNL d   1      23.670 -17.695  -0.508  0.00  0.00     0.028 C 
BRANCH   8   9
ATOM      9  C   UNL d   1      23.153 -19.029  -1.056  0.00  0.00     0.090 C 
BRANCH   9  10
ATOM     10  C   UNL d   1      21.724 -19.210  -0.712  0.00  0.00     0.172 A 
ATOM     11  O   UNL d   1      20.803 -19.077  -1.709  0.00  0.00    -0.196 OA
ATOM     12  N   UNL d   1      19.554 -19.325  -1.122  0.00  0.00    -0.111 NA
ATOM     13  C   UNL d   1      19.864 -19.595   0.154  0.00  0.00     0.159 A 
ATOM     14  N   UNL d   1      21.197 -19.517   0.448  0.00  0.00    -0.208 NA
BRANCH  13  15
ATOM     15  C   UNL d   1      18.864 -20.057   1.163  0.00  0.00     0.051 C 
ATOM     16  C   UNL d   1      18.082 -21.255   0.623  0.00  0.00     0.018 C 
ATOM     17  C   UNL d   1      19.532 -20.449   2.488  0.00  0.00     0.018 C 
ENDBRANCH  13  15
ENDBRANCH   9  10
ENDBRANCH   8   9
ENDBRANCH   7   8
ENDBRANCH   1   7
BRANCH   4  18
ATOM     18  CA  UNL d   1      28.413 -15.792  -0.731  0.00  0.00     0.143 C 
BRANCH  18  19
ATOM     19  C   UNL d   1      27.499 -15.367  -1.921  0.00  0.00    -0.033 A 
ATOM     20  C   UNL d   1      26.138 -15.093  -1.750  0.00  0.00     0.009 A 
ATOM     21  C   UNL d   1      25.302 -14.969  -2.874  0.00  0.00     0.001 A 
ATOM     22  C   UNL d   1      25.804 -15.078  -4.173  0.00  0.00     0.000 A 
ATOM     23  C   UNL d   1      27.145 -15.327  -4.368  0.00  0.00     0.001 A 
ATOM     24  C   UNL d   1      27.971 -15.435  -3.261  0.00  0.00     0.009 A 
ENDBRANCH  18  19
BRANCH  18  25
ATOM     25  C   UNL d   1      28.264 -14.715   0.373  0.00  0.00     0.194 C 
BRANCH  25  26
ATOM     26  O   UNL d   1      27.756 -15.329   1.570  0.00  0.00    -0.398 OA
ATOM     27  H   UNL d   1      28.506 -15.751   2.035  0.00  0.00     0.209 HD
ENDBRANCH  25  26
ENDBRANCH  18  25
ENDBRANCH   4  18
TORSDOF 9
ENDMDL
MODEL 3
REMARK VINA RESULT:   -31.755      2.108      2.932
REMARK INTER + INTRA:         -36.069
REMARK INTER:                 -34.439
REMARK INTRA:                  -1.629
REMARK CONF_INDEPENDENT:        2.685
REMARK UNBOUND:                -1.629
REMARK  9 active torsions:
REMARK  status: ('A' for Active; 'I' for Inactive)
REMARK    1  A    between atoms: C_2  and  C_4 
REMARK    2  A    between atoms: C_7  and  C_8 
REMARK    3  A    between atoms: C_8  and  C_9 
REMARK    4  A    between atoms: C_9  and  C_10 
REMARK    5  A    between atoms: C_10  and  N_11 
REMARK       I    between atoms: N_11  and  C_12 
REMARK       I    between atoms: C_12  and  N_14 
REMARK    6  A    between atoms: CA_15  and  N_14 
REMARK    7  A    between atoms: CA_15  and  C_18 
REMARK    8  A    between atoms: CA_15  and  C_16 
REMARK    9  A    between atoms: C_16  and  O_17 
ROOT
ATOM      1  N   UNL d   1      25.359 -16.059  -2.115  0.00  0.00    -0.343 N 
ATOM      2  C   UNL d   1      25.927 -15.207  -1.217  0.00  0.00     0.316 C 
ATOM      3  O   UNL d   1      26.149 -15.512  -0.057  0.00  0.00    -0.247 OA
ATOM      4  N   UNL d   1      26.297 -13.979  -1.674  0.00  0.00    -0.332 N 
ATOM      5  H   UNL d   1      24.707 -15.637  -2.750  0.00  0.00     0.164 HD
ATOM      6  H   UNL d   1      26.570 -13.387  -0.896  0.00  0.00     0.165 HD
ENDROOT
BRANCH   1   7
ATOM      7  C   UNL d   1      25.038 -17.429  -1.769  0.00  0.00     0.125 C 
BRANCH   7   8
ATOM      8  C   UNL d   1      23.598 -17.547  -1.279  0.00  0.00     0.028 C 
BRANCH   8   9
ATOM      9  C   UNL d   1      23.318 -18.917  -0.656  0.00  0.00     0.090 C 
BRANCH   9  10
ATOM     10  C   UNL d   1      21.860 -19.131  -0.510  0.00  0.00     0.172 A 
ATOM     11  O   UNL d   1      21.086 -19.058  -1.630  0.00  0.00    -0.196 OA
ATOM     12  N   UNL d   1      19.773 -19.325  -1.215  0.00  0.00    -0.111 NA
ATOM     13  C   UNL d   1      19.907 -19.544   0.101  0.00  0.00     0.159 A 
ATOM     14  N   UNL d   1      21.183 -19.416   0.575  0.00  0.00    -0.208 NA
BRANCH  13  15
ATOM     15  C   UNL d   1      18.786 -20.003   0.976  0.00  0.00     0.051 C 
ATOM     16  C   UNL d   1      18.076 -21.200   0.341  0.00  0.00     0.018 C 
ATOM     17  C   UNL d   1      19.282 -20.397   2.374  0.00  0.00     0.018 C 
ENDBRANCH  13  15
ENDBRANCH   9  10
ENDBRANCH   8   9
ENDBRANCH   7   8
ENDBRANCH   1   7
BRANCH   4  18
ATOM     18  CA  UNL d   1      26.163 -13.318  -2.969  0.00  0.00     0.143 C 
BRANCH  18  19
ATOM     19  C   UNL d   1      27.209 -13.814  -4.013  0.00  0.00    -0.033 A 
ATOM     20  C   UNL d   1      27.309 -13.248  -5.288  0.00  0.00     0.009 A 
ATOM     21  C   UNL d   1      28.076 -13.886  -6.279  0.00  0.00     0.001 A 
ATOM     22  C   UNL d   1      28.779 -15.064  -6.013  0.00  0.00     0.000 A 
ATOM     23  C   UNL d   1      28.713 -15.630  -4.758  0.00  0.00     0.001 A 
ATOM     24  C   UNL d   1      27.968 -14.994  -3.779  0.00  0.00     0.009 A 
ENDBRANCH  18  19
BRANCH  18  25
ATOM     25  C   UNL d   1      24.773 -13.355  -3.653  0.00  0.00     0.194 C 
BRANCH  25  26
ATOM     26  O   UNL d   1      24.730 -14.454  -4.579  0.00  0.00    -0.398 OA
ATOM     27  H   UNL d   1      24.249 -14.158  -5.377  0.00  0.00     0.209 HD
ENDBRANCH  25  26
ENDBRANCH  18  25
ENDBRANCH   4  18
TORSDOF 9
ENDMDL
MODEL 4
REMARK VINA RESULT:   -31.589      1.227      1.644
REMARK INTER + INTRA:         -35.518
REMARK INTER:                 -34.273
REMARK INTRA:                  -1.245
REMARK CONF_INDEPENDENT:        2.685
REMARK UNBOUND:                -1.245
REMARK  9 active torsions:
REMARK  status: ('A' for Active; 'I' for Inactive)
REMARK    1  A    between atoms: C_2  and  C_4 
REMARK    2  A    between atoms: C_7  and  C_8 
REMARK    3  A    between atoms: C_8  and  C_9 
REMARK    4  A    between atoms: C_9  and  C_10 
REMARK    5  A    between atoms: C_10  and  N_11 
REMARK       I    between atoms: N_11  and  C_12 
REMARK       I    between atoms: C_12  and  N_14 
REMARK    6  A    between atoms: CA_15  and  N_14 
REMARK    7  A    between atoms: CA_15  and  C_18 
REMARK    8  A    between atoms: CA_15  and  C_16 
REMARK    9  A    between atoms: C_16  and  O_17 
ROOT
ATOM      1  N   UNL d   1      25.943 -17.036  -0.512  0.00  0.00    -0.343 N 
ATOM      2  C   UNL d   1      26.813 -17.797   0.208  0.00  0.00     0.316 C 
ATOM      3  O   UNL d   1      26.473 -18.478   1.161  0.00  0.00    -0.247 OA
ATOM      4  N   UNL d   1      28.111 -17.816  -0.205  0.00  0.00    -0.332 N 
ATOM      5  H   UNL d   1      26.298 -16.146  -0.809  0.00  0.00     0.164 HD
ATOM      6  H   UNL d   1      28.686 -18.291   0.482  0.00  0.00     0.165 HD
ENDROOT
BRANCH   1   7
ATOM      7  C   UNL d   1      24.520 -17.037  -0.236  0.00  0.00     0.125 C 
BRANCH   7   8
ATOM      8  C   UNL d   1      23.766 -17.887  -1.253  0.00  0.00     0.028 C 
BRANCH   8   9
ATOM      9  C   UNL d   1      23.356 -19.243  -0.671  0.00  0.00     0.090 C 
BRANCH   9  10
ATOM     10  C   UNL d   1      21.883 -19.325  -0.540  0.00  0.00     0.172 A 
ATOM     11  O   UNL d   1      21.129 -19.175  -1.667  0.00  0.00    -0.196 OA
ATOM     12  N   UNL d   1      19.794 -19.325  -1.266  0.00  0.00    -0.111 NA
ATOM     13  C   UNL d   1      19.894 -19.564   0.050  0.00  0.00     0.159 A 
ATOM     14  N   UNL d   1      21.172 -19.554   0.537  0.00  0.00    -0.208 NA
BRANCH  13  15
ATOM     15  C   UNL d   1      18.729 -19.926   0.911  0.00  0.00     0.051 C 
ATOM     16  C   UNL d   1      18.048 -21.187   0.377  0.00  0.00     0.018 C 
ATOM     17  C   UNL d   1      19.150 -20.161   2.368  0.00  0.00     0.018 C 
ENDBRANCH  13  15
ENDBRANCH   9  10
ENDBRANCH   8   9
ENDBRANCH   7   8
ENDBRANCH   1   7
BRANCH   4  18
ATOM     18  CA  UNL d   1      28.824 -17.121  -1.272  0.00  0.00     0.143 C 
BRANCH  18  19
ATOM     19  C   UNL d   1      28.207 -15.729  -1.608  0.00  0.00    -0.033 A 
ATOM     20  C   UNL d   1      28.248 -14.663  -0.704  0.00  0.00     0.009 A 
ATOM     21  C   UNL d   1      27.462 -13.519  -0.934  0.00  0.00     0.001 A 
ATOM     22  C   UNL d   1      26.660 -13.401  -2.072  0.00  0.00     0.000 A 
ATOM     23  C   UNL d   1      26.619 -14.430  -2.988  0.00  0.00     0.001 A 
ATOM     24  C   UNL d   1      27.403 -15.550  -2.768  0.00  0.00     0.009 A 
ENDBRANCH  18  19
BRANCH  18  25
ATOM     25  C   UNL d   1      30.351 -16.920  -1.102  0.00  0.00     0.194 C 
BRANCH  25  26
ATOM     26  O   UNL d   1      30.641 -16.630   0.276  0.00  0.00    -0.398 OA
ATOM     27  H   UNL d   1      30.461 -17.436   0.799  0.00  0.00     0.209 HD
ENDBRANCH  25  26
ENDBRANCH  18  25
ENDBRANCH   4  18
TORSDOF 9
ENDMDL
MODEL 5
REMARK VINA RESULT:   -31.465      1.988      3.093
REMARK INTER + INTRA:         -35.729
REMARK INTER:                 -34.150
REMARK INTRA:                  -1.579
REMARK CONF_INDEPENDENT:        2.685
REMARK UNBOUND:                -1.579
REMARK  9 active torsions:
REMARK  status: ('A' for Active; 'I' for Inactive)
REMARK    1  A    between atoms: C_2  and  C_4 
REMARK    2  A    between atoms: C_7  and  C_8 
REMARK    3  A    between atoms: C_8  and  C_9 
REMARK    4  A    between atoms: C_9  and  C_10 
REMARK    5  A    between atoms: C_10  and  N_11 
REMARK       I    between atoms: N_11  and  C_12 
REMARK       I    between atoms: C_12  and  N_14 
REMARK    6  A    between atoms: CA_15  and  N_14 
REMARK    7  A    between atoms: CA_15  and  C_18 
REMARK    8  A    between atoms: CA_15  and  C_16 
REMARK    9  A    between atoms: C_16  and  O_17 
ROOT
ATOM      1  N   UNL d   1      25.331 -16.559  -0.159  0.00  0.00    -0.343 N 
ATOM      2  C   UNL d   1      26.284 -17.449   0.234  0.00  0.00     0.316 C 
ATOM      3  O   UNL d   1      26.028 -18.587   0.593  0.00  0.00    -0.247 OA
ATOM      4  N   UNL d   1      27.581 -17.040   0.171  0.00  0.00    -0.332 N 
ATOM      5  H   UNL d   1      25.484 -15.613   0.137  0.00  0.00     0.164 HD
ATOM      6  H   UNL d   1      28.183 -17.722   0.619  0.00  0.00     0.165 HD
ENDROOT
BRANCH   1   7
ATOM      7  C   UNL d   1      23.932 -16.928  -0.246  0.00  0.00     0.125 C 
BRANCH   7   8
ATOM      8  C   UNL d   1      23.660 -17.748  -1.503  0.00  0.00     0.028 C 
BRANCH   8   9
ATOM      9  C   UNL d   1      23.279 -19.193  -1.170  0.00  0.00     0.090 C 
BRANCH   9  10
ATOM     10  C   UNL d   1      21.840 -19.284  -0.834  0.00  0.00     0.172 A 
ATOM     11  O   UNL d   1      20.936 -19.176  -1.850  0.00  0.00    -0.196 OA
ATOM     12  N   UNL d   1      19.670 -19.325  -1.264  0.00  0.00    -0.111 NA
ATOM     13  C   UNL d   1      19.954 -19.522   0.032  0.00  0.00     0.159 A 
ATOM     14  N   UNL d   1      21.286 -19.486   0.337  0.00  0.00    -0.208 NA
BRANCH  13  15
ATOM     15  C   UNL d   1      18.923 -19.867   1.056  0.00  0.00     0.051 C 
ATOM     16  C   UNL d   1      18.169 -21.131   0.642  0.00  0.00     0.018 C 
ATOM     17  C   UNL d   1      19.548 -20.086   2.441  0.00  0.00     0.018 C 
ENDBRANCH  13  15
ENDBRANCH   9  10
ENDBRANCH   8   9
ENDBRANCH   7   8
ENDBRANCH   1   7
BRANCH   4  18
ATOM     18  CA  UNL d   1      28.206 -15.771  -0.193  0.00  0.00     0.143 C 
BRANCH  18  19
ATOM     19  C   UNL d   1      27.935 -14.642   0.848  0.00  0.00    -0.033 A 
ATOM     20  C   UNL d   1      28.517 -14.651   2.120  0.00  0.00     0.009 A 
ATOM     21  C   UNL d   1      28.051 -13.768   3.110  0.00  0.00     0.001 A 
ATOM     22  C   UNL d   1      27.035 -12.845   2.845  0.00  0.00     0.000 A 
ATOM     23  C   UNL d   1      26.461 -12.803   1.594  0.00  0.00     0.001 A 
ATOM     24  C   UNL d   1      26.929 -13.664   0.615  0.00  0.00     0.009 A 
ENDBRANCH  18  19
BRANCH  18  25
ATOM     25  C   UNL d   1      29.728 -15.778  -0.482  0.00  0.00     0.194 C 
BRANCH  25  26
ATOM     26  O   UNL d   1      30.344 -16.856   0.244  0.00  0.00    -0.398 OA
ATOM     27  H   UNL d   1      30.213 -16.692   1.198  0.00  0.00     0.209 HD
ENDBRANCH  25  26
ENDBRANCH  18  25
ENDBRANCH   4  18
TORSDOF 9
ENDMDL
MODEL 6
REMARK VINA RESULT:   -31.086      1.862      3.205
REMARK INTER + INTRA:         -35.559
REMARK INTER:                 -33.770
REMARK INTRA:                  -1.789
REMARK CONF_INDEPENDENT:        2.685
REMARK UNBOUND:                -1.789
REMARK  9 active torsions:
REMARK  status: ('A' for Active; 'I' for Inactive)
REMARK    1  A    between atoms: C_2  and  C_4 
REMARK    2  A    between atoms: C_7  and  C_8 
REMARK    3  A    between atoms: C_8  and  C_9 
REMARK    4  A    between atoms: C_9  and  C_10 
REMARK    5  A    between atoms: C_10  and  N_11 
REMARK       I    between atoms: N_11  and  C_12 
REMARK       I    between atoms: C_12  and  N_14 
REMARK    6  A    between atoms: CA_15  and  N_14 
REMARK    7  A    between atoms: CA_15  and  C_18 
REMARK    8  A    between atoms: CA_15  and  C_16 
REMARK    9  A    between atoms: C_16  and  O_17 
ROOT
ATOM      1  N   UNL d   1      25.370 -16.251  -1.637  0.00  0.00    -0.343 N 
ATOM      2  C   UNL d   1      25.839 -15.520  -2.686  0.00  0.00     0.316 C 
ATOM      3  O   UNL d   1      25.133 -15.151  -3.611  0.00  0.00    -0.247 OA
ATOM      4  N   UNL d   1      27.150 -15.157  -2.655  0.00  0.00    -0.332 N 
ATOM      5  H   UNL d   1      25.991 -16.964  -1.303  0.00  0.00     0.164 HD
ATOM      6  H   UNL d   1      27.419 -14.748  -3.543  0.00  0.00     0.165 HD
ENDROOT
BRANCH   1   7
ATOM      7  C   UNL d   1      23.966 -16.588  -1.509  0.00  0.00     0.125 C 
BRANCH   7   8
ATOM      8  C   UNL d   1      23.716 -17.424  -0.258  0.00  0.00     0.028 C 
BRANCH   8   9
ATOM      9  C   UNL d   1      23.368 -18.875  -0.602  0.00  0.00     0.090 C 
BRANCH   9  10
ATOM     10  C   UNL d   1      21.907 -19.094  -0.500  0.00  0.00     0.172 A 
ATOM     11  O   UNL d   1      21.170 -19.057  -1.647  0.00  0.00    -0.196 OA
ATOM     12  N   UNL d   1      19.846 -19.321  -1.270  0.00  0.00    -0.111 NA
ATOM     13  C   UNL d   1      19.936 -19.503   0.055  0.00  0.00     0.159 A 
ATOM     14  N   UNL d   1      21.194 -19.353   0.569  0.00  0.00    -0.208 NA
BRANCH  13  15
ATOM     15  C   UNL d   1      18.789 -19.945   0.904  0.00  0.00     0.051 C 
ATOM     16  C   UNL d   1      18.142 -21.197   0.309  0.00  0.00     0.018 C 
ATOM     17  C   UNL d   1      19.230 -20.244   2.344  0.00  0.00     0.018 C 
ENDBRANCH  13  15
ENDBRANCH   9  10
ENDBRANCH   8   9
ENDBRANCH   7   8
ENDBRANCH   1   7
BRANCH   4  18
ATOM     18  CA  UNL d   1      28.238 -15.440  -1.722  0.00  0.00     0.143 C 
BRANCH  18  19
ATOM     19  C   UNL d   1      28.101 -14.662  -0.378  0.00  0.00    -0.033 A 
ATOM     20  C   UNL d   1      28.838 -15.009   0.758  0.00  0.00     0.009 A 
ATOM     21  C   UNL d   1      28.502 -14.458   2.007  0.00  0.00     0.001 A 
ATOM     22  C   UNL d   1      27.461 -13.534   2.141  0.00  0.00     0.000 A 
ATOM     23  C   UNL d   1      26.733 -13.160   1.032  0.00  0.00     0.001 A 
ATOM     24  C   UNL d   1      27.074 -13.693  -0.200  0.00  0.00     0.009 A 
ENDBRANCH  18  19
BRANCH  18  25
ATOM     25  C   UNL d   1      28.513 -16.924  -1.370  0.00  0.00     0.194 C 
BRANCH  25  26
ATOM     26  O   UNL d   1      27.540 -17.373  -0.412  0.00  0.00    -0.398 OA
ATOM     27  H   UNL d   1      28.018 -17.693   0.378  0.00  0.00     0.209 HD
ENDBRANCH  25  26
ENDBRANCH  18  25
ENDBRANCH   4  18
TORSDOF 9
ENDMDL
MODEL 7
REMARK VINA RESULT:   -30.930      2.426      3.197
REMARK INTER + INTRA:         -34.375
REMARK INTER:                 -33.615
REMARK INTRA:                  -0.760
REMARK CONF_INDEPENDENT:        2.685
REMARK UNBOUND:                -0.760
REMARK  9 active torsions:
REMARK  status: ('A' for Active; 'I' for Inactive)
REMARK    1  A    between atoms: C_2  and  C_4 
REMARK    2  A    between atoms: C_7  and  C_8 
REMARK    3  A    between atoms: C_8  and  C_9 
REMARK    4  A    between atoms: C_9  and  C_10 
REMARK    5  A    between atoms: C_10  and  N_11 
REMARK       I    between atoms: N_11  and  C_12 
REMARK       I    between atoms: C_12  and  N_14 
REMARK    6  A    between atoms: CA_15  and  N_14 
REMARK    7  A    between atoms: CA_15  and  C_18 
REMARK    8  A    between atoms: CA_15  and  C_16 
REMARK    9  A    between atoms: C_16  and  O_17 
ROOT
ATOM      1  N   UNL d   1      25.737 -16.807  -1.076  0.00  0.00    -0.343 N 
ATOM      2  C   UNL d   1      26.895 -16.092  -1.129  0.00  0.00     0.316 C 
ATOM      3  O   UNL d   1      27.846 -16.306  -0.396  0.00  0.00    -0.247 OA
ATOM      4  N   UNL d   1      26.987 -15.129  -2.087  0.00  0.00    -0.332 N 
ATOM      5  H   UNL d   1      24.899 -16.273  -1.210  0.00  0.00     0.164 HD
ATOM      6  H   UNL d   1      27.821 -14.571  -1.940  0.00  0.00     0.165 HD
ENDROOT
BRANCH   1   7
ATOM      7  C   UNL d   1      25.577 -17.934  -0.178  0.00  0.00     0.125 C 
BRANCH   7   8
ATOM      8  C   UNL d   1      24.116 -18.115   0.217  0.00  0.00     0.028 C 
BRANCH   8   9
ATOM      9  C   UNL d   1      23.173 -17.889  -0.969  0.00  0.00     0.090 C 
BRANCH   9  10
ATOM     10  C   UNL d   1      21.824 -18.421  -0.666  0.00  0.00     0.172 A 
ATOM     11  O   UNL d   1      20.763 -17.905  -1.350  0.00  0.00    -0.196 OA
ATOM     12  N   UNL d   1      19.631 -18.597  -0.895  0.00  0.00    -0.111 NA
ATOM     13  C   UNL d   1      20.139 -19.461  -0.004  0.00  0.00     0.159 A 
ATOM     14  N   UNL d   1      21.491 -19.369   0.176  0.00  0.00    -0.208 NA
BRANCH  13  15
ATOM     15  C   UNL d   1      19.329 -20.523   0.665  0.00  0.00     0.051 C 
ATOM     16  C   UNL d   1      18.974 -20.097   2.091  0.00  0.00     0.018 C 
ATOM     17  C   UNL d   1      18.037 -20.823  -0.106  0.00  0.00     0.018 C 
ENDBRANCH  13  15
ENDBRANCH   9  10
ENDBRANCH   8   9
ENDBRANCH   7   8
ENDBRANCH   1   7
BRANCH   4  18
ATOM     18  CA  UNL d   1      26.048 -14.629  -3.087  0.00  0.00     0.143 C 
BRANCH  18  19
ATOM     19  C   UNL d   1      26.435 -13.220  -3.630  0.00  0.00    -0.033 A 
ATOM     20  C   UNL d   1      25.567 -12.127  -3.544  0.00  0.00     0.009 A 
ATOM     21  C   UNL d   1      25.842 -10.954  -4.269  0.00  0.00     0.001 A 
ATOM     22  C   UNL d   1      26.992 -10.834  -5.054  0.00  0.00     0.000 A 
ATOM     23  C   UNL d   1      27.874 -11.890  -5.139  0.00  0.00     0.001 A 
ATOM     24  C   UNL d   1      27.609 -13.040  -4.414  0.00  0.00     0.009 A 
ENDBRANCH  18  19
BRANCH  18  25
ATOM     25  C   UNL d   1      25.755 -15.532  -4.311  0.00  0.00     0.194 C 
BRANCH  25  26
ATOM     26  O   UNL d   1      26.911 -15.562  -5.166  0.00  0.00    -0.398 OA
ATOM     27  H   UNL d   1      27.620 -16.047  -4.699  0.00  0.00     0.209 HD
ENDBRANCH  25  26
ENDBRANCH  18  25
ENDBRANCH   4  18
TORSDOF 9
ENDMDL
MODEL 8
REMARK VINA RESULT:   -30.914      2.500      4.274
REMARK INTER + INTRA:         -34.527
REMARK INTER:                 -33.599
REMARK INTRA:                  -0.928
REMARK CONF_INDEPENDENT:        2.685
REMARK UNBOUND:                -0.928
REMARK  9 active torsions:
REMARK  status: ('A' for Active; 'I' for Inactive)
REMARK    1  A    between atoms: C_2  and  C_4 
REMARK    2  A    between atoms: C_7  and  C_8 
REMARK    3  A    between atoms: C_8  and  C_9 
REMARK    4  A    between atoms: C_9  and  C_10 
REMARK    5  A    between atoms: C_10  and  N_11 
REMARK       I    between atoms: N_11  and  C_12 
REMARK       I    between atoms: C_12  and  N_14 
REMARK    6  A    between atoms: CA_15  and  N_14 
REMARK    7  A    between atoms: CA_15  and  C_18 
REMARK    8  A    between atoms: CA_15  and  C_16 
REMARK    9  A    between atoms: C_16  and  O_17 
ROOT
ATOM      1  N   UNL d   1      25.815 -16.061  -0.148  0.00  0.00    -0.343 N 
ATOM      2  C   UNL d   1      26.772 -16.681   0.597  0.00  0.00     0.316 C 
ATOM      3  O   UNL d   1      26.971 -17.884   0.560  0.00  0.00    -0.247 OA
ATOM      4  N   UNL d   1      27.559 -15.891   1.378  0.00  0.00    -0.332 N 
ATOM      5  H   UNL d   1      25.328 -15.317   0.315  0.00  0.00     0.164 HD
ATOM      6  H   UNL d   1      28.129 -16.465   1.990  0.00  0.00     0.165 HD
ENDROOT
BRANCH   1   7
ATOM      7  C   UNL d   1      25.002 -16.789  -1.103  0.00  0.00     0.125 C 
BRANCH   7   8
ATOM      8  C   UNL d   1      24.032 -17.726  -0.393  0.00  0.00     0.028 C 
BRANCH   8   9
ATOM      9  C   UNL d   1      23.322 -18.662  -1.376  0.00  0.00     0.090 C 
BRANCH   9  10
ATOM     10  C   UNL d   1      21.941 -18.940  -0.920  0.00  0.00     0.172 A 
ATOM     11  O   UNL d   1      20.959 -19.029  -1.863  0.00  0.00    -0.196 OA
ATOM     12  N   UNL d   1      19.776 -19.324  -1.168  0.00  0.00    -0.111 NA
ATOM     13  C   UNL d   1      20.181 -19.395   0.108  0.00  0.00     0.159 A 
ATOM     14  N   UNL d   1      21.511 -19.146   0.301  0.00  0.00    -0.208 NA
BRANCH  13  15
ATOM     15  C   UNL d   1      19.291 -19.821   1.230  0.00  0.00     0.051 C 
ATOM     16  C   UNL d   1      18.591 -21.135   0.880  0.00  0.00     0.018 C 
ATOM     17  C   UNL d   1      20.072 -20.001   2.538  0.00  0.00     0.018 C 
ENDBRANCH  13  15
ENDBRANCH   9  10
ENDBRANCH   8   9
ENDBRANCH   7   8
ENDBRANCH   1   7
BRANCH   4  18
ATOM     18  CA  UNL d   1      27.570 -14.456   1.649  0.00  0.00     0.143 C 
BRANCH  18  19
ATOM     19  C   UNL d   1      28.191 -14.107   3.035  0.00  0.00    -0.033 A 
ATOM     20  C   UNL d   1      29.297 -13.260   3.161  0.00  0.00     0.009 A 
ATOM     21  C   UNL d   1      29.981 -13.176   4.386  0.00  0.00     0.001 A 
ATOM     22  C   UNL d   1      29.561 -13.898   5.507  0.00  0.00     0.000 A 
ATOM     23  C   UNL d   1      28.462 -14.724   5.415  0.00  0.00     0.001 A 
ATOM     24  C   UNL d   1      27.780 -14.795   4.211  0.00  0.00     0.009 A 
ENDBRANCH  18  19
BRANCH  18  25
ATOM     25  C   UNL d   1      28.236 -13.533   0.598  0.00  0.00     0.194 C 
BRANCH  25  26
ATOM     26  O   UNL d   1      28.990 -14.334  -0.328  0.00  0.00    -0.398 OA
ATOM     27  H   UNL d   1      29.741 -14.730   0.157  0.00  0.00     0.209 HD
ENDBRANCH  25  26
ENDBRANCH  18  25
ENDBRANCH   4  18
TORSDOF 9
ENDMDL
MODEL 9
REMARK VINA RESULT:   -30.864      1.962      2.826
REMARK INTER + INTRA:         -34.371
REMARK INTER:                 -33.549
REMARK INTRA:                  -0.822
REMARK CONF_INDEPENDENT:        2.685
REMARK UNBOUND:                -0.822
REMARK  9 active torsions:
REMARK  status: ('A' for Active; 'I' for Inactive)
REMARK    1  A    between atoms: C_2  and  C_4 
REMARK    2  A    between atoms: C_7  and  C_8 
REMARK    3  A    between atoms: C_8  and  C_9 
REMARK    4  A    between atoms: C_9  and  C_10 
REMARK    5  A    between atoms: C_10  and  N_11 
REMARK       I    between atoms: N_11  and  C_12 
REMARK       I    between atoms: C_12  and  N_14 
REMARK    6  A    between atoms: CA_15  and  N_14 
REMARK    7  A    between atoms: CA_15  and  C_18 
REMARK    8  A    between atoms: CA_15  and  C_16 
REMARK    9  A    between atoms: C_16  and  O_17 
ROOT
ATOM      1  N   UNL d   1      25.986 -17.071  -1.250  0.00  0.00    -0.343 N 
ATOM      2  C   UNL d   1      25.740 -15.760  -0.971  0.00  0.00     0.316 C 
ATOM      3  O   UNL d   1      25.149 -15.390   0.030  0.00  0.00    -0.247 OA
ATOM      4  N   UNL d   1      26.229 -14.837  -1.845  0.00  0.00    -0.332 N 
ATOM      5  H   UNL d   1      25.899 -17.325  -2.216  0.00  0.00     0.164 HD
ATOM      6  H   UNL d   1      25.865 -13.918  -1.618  0.00  0.00     0.165 HD
ENDROOT
BRANCH   1   7
ATOM      7  C   UNL d   1      25.618 -18.128  -0.329  0.00  0.00     0.125 C 
BRANCH   7   8
ATOM      8  C   UNL d   1      24.119 -18.112  -0.049  0.00  0.00     0.028 C 
BRANCH   8   9
ATOM      9  C   UNL d   1      23.312 -18.655  -1.233  0.00  0.00     0.090 C 
BRANCH   9  10
ATOM     10  C   UNL d   1      21.911 -18.914  -0.829  0.00  0.00     0.172 A 
ATOM     11  O   UNL d   1      20.977 -19.064  -1.811  0.00  0.00    -0.196 OA
ATOM     12  N   UNL d   1      19.763 -19.325  -1.160  0.00  0.00    -0.111 NA
ATOM     13  C   UNL d   1      20.105 -19.319   0.137  0.00  0.00     0.159 A 
ATOM     14  N   UNL d   1      21.423 -19.051   0.380  0.00  0.00    -0.208 NA
BRANCH  13  15
ATOM     15  C   UNL d   1      19.162 -19.684   1.237  0.00  0.00     0.051 C 
ATOM     16  C   UNL d   1      18.259 -20.837   0.798  0.00  0.00     0.018 C 
ATOM     17  C   UNL d   1      19.910 -20.089   2.515  0.00  0.00     0.018 C 
ENDBRANCH  13  15
ENDBRANCH   9  10
ENDBRANCH   8   9
ENDBRANCH   7   8
ENDBRANCH   1   7
BRANCH   4  18
ATOM     18  CA  UNL d   1      26.948 -14.949  -3.110  0.00  0.00     0.143 C 
BRANCH  18  19
ATOM     19  C   UNL d   1      28.304 -15.707  -2.971  0.00  0.00    -0.033 A 
ATOM     20  C   UNL d   1      29.017 -16.162  -4.084  0.00  0.00     0.009 A 
ATOM     21  C   UNL d   1      30.088 -17.058  -3.913  0.00  0.00     0.001 A 
ATOM     22  C   UNL d   1      30.487 -17.483  -2.643  0.00  0.00     0.000 A 
ATOM     23  C   UNL d   1      29.814 -17.032  -1.529  0.00  0.00     0.001 A 
ATOM     24  C   UNL d   1      28.768 -16.140  -1.697  0.00  0.00     0.009 A 
ENDBRANCH  18  19
BRANCH  18  25
ATOM     25  C   UNL d   1      26.194 -15.569  -4.312  0.00  0.00     0.194 C 
BRANCH  25  26
ATOM     26  O   UNL d   1      26.886 -15.240  -5.529  0.00  0.00    -0.398 OA
ATOM     27  H   UNL d   1      27.633 -14.652  -5.302  0.00  0.00     0.209 HD
ENDBRANCH  25  26
ENDBRANCH  18  25
ENDBRANCH   4  18
TORSDOF 9
ENDMDL
