MODEL 1
REMARK VINA RESULT:   -33.828      0.000      0.000
REMARK INTER + INTRA:         -36.427
REMARK INTER:                 -35.916
REMARK INTRA:                  -0.511
REMARK CONF_INDEPENDENT:        2.088
REMARK UNBOUND:                -0.511
REMARK  7 active torsions:
REMARK  status: ('A' for Active; 'I' for Inactive)
REMARK    1  A    between atoms: O_2  and  C_3 
REMARK    2  A    between atoms: C_5  and  N_6 
REMARK       I    between atoms: N_6  and  C_7 
REMARK       I    between atoms: C_7  and  N_9 
REMARK    3  A    between atoms: N_9  and  C_10 
REMARK    4  A    between atoms: C_12  and  C_13 
REMARK    5  A    between atoms: C_13  and  S_14 
REMARK    6  A    between atoms: S_14  and  C_15 
REMARK    7  A    between atoms: C_26  and  O_27 
ROOT
ATOM      1  N   UNL d   1      28.687 -14.736   3.214  0.00  0.00    -0.192 N 
ATOM      2  C   UNL d   1      27.838 -14.800   2.062  0.00  0.00     0.691 C 
ATOM      3  N   UNL d   1      26.833 -13.900   1.876  0.00  0.00    -0.234 N 
ATOM      4  N   UNL d   1      27.929 -15.776   1.086  0.00  0.00    -0.021 N 
ATOM      5  H   UNL d   1      29.501 -15.344   3.205  0.00  0.00     0.184 HD
ATOM      6  H   UNL d   1      26.817 -12.999   2.316  0.00  0.00     0.174 HD
ATOM      7  H   UNL d   1      26.199 -13.989   1.087  0.00  0.00     0.174 HD
ATOM      8  H   UNL d   1      28.626 -16.502   1.181  0.00  0.00     0.203 HD
ENDROOT
BRANCH   4   9
ATOM      9  C   UNL d   1      27.071 -15.813  -0.062  0.00  0.00     0.722 A 
ATOM     10  N   UNL d   1      25.832 -16.194   0.059  0.00  0.00    -0.068 NA
ATOM     11  C   UNL d   1      25.040 -16.232  -1.088  0.00  0.00     0.068 A 
ATOM     12  C   UNL d   1      25.573 -15.971  -2.294  0.00  0.00     0.103 A 
ATOM     13  C   UNL d   1      26.997 -15.658  -2.415  0.00  0.00     0.261 A 
ATOM     14  O   UNL d   1      27.531 -15.542  -3.499  0.00  0.00    -0.268 OA
ATOM     15  N   UNL d   1      27.672 -15.533  -1.239  0.00  0.00    -0.154 N 
ATOM     16  H   UNL d   1      28.670 -15.432  -1.347  0.00  0.00     0.187 HD
BRANCH  11  17
ATOM     17  C   UNL d   1      23.538 -16.607  -0.907  0.00  0.00     0.141 C 
BRANCH  17  18
ATOM     18  S   UNL d   1      23.335 -18.223  -0.079  0.00  0.00    -0.095 SA
BRANCH  18  19
ATOM     19  C   UNL d   1      21.652 -18.624  -0.168  0.00  0.00     0.159 A 
ATOM     20  N   UNL d   1      20.784 -17.961  -0.896  0.00  0.00    -0.135 NA
ATOM     21  N   UNL d   1      19.540 -18.576  -0.898  0.00  0.00    -0.146 NA
ATOM     22  C   UNL d   1      19.521 -19.675  -0.172  0.00  0.00     0.096 A 
ATOM     23  C   UNL d   1      18.332 -20.540   0.052  0.00  0.00     0.081 C 
ATOM     24  S   UNL d   1      21.028 -20.051   0.559  0.00  0.00    -0.045 SA
ENDBRANCH  18  19
ENDBRANCH  17  18
ENDBRANCH  11  17
ENDBRANCH   4   9
BRANCH   1  25
ATOM     25  C   UNL d   1      28.696 -13.793   4.282  0.00  0.00     0.054 C 
ATOM     26  C   UNL d   1      28.316 -12.453   4.131  0.00  0.00     0.066 C 
ATOM     27  C   UNL d   1      28.108 -11.628   5.263  0.00  0.00     0.073 C 
ATOM     28  C   UNL d   1      28.267 -12.143   6.550  0.00  0.00     0.073 C 
ATOM     29  C   UNL d   1      28.724 -13.433   6.708  0.00  0.00     0.073 C 
ATOM     30  C   UNL d   1      29.045 -14.173   5.578  0.00  0.00     0.066 C 
BRANCH  27  31
ATOM     31  O   UNL d   1      27.636 -10.366   5.021  0.00  0.00    -0.356 OA
ATOM     32  C   UNL d   1      27.137 -10.122   3.703  0.00  0.00     0.210 C 
ENDBRANCH  27  31
BRANCH  29  33
ATOM     33  O   UNL d   1      28.888 -14.115   7.880  0.00  0.00    -0.356 OA
ATOM     34  C   UNL d   1      30.148 -13.955   8.519  0.00  0.00     0.210 C 
ENDBRANCH  29  33
ENDBRANCH   1  25
TORSDOF 7
ENDMDL
MODEL 2
REMARK VINA RESULT:   -33.450      0.492      2.368
REMARK INTER + INTRA:         -36.067
REMARK INTER:                 -35.538
REMARK INTRA:                  -0.528
REMARK CONF_INDEPENDENT:        2.088
REMARK UNBOUND:                -0.528
REMARK  7 active torsions:
REMARK  status: ('A' for Active; 'I' for Inactive)
REMARK    1  A    between atoms: O_2  and  C_3 
REMARK    2  A    between atoms: C_5  and  N_6 
REMARK       I    between atoms: N_6  and  C_7 
REMARK       I    between atoms: C_7  and  N_9 
REMARK    3  A    between atoms: N_9  and  C_10 
REMARK    4  A    between atoms: C_12  and  C_13 
REMARK    5  A    between atoms: C_13  and  S_14 
REMARK    6  A    between atoms: S_14  and  C_15 
REMARK    7  A    between atoms: C_26  and  O_27 
ROOT
ATOM      1  N   UNL d   1      28.499 -14.815   3.310  0.00  0.00    -0.192 N 
ATOM      2  C   UNL d   1      27.730 -14.928   2.107  0.00  0.00     0.691 C 
ATOM      3  N   UNL d   1      26.701 -14.075   1.845  0.00  0.00    -0.234 N 
ATOM      4  N   UNL d   1      27.925 -15.910   1.152  0.00  0.00    -0.021 N 
ATOM      5  H   UNL d   1      29.337 -15.386   3.362  0.00  0.00     0.184 HD
ATOM      6  H   UNL d   1      26.618 -13.171   2.272  0.00  0.00     0.174 HD
ATOM      7  H   UNL d   1      26.124 -14.200   1.019  0.00  0.00     0.174 HD
ATOM      8  H   UNL d   1      28.645 -16.603   1.302  0.00  0.00     0.203 HD
ENDROOT
BRANCH   4   9
ATOM      9  C   UNL d   1      27.145 -15.996  -0.048  0.00  0.00     0.722 A 
ATOM     10  N   UNL d   1      25.900 -16.370   0.007  0.00  0.00    -0.068 NA
ATOM     11  C   UNL d   1      25.186 -16.458  -1.187  0.00  0.00     0.068 A 
ATOM     12  C   UNL d   1      25.798 -16.251  -2.365  0.00  0.00     0.103 A 
ATOM     13  C   UNL d   1      27.228 -15.946  -2.404  0.00  0.00     0.261 A 
ATOM     14  O   UNL d   1      27.835 -15.879  -3.454  0.00  0.00    -0.268 OA
ATOM     15  N   UNL d   1      27.825 -15.769  -1.193  0.00  0.00    -0.154 N 
ATOM     16  H   UNL d   1      28.828 -15.675  -1.238  0.00  0.00     0.187 HD
BRANCH  11  17
ATOM     17  C   UNL d   1      23.673 -16.822  -1.090  0.00  0.00     0.141 C 
BRANCH  17  18
ATOM     18  S   UNL d   1      23.401 -18.348  -0.123  0.00  0.00    -0.095 SA
BRANCH  18  19
ATOM     19  C   UNL d   1      21.702 -18.683  -0.181  0.00  0.00     0.159 A 
ATOM     20  N   UNL d   1      20.855 -18.014  -0.928  0.00  0.00    -0.135 NA
ATOM     21  N   UNL d   1      19.587 -18.578  -0.895  0.00  0.00    -0.146 NA
ATOM     22  C   UNL d   1      19.531 -19.645  -0.124  0.00  0.00     0.096 A 
ATOM     23  C   UNL d   1      18.309 -20.450   0.145  0.00  0.00     0.081 C 
ATOM     24  S   UNL d   1      21.028 -20.052   0.608  0.00  0.00    -0.045 SA
ENDBRANCH  18  19
ENDBRANCH  17  18
ENDBRANCH  11  17
ENDBRANCH   4   9
BRANCH   1  25
ATOM     25  C   UNL d   1      28.398 -13.861   4.364  0.00  0.00     0.054 C 
ATOM     26  C   UNL d   1      28.871 -14.092   5.663  0.00  0.00     0.066 C 
ATOM     27  C   UNL d   1      28.968 -13.032   6.596  0.00  0.00     0.073 C 
ATOM     28  C   UNL d   1      28.605 -11.735   6.232  0.00  0.00     0.073 C 
ATOM     29  C   UNL d   1      28.057 -11.513   4.988  0.00  0.00     0.073 C 
ATOM     30  C   UNL d   1      27.853 -12.596   4.143  0.00  0.00     0.066 C 
BRANCH  27  31
ATOM     31  O   UNL d   1      29.542 -13.332   7.803  0.00  0.00    -0.356 OA
ATOM     32  C   UNL d   1      28.641 -13.539   8.895  0.00  0.00     0.210 C 
ENDBRANCH  27  31
BRANCH  29  33
ATOM     33  O   UNL d   1      27.695 -10.313   4.445  0.00  0.00    -0.356 OA
ATOM     34  C   UNL d   1      27.840 -10.202   3.035  0.00  0.00     0.210 C 
ENDBRANCH  29  33
ENDBRANCH   1  25
TORSDOF 7
ENDMDL
MODEL 3
REMARK VINA RESULT:   -33.113      1.147      1.219
REMARK INTER + INTRA:         -35.498
REMARK INTER:                 -35.201
REMARK INTRA:                  -0.297
REMARK CONF_INDEPENDENT:        2.088
REMARK UNBOUND:                -0.297
REMARK  7 active torsions:
REMARK  status: ('A' for Active; 'I' for Inactive)
REMARK    1  A    between atoms: O_2  and  C_3 
REMARK    2  A    between atoms: C_5  and  N_6 
REMARK       I    between atoms: N_6  and  C_7 
REMARK       I    between atoms: C_7  and  N_9 
REMARK    3  A    between atoms: N_9  and  C_10 
REMARK    4  A    between atoms: C_12  and  C_13 
REMARK    5  A    between atoms: C_13  and  S_14 
REMARK    6  A    between atoms: S_14  and  C_15 
REMARK    7  A    between atoms: C_26  and  O_27 
ROOT
ATOM      1  N   UNL d   1      28.826 -14.768   2.883  0.00  0.00    -0.192 N 
ATOM      2  C   UNL d   1      27.841 -15.065   1.887  0.00  0.00     0.691 C 
ATOM      3  N   UNL d   1      26.808 -14.212   1.640  0.00  0.00    -0.234 N 
ATOM      4  N   UNL d   1      27.822 -16.229   1.138  0.00  0.00    -0.021 N 
ATOM      5  H   UNL d   1      29.641 -15.374   2.902  0.00  0.00     0.184 HD
ATOM      6  H   UNL d   1      26.835 -13.238   1.876  0.00  0.00     0.174 HD
ATOM      7  H   UNL d   1      26.082 -14.459   0.974  0.00  0.00     0.174 HD
ATOM      8  H   UNL d   1      28.536 -16.927   1.299  0.00  0.00     0.203 HD
ENDROOT
BRANCH   4   9
ATOM      9  C   UNL d   1      26.827 -16.497   0.141  0.00  0.00     0.722 A 
ATOM     10  N   UNL d   1      25.861 -17.333   0.390  0.00  0.00    -0.068 NA
ATOM     11  C   UNL d   1      24.927 -17.578  -0.616  0.00  0.00     0.068 A 
ATOM     12  C   UNL d   1      25.081 -17.036  -1.836  0.00  0.00     0.103 A 
ATOM     13  C   UNL d   1      26.242 -16.194  -2.123  0.00  0.00     0.261 A 
ATOM     14  O   UNL d   1      26.474 -15.795  -3.247  0.00  0.00    -0.268 OA
ATOM     15  N   UNL d   1      27.043 -15.915  -1.058  0.00  0.00    -0.154 N 
ATOM     16  H   UNL d   1      27.895 -15.431  -1.300  0.00  0.00     0.187 HD
BRANCH  11  17
ATOM     17  C   UNL d   1      23.729 -18.513  -0.267  0.00  0.00     0.141 C 
BRANCH  17  18
ATOM     18  S   UNL d   1      22.319 -18.263  -1.402  0.00  0.00    -0.095 SA
BRANCH  18  19
ATOM     19  C   UNL d   1      20.925 -18.939  -0.625  0.00  0.00     0.159 A 
ATOM     20  N   UNL d   1      19.849 -19.325  -1.270  0.00  0.00    -0.135 NA
ATOM     21  N   UNL d   1      18.946 -19.958  -0.427  0.00  0.00    -0.146 NA
ATOM     22  C   UNL d   1      19.377 -20.020   0.816  0.00  0.00     0.096 A 
ATOM     23  C   UNL d   1      18.627 -20.606   1.960  0.00  0.00     0.081 C 
ATOM     24  S   UNL d   1      20.928 -19.325   1.049  0.00  0.00    -0.045 SA
ENDBRANCH  18  19
ENDBRANCH  17  18
ENDBRANCH  11  17
ENDBRANCH   4   9
BRANCH   1  25
ATOM     25  C   UNL d   1      28.955 -13.619   3.715  0.00  0.00     0.054 C 
ATOM     26  C   UNL d   1      29.015 -12.309   3.220  0.00  0.00     0.066 C 
ATOM     27  C   UNL d   1      28.895 -11.200   4.091  0.00  0.00     0.073 C 
ATOM     28  C   UNL d   1      28.704 -11.395   5.459  0.00  0.00     0.073 C 
ATOM     29  C   UNL d   1      28.732 -12.675   5.968  0.00  0.00     0.073 C 
ATOM     30  C   UNL d   1      28.982 -13.733   5.105  0.00  0.00     0.066 C 
BRANCH  27  31
ATOM     31  O   UNL d   1      28.857  -9.963   3.504  0.00  0.00    -0.356 OA
ATOM     32  C   UNL d   1      27.810  -9.092   3.937  0.00  0.00     0.210 C 
ENDBRANCH  27  31
BRANCH  29  33
ATOM     33  O   UNL d   1      28.513 -13.056   7.261  0.00  0.00    -0.356 OA
ATOM     34  C   UNL d   1      29.520 -13.872   7.845  0.00  0.00     0.210 C 
ENDBRANCH  29  33
ENDBRANCH   1  25
TORSDOF 7
ENDMDL
MODEL 4
REMARK VINA RESULT:   -33.080      1.315      2.111
REMARK INTER + INTRA:         -35.759
REMARK INTER:                 -35.169
REMARK INTRA:                  -0.591
REMARK CONF_INDEPENDENT:        2.088
REMARK UNBOUND:                -0.591
REMARK  7 active torsions:
REMARK  status: ('A' for Active; 'I' for Inactive)
REMARK    1  A    between atoms: O_2  and  C_3 
REMARK    2  A    between atoms: C_5  and  N_6 
REMARK       I    between atoms: N_6  and  C_7 
REMARK       I    between atoms: C_7  and  N_9 
REMARK    3  A    between atoms: N_9  and  C_10 
REMARK    4  A    between atoms: C_12  and  C_13 
REMARK    5  A    between atoms: C_13  and  S_14 
REMARK    6  A    between atoms: S_14  and  C_15 
REMARK    7  A    between atoms: C_26  and  O_27 
ROOT
ATOM      1  N   UNL d   1      29.110 -14.806   3.044  0.00  0.00    -0.192 N 
ATOM      2  C   UNL d   1      28.146 -14.860   1.986  0.00  0.00     0.691 C 
ATOM      3  N   UNL d   1      27.110 -13.978   1.930  0.00  0.00    -0.234 N 
ATOM      4  N   UNL d   1      28.150 -15.811   0.981  0.00  0.00    -0.021 N 
ATOM      5  H   UNL d   1      29.930 -15.396   2.934  0.00  0.00     0.184 HD
ATOM      6  H   UNL d   1      27.125 -13.088   2.393  0.00  0.00     0.174 HD
ATOM      7  H   UNL d   1      26.398 -14.061   1.211  0.00  0.00     0.174 HD
ATOM      8  H   UNL d   1      28.867 -16.525   0.985  0.00  0.00     0.203 HD
ENDROOT
BRANCH   4   9
ATOM      9  C   UNL d   1      27.176 -15.838  -0.070  0.00  0.00     0.722 A 
ATOM     10  N   UNL d   1      25.953 -16.206   0.180  0.00  0.00    -0.068 NA
ATOM     11  C   UNL d   1      25.046 -16.236  -0.878  0.00  0.00     0.068 A 
ATOM     12  C   UNL d   1      25.451 -15.981  -2.133  0.00  0.00     0.103 A 
ATOM     13  C   UNL d   1      26.859 -15.684  -2.402  0.00  0.00     0.261 A 
ATOM     14  O   UNL d   1      27.278 -15.575  -3.537  0.00  0.00    -0.268 OA
ATOM     15  N   UNL d   1      27.654 -15.566  -1.304  0.00  0.00    -0.154 N 
ATOM     16  H   UNL d   1      28.637 -15.476  -1.516  0.00  0.00     0.187 HD
BRANCH  11  17
ATOM     17  C   UNL d   1      23.566 -16.594  -0.539  0.00  0.00     0.141 C 
BRANCH  17  18
ATOM     18  S   UNL d   1      23.362 -18.375  -0.182  0.00  0.00    -0.095 SA
BRANCH  18  19
ATOM     19  C   UNL d   1      21.660 -18.700  -0.216  0.00  0.00     0.159 A 
ATOM     20  N   UNL d   1      20.805 -18.024  -0.947  0.00  0.00    -0.135 NA
ATOM     21  N   UNL d   1      19.535 -18.581  -0.896  0.00  0.00    -0.146 NA
ATOM     22  C   UNL d   1      19.485 -19.650  -0.128  0.00  0.00     0.096 A 
ATOM     23  C   UNL d   1      18.263 -20.450   0.157  0.00  0.00     0.081 C 
ATOM     24  S   UNL d   1      20.991 -20.069   0.579  0.00  0.00    -0.045 SA
ENDBRANCH  18  19
ENDBRANCH  17  18
ENDBRANCH  11  17
ENDBRANCH   4   9
BRANCH   1  25
ATOM     25  C   UNL d   1      29.214 -13.889   4.129  0.00  0.00     0.054 C 
ATOM     26  C   UNL d   1      28.678 -14.132   5.400  0.00  0.00     0.066 C 
ATOM     27  C   UNL d   1      29.019 -13.307   6.499  0.00  0.00     0.073 C 
ATOM     28  C   UNL d   1      29.906 -12.244   6.335  0.00  0.00     0.073 C 
ATOM     29  C   UNL d   1      30.370 -11.942   5.074  0.00  0.00     0.073 C 
ATOM     30  C   UNL d   1      29.914 -12.689   3.996  0.00  0.00     0.066 C 
BRANCH  27  31
ATOM     31  O   UNL d   1      28.532 -13.687   7.722  0.00  0.00    -0.356 OA
ATOM     32  C   UNL d   1      28.569 -12.695   8.751  0.00  0.00     0.210 C 
ENDBRANCH  27  31
BRANCH  29  33
ATOM     33  O   UNL d   1      31.277 -10.979   4.733  0.00  0.00    -0.356 OA
ATOM     34  C   UNL d   1      32.517 -11.021   5.428  0.00  0.00     0.210 C 
ENDBRANCH  29  33
ENDBRANCH   1  25
TORSDOF 7
ENDMDL
MODEL 5
REMARK VINA RESULT:   -32.481      1.908      2.710
REMARK INTER + INTRA:         -34.821
REMARK INTER:                 -34.569
REMARK INTRA:                  -0.252
REMARK CONF_INDEPENDENT:        2.088
REMARK UNBOUND:                -0.252
REMARK  7 active torsions:
REMARK  status: ('A' for Active; 'I' for Inactive)
REMARK    1  A    between atoms: O_2  and  C_3 
REMARK    2  A    between atoms: C_5  and  N_6 
REMARK       I    between atoms: N_6  and  C_7 
REMARK       I    between atoms: C_7  and  N_9 
REMARK    3  A    between atoms: N_9  and  C_10 
REMARK    4  A    between atoms: C_12  and  C_13 
REMARK    5  A    between atoms: C_13  and  S_14 
REMARK    6  A    between atoms: S_14  and  C_15 
REMARK    7  A    between atoms: C_26  and  O_27 
ROOT
ATOM      1  N   UNL d   1      28.769 -14.545   2.728  0.00  0.00    -0.192 N 
ATOM      2  C   UNL d   1      27.777 -14.873   1.749  0.00  0.00     0.691 C 
ATOM      3  N   UNL d   1      26.892 -13.940   1.301  0.00  0.00    -0.234 N 
ATOM      4  N   UNL d   1      27.601 -16.139   1.218  0.00  0.00    -0.021 N 
ATOM      5  H   UNL d   1      29.482 -15.249   2.898  0.00  0.00     0.184 HD
ATOM      6  H   UNL d   1      27.061 -12.953   1.362  0.00  0.00     0.174 HD
ATOM      7  H   UNL d   1      26.155 -14.196   0.651  0.00  0.00     0.174 HD
ATOM      8  H   UNL d   1      28.196 -16.892   1.537  0.00  0.00     0.203 HD
ENDROOT
BRANCH   4   9
ATOM      9  C   UNL d   1      26.604 -16.439   0.232  0.00  0.00     0.722 A 
ATOM     10  N   UNL d   1      25.604 -17.216   0.529  0.00  0.00    -0.068 NA
ATOM     11  C   UNL d   1      24.669 -17.496  -0.466  0.00  0.00     0.068 A 
ATOM     12  C   UNL d   1      24.852 -17.047  -1.720  0.00  0.00     0.103 A 
ATOM     13  C   UNL d   1      26.047 -16.272  -2.054  0.00  0.00     0.261 A 
ATOM     14  O   UNL d   1      26.303 -15.963  -3.200  0.00  0.00    -0.268 OA
ATOM     15  N   UNL d   1      26.851 -15.950  -1.003  0.00  0.00    -0.154 N 
ATOM     16  H   UNL d   1      27.722 -15.518  -1.270  0.00  0.00     0.187 HD
BRANCH  11  17
ATOM     17  C   UNL d   1      23.432 -18.357  -0.065  0.00  0.00     0.141 C 
BRANCH  17  18
ATOM     18  S   UNL d   1      22.063 -18.182  -1.263  0.00  0.00    -0.095 SA
BRANCH  18  19
ATOM     19  C   UNL d   1      20.694 -18.994  -0.580  0.00  0.00     0.159 A 
ATOM     20  N   UNL d   1      19.627 -19.325  -1.269  0.00  0.00    -0.135 NA
ATOM     21  N   UNL d   1      18.747 -20.089  -0.516  0.00  0.00    -0.146 NA
ATOM     22  C   UNL d   1      19.184 -20.300   0.709  0.00  0.00     0.096 A 
ATOM     23  C   UNL d   1      18.457 -21.051   1.767  0.00  0.00     0.081 C 
ATOM     24  S   UNL d   1      20.715 -19.594   1.030  0.00  0.00    -0.045 SA
ENDBRANCH  18  19
ENDBRANCH  17  18
ENDBRANCH  11  17
ENDBRANCH   4   9
BRANCH   1  25
ATOM     25  C   UNL d   1      29.049 -13.294   3.350  0.00  0.00     0.054 C 
ATOM     26  C   UNL d   1      30.339 -12.758   3.460  0.00  0.00     0.066 C 
ATOM     27  C   UNL d   1      30.532 -11.414   3.860  0.00  0.00     0.073 C 
ATOM     28  C   UNL d   1      29.437 -10.597   4.142  0.00  0.00     0.073 C 
ATOM     29  C   UNL d   1      28.171 -11.139   4.123  0.00  0.00     0.073 C 
ATOM     30  C   UNL d   1      28.025 -12.493   3.854  0.00  0.00     0.066 C 
BRANCH  27  31
ATOM     31  O   UNL d   1      31.820 -10.948   3.834  0.00  0.00    -0.356 OA
ATOM     32  C   UNL d   1      32.573 -11.240   2.654  0.00  0.00     0.210 C 
ENDBRANCH  27  31
BRANCH  29  33
ATOM     33  O   UNL d   1      26.988 -10.484   4.320  0.00  0.00    -0.356 OA
ATOM     34  C   UNL d   1      26.476  -9.778   3.196  0.00  0.00     0.210 C 
ENDBRANCH  29  33
ENDBRANCH   1  25
TORSDOF 7
ENDMDL
MODEL 6
REMARK VINA RESULT:   -32.291      4.994      6.895
REMARK INTER + INTRA:         -34.445
REMARK INTER:                 -34.379
REMARK INTRA:                  -0.066
REMARK CONF_INDEPENDENT:        2.088
REMARK UNBOUND:                -0.066
REMARK  7 active torsions:
REMARK  status: ('A' for Active; 'I' for Inactive)
REMARK    1  A    between atoms: O_2  and  C_3 
REMARK    2  A    between atoms: C_5  and  N_6 
REMARK       I    between atoms: N_6  and  C_7 
REMARK       I    between atoms: C_7  and  N_9 
REMARK    3  A    between atoms: N_9  and  C_10 
REMARK    4  A    between atoms: C_12  and  C_13 
REMARK    5  A    between atoms: C_13  and  S_14 
REMARK    6  A    between atoms: S_14  and  C_15 
REMARK    7  A    between atoms: C_26  and  O_27 
ROOT
ATOM      1  N   UNL d   1      30.451 -17.363  -0.024  0.00  0.00    -0.192 N 
ATOM      2  C   UNL d   1      29.117 -17.143  -0.497  0.00  0.00     0.691 C 
ATOM      3  N   UNL d   1      28.842 -17.084  -1.830  0.00  0.00    -0.234 N 
ATOM      4  N   UNL d   1      28.026 -16.933   0.328  0.00  0.00    -0.021 N 
ATOM      5  H   UNL d   1      30.549 -17.544   0.971  0.00  0.00     0.184 HD
ATOM      6  H   UNL d   1      29.437 -17.488  -2.529  0.00  0.00     0.174 HD
ATOM      7  H   UNL d   1      27.904 -16.869  -2.155  0.00  0.00     0.174 HD
ATOM      8  H   UNL d   1      28.165 -16.921   1.330  0.00  0.00     0.203 HD
ENDROOT
BRANCH   4   9
ATOM      9  C   UNL d   1      26.699 -16.723  -0.172  0.00  0.00     0.722 A 
ATOM     10  N   UNL d   1      25.737 -17.530   0.168  0.00  0.00    -0.068 NA
ATOM     11  C   UNL d   1      24.467 -17.299  -0.358  0.00  0.00     0.068 A 
ATOM     12  C   UNL d   1      24.270 -16.325  -1.263  0.00  0.00     0.103 A 
ATOM     13  C   UNL d   1      25.395 -15.507  -1.716  0.00  0.00     0.261 A 
ATOM     14  O   UNL d   1      25.274 -14.707  -2.622  0.00  0.00    -0.268 OA
ATOM     15  N   UNL d   1      26.575 -15.723  -1.072  0.00  0.00    -0.154 N 
ATOM     16  H   UNL d   1      27.360 -15.234  -1.477  0.00  0.00     0.187 HD
BRANCH  11  17
ATOM     17  C   UNL d   1      23.311 -18.223   0.132  0.00  0.00     0.141 C 
BRANCH  17  18
ATOM     18  S   UNL d   1      22.295 -18.836  -1.258  0.00  0.00    -0.095 SA
BRANCH  18  19
ATOM     19  C   UNL d   1      20.770 -19.317  -0.590  0.00  0.00     0.159 A 
ATOM     20  N   UNL d   1      19.648 -19.324  -1.270  0.00  0.00    -0.135 NA
ATOM     21  N   UNL d   1      18.610 -19.887  -0.540  0.00  0.00    -0.146 NA
ATOM     22  C   UNL d   1      18.992 -20.278   0.659  0.00  0.00     0.096 A 
ATOM     23  C   UNL d   1      18.108 -20.886   1.689  0.00  0.00     0.081 C 
ATOM     24  S   UNL d   1      20.654 -20.003   0.982  0.00  0.00    -0.045 SA
ENDBRANCH  18  19
ENDBRANCH  17  18
ENDBRANCH  11  17
ENDBRANCH   4   9
BRANCH   1  25
ATOM     25  C   UNL d   1      31.648 -17.588  -0.761  0.00  0.00     0.054 C 
ATOM     26  C   UNL d   1      32.928 -17.325  -0.255  0.00  0.00     0.066 C 
ATOM     27  C   UNL d   1      34.083 -17.794  -0.928  0.00  0.00     0.073 C 
ATOM     28  C   UNL d   1      33.962 -18.536  -2.103  0.00  0.00     0.073 C 
ATOM     29  C   UNL d   1      32.715 -18.725  -2.656  0.00  0.00     0.073 C 
ATOM     30  C   UNL d   1      31.615 -18.141  -2.042  0.00  0.00     0.066 C 
BRANCH  27  31
ATOM     31  O   UNL d   1      35.282 -17.581  -0.303  0.00  0.00    -0.356 OA
ATOM     32  C   UNL d   1      36.413 -18.255  -0.862  0.00  0.00     0.210 C 
ENDBRANCH  27  31
BRANCH  29  33
ATOM     33  O   UNL d   1      32.402 -19.462  -3.763  0.00  0.00    -0.356 OA
ATOM     34  C   UNL d   1      31.814 -18.744  -4.840  0.00  0.00     0.210 C 
ENDBRANCH  29  33
ENDBRANCH   1  25
TORSDOF 7
ENDMDL
MODEL 7
REMARK VINA RESULT:   -32.248      3.652      4.293
REMARK INTER + INTRA:         -34.307
REMARK INTER:                 -34.336
REMARK INTRA:                   0.029
REMARK CONF_INDEPENDENT:        2.088
REMARK UNBOUND:                 0.029
REMARK  7 active torsions:
REMARK  status: ('A' for Active; 'I' for Inactive)
REMARK    1  A    between atoms: O_2  and  C_3 
REMARK    2  A    between atoms: C_5  and  N_6 
REMARK       I    between atoms: N_6  and  C_7 
REMARK       I    between atoms: C_7  and  N_9 
REMARK    3  A    between atoms: N_9  and  C_10 
REMARK    4  A    between atoms: C_12  and  C_13 
REMARK    5  A    between atoms: C_13  and  S_14 
REMARK    6  A    between atoms: S_14  and  C_15 
REMARK    7  A    between atoms: C_26  and  O_27 
ROOT
ATOM      1  N   UNL d   1      30.540 -17.028   0.598  0.00  0.00    -0.192 N 
ATOM      2  C   UNL d   1      29.234 -16.758   0.075  0.00  0.00     0.691 C 
ATOM      3  N   UNL d   1      28.819 -15.482  -0.159  0.00  0.00    -0.234 N 
ATOM      4  N   UNL d   1      28.288 -17.732  -0.188  0.00  0.00    -0.021 N 
ATOM      5  H   UNL d   1      30.829 -18.002   0.603  0.00  0.00     0.184 HD
ATOM      6  H   UNL d   1      29.453 -14.716  -0.292  0.00  0.00     0.174 HD
ATOM      7  H   UNL d   1      27.871 -15.297  -0.473  0.00  0.00     0.174 HD
ATOM      8  H   UNL d   1      28.514 -18.699   0.003  0.00  0.00     0.203 HD
ENDROOT
BRANCH   4   9
ATOM      9  C   UNL d   1      26.990 -17.435  -0.719  0.00  0.00     0.722 A 
ATOM     10  N   UNL d   1      25.944 -18.079  -0.288  0.00  0.00    -0.068 NA
ATOM     11  C   UNL d   1      24.705 -17.770  -0.847  0.00  0.00     0.068 A 
ATOM     12  C   UNL d   1      24.613 -16.898  -1.864  0.00  0.00     0.103 A 
ATOM     13  C   UNL d   1      25.821 -16.275  -2.407  0.00  0.00     0.261 A 
ATOM     14  O   UNL d   1      25.785 -15.582  -3.404  0.00  0.00    -0.268 OA
ATOM     15  N   UNL d   1      26.974 -16.544  -1.734  0.00  0.00    -0.154 N 
ATOM     16  H   UNL d   1      27.806 -16.201  -2.190  0.00  0.00     0.187 HD
BRANCH  11  17
ATOM     17  C   UNL d   1      23.455 -18.491  -0.256  0.00  0.00     0.141 C 
BRANCH  17  18
ATOM     18  S   UNL d   1      21.896 -17.743  -0.848  0.00  0.00    -0.095 SA
BRANCH  18  19
ATOM     19  C   UNL d   1      20.621 -18.834  -0.414  0.00  0.00     0.159 A 
ATOM     20  N   UNL d   1      19.743 -19.303  -1.269  0.00  0.00    -0.135 NA
ATOM     21  N   UNL d   1      18.925 -20.263  -0.690  0.00  0.00    -0.146 NA
ATOM     22  C   UNL d   1      19.219 -20.476   0.577  0.00  0.00     0.096 A 
ATOM     23  C   UNL d   1      18.505 -21.417   1.480  0.00  0.00     0.081 C 
ATOM     24  S   UNL d   1      20.530 -19.531   1.154  0.00  0.00    -0.045 SA
ENDBRANCH  18  19
ENDBRANCH  17  18
ENDBRANCH  11  17
ENDBRANCH   4   9
BRANCH   1  25
ATOM     25  C   UNL d   1      31.595 -16.123   0.911  0.00  0.00     0.054 C 
ATOM     26  C   UNL d   1      31.389 -14.772   1.219  0.00  0.00     0.066 C 
ATOM     27  C   UNL d   1      32.434 -13.985   1.759  0.00  0.00     0.073 C 
ATOM     28  C   UNL d   1      33.686 -14.547   2.005  0.00  0.00     0.073 C 
ATOM     29  C   UNL d   1      33.926 -15.850   1.625  0.00  0.00     0.073 C 
ATOM     30  C   UNL d   1      32.920 -16.555   0.978  0.00  0.00     0.066 C 
BRANCH  27  31
ATOM     31  O   UNL d   1      32.108 -12.706   2.128  0.00  0.00    -0.356 OA
ATOM     32  C   UNL d   1      31.888 -12.490   3.524  0.00  0.00     0.210 C 
ENDBRANCH  27  31
BRANCH  29  33
ATOM     33  O   UNL d   1      35.065 -16.576   1.832  0.00  0.00    -0.356 OA
ATOM     34  C   UNL d   1      34.920 -17.739   2.637  0.00  0.00     0.210 C 
ENDBRANCH  29  33
ENDBRANCH   1  25
TORSDOF 7
ENDMDL
MODEL 8
REMARK VINA RESULT:   -32.197      4.925      6.609
REMARK INTER + INTRA:         -34.434
REMARK INTER:                 -34.285
REMARK INTRA:                  -0.149
REMARK CONF_INDEPENDENT:        2.088
REMARK UNBOUND:                -0.149
REMARK  7 active torsions:
REMARK  status: ('A' for Active; 'I' for Inactive)
REMARK    1  A    between atoms: O_2  and  C_3 
REMARK    2  A    between atoms: C_5  and  N_6 
REMARK       I    between atoms: N_6  and  C_7 
REMARK       I    between atoms: C_7  and  N_9 
REMARK    3  A    between atoms: N_9  and  C_10 
REMARK    4  A    between atoms: C_12  and  C_13 
REMARK    5  A    between atoms: C_13  and  S_14 
REMARK    6  A    between atoms: S_14  and  C_15 
REMARK    7  A    between atoms: C_26  and  O_27 
ROOT
ATOM      1  N   UNL d   1      30.620 -17.439  -0.023  0.00  0.00    -0.192 N 
ATOM      2  C   UNL d   1      29.286 -17.187  -0.481  0.00  0.00     0.691 C 
ATOM      3  N   UNL d   1      28.990 -17.162  -1.809  0.00  0.00    -0.234 N 
ATOM      4  N   UNL d   1      28.220 -16.910   0.356  0.00  0.00    -0.021 N 
ATOM      5  H   UNL d   1      30.731 -17.591   0.975  0.00  0.00     0.184 HD
ATOM      6  H   UNL d   1      29.557 -17.609  -2.505  0.00  0.00     0.174 HD
ATOM      7  H   UNL d   1      28.054 -16.923  -2.125  0.00  0.00     0.174 HD
ATOM      8  H   UNL d   1      28.377 -16.871   1.355  0.00  0.00     0.203 HD
ENDROOT
BRANCH   4   9
ATOM      9  C   UNL d   1      26.892 -16.669  -0.128  0.00  0.00     0.722 A 
ATOM     10  N   UNL d   1      25.926 -17.485   0.180  0.00  0.00    -0.068 NA
ATOM     11  C   UNL d   1      24.655 -17.222  -0.330  0.00  0.00     0.068 A 
ATOM     12  C   UNL d   1      24.461 -16.206  -1.188  0.00  0.00     0.103 A 
ATOM     13  C   UNL d   1      25.589 -15.376  -1.608  0.00  0.00     0.261 A 
ATOM     14  O   UNL d   1      25.469 -14.534  -2.476  0.00  0.00    -0.268 OA
ATOM     15  N   UNL d   1      26.771 -15.629  -0.981  0.00  0.00    -0.154 N 
ATOM     16  H   UNL d   1      27.556 -15.127  -1.366  0.00  0.00     0.187 HD
BRANCH  11  17
ATOM     17  C   UNL d   1      23.495 -18.160   0.123  0.00  0.00     0.141 C 
BRANCH  17  18
ATOM     18  S   UNL d   1      22.385 -18.588  -1.265  0.00  0.00    -0.095 SA
BRANCH  18  19
ATOM     19  C   UNL d   1      20.879 -19.085  -0.567  0.00  0.00     0.159 A 
ATOM     20  N   UNL d   1      19.797 -19.324  -1.269  0.00  0.00    -0.135 NA
ATOM     21  N   UNL d   1      18.779 -19.843  -0.481  0.00  0.00    -0.146 NA
ATOM     22  C   UNL d   1      19.135 -19.970   0.781  0.00  0.00     0.096 A 
ATOM     23  C   UNL d   1      18.260 -20.463   1.877  0.00  0.00     0.081 C 
ATOM     24  S   UNL d   1      20.749 -19.481   1.100  0.00  0.00    -0.045 SA
ENDBRANCH  18  19
ENDBRANCH  17  18
ENDBRANCH  11  17
ENDBRANCH   4   9
BRANCH   1  25
ATOM     25  C   UNL d   1      31.795 -17.731  -0.774  0.00  0.00     0.054 C 
ATOM     26  C   UNL d   1      31.813 -18.600  -1.873  0.00  0.00     0.066 C 
ATOM     27  C   UNL d   1      32.941 -18.664  -2.727  0.00  0.00     0.073 C 
ATOM     28  C   UNL d   1      34.050 -17.852  -2.492  0.00  0.00     0.073 C 
ATOM     29  C   UNL d   1      34.079 -17.059  -1.366  0.00  0.00     0.073 C 
ATOM     30  C   UNL d   1      33.012 -17.117  -0.479  0.00  0.00     0.066 C 
BRANCH  27  31
ATOM     31  O   UNL d   1      32.824 -19.462  -3.834  0.00  0.00    -0.356 OA
ATOM     32  C   UNL d   1      31.558 -19.437  -4.498  0.00  0.00     0.210 C 
ENDBRANCH  27  31
BRANCH  29  33
ATOM     33  O   UNL d   1      35.049 -16.168  -1.005  0.00  0.00    -0.356 OA
ATOM     34  C   UNL d   1      35.072 -15.798   0.368  0.00  0.00     0.210 C 
ENDBRANCH  29  33
ENDBRANCH   1  25
TORSDOF 7
ENDMDL
MODEL 9
REMARK VINA RESULT:   -32.100      4.763      5.883
REMARK INTER + INTRA:         -34.369
REMARK INTER:                 -34.188
REMARK INTRA:                  -0.181
REMARK CONF_INDEPENDENT:        2.088
REMARK UNBOUND:                -0.181
REMARK  7 active torsions:
REMARK  status: ('A' for Active; 'I' for Inactive)
REMARK    1  A    between atoms: O_2  and  C_3 
REMARK    2  A    between atoms: C_5  and  N_6 
REMARK       I    between atoms: N_6  and  C_7 
REMARK       I    between atoms: C_7  and  N_9 
REMARK    3  A    between atoms: N_9  and  C_10 
REMARK    4  A    between atoms: C_12  and  C_13 
REMARK    5  A    between atoms: C_13  and  S_14 
REMARK    6  A    between atoms: S_14  and  C_15 
REMARK    7  A    between atoms: C_26  and  O_27 
ROOT
ATOM      1  N   UNL d   1      30.421 -16.771   0.506  0.00  0.00    -0.192 N 
ATOM      2  C   UNL d   1      29.141 -16.788  -0.135  0.00  0.00     0.691 C 
ATOM      3  N   UNL d   1      29.013 -17.140  -1.445  0.00  0.00    -0.234 N 
ATOM      4  N   UNL d   1      27.959 -16.419   0.483  0.00  0.00    -0.021 N 
ATOM      5  H   UNL d   1      30.416 -16.646   1.514  0.00  0.00     0.184 HD
ATOM      6  H   UNL d   1      29.696 -17.689  -1.933  0.00  0.00     0.174 HD
ATOM      7  H   UNL d   1      28.110 -17.092  -1.907  0.00  0.00     0.174 HD
ATOM      8  H   UNL d   1      27.986 -16.106   1.444  0.00  0.00     0.203 HD
ENDROOT
BRANCH   4   9
ATOM      9  C   UNL d   1      26.689 -16.453  -0.181  0.00  0.00     0.722 A 
ATOM     10  N   UNL d   1      25.773 -17.294   0.204  0.00  0.00    -0.068 NA
ATOM     11  C   UNL d   1      24.560 -17.305  -0.484  0.00  0.00     0.068 A 
ATOM     12  C   UNL d   1      24.383 -16.533  -1.569  0.00  0.00     0.103 A 
ATOM     13  C   UNL d   1      25.473 -15.683  -2.049  0.00  0.00     0.261 A 
ATOM     14  O   UNL d   1      25.388 -15.072  -3.096  0.00  0.00    -0.268 OA
ATOM     15  N   UNL d   1      26.581 -15.647  -1.259  0.00  0.00    -0.154 N 
ATOM     16  H   UNL d   1      27.359 -15.149  -1.665  0.00  0.00     0.187 HD
BRANCH  11  17
ATOM     17  C   UNL d   1      23.446 -18.257   0.049  0.00  0.00     0.141 C 
BRANCH  17  18
ATOM     18  S   UNL d   1      22.371 -18.867  -1.298  0.00  0.00    -0.095 SA
BRANCH  18  19
ATOM     19  C   UNL d   1      20.836 -19.236  -0.585  0.00  0.00     0.159 A 
ATOM     20  N   UNL d   1      19.719 -19.324  -1.270  0.00  0.00    -0.135 NA
ATOM     21  N   UNL d   1      18.668 -19.770  -0.480  0.00  0.00    -0.146 NA
ATOM     22  C   UNL d   1      19.035 -19.997   0.765  0.00  0.00     0.096 A 
ATOM     23  C   UNL d   1      18.135 -20.448   1.859  0.00  0.00     0.081 C 
ATOM     24  S   UNL d   1      20.698 -19.698   1.064  0.00  0.00    -0.045 SA
ENDBRANCH  18  19
ENDBRANCH  17  18
ENDBRANCH  11  17
ENDBRANCH   4   9
BRANCH   1  25
ATOM     25  C   UNL d   1      31.700 -17.122  -0.014  0.00  0.00     0.054 C 
ATOM     26  C   UNL d   1      32.250 -16.544  -1.167  0.00  0.00     0.066 C 
ATOM     27  C   UNL d   1      33.612 -16.746  -1.497  0.00  0.00     0.073 C 
ATOM     28  C   UNL d   1      34.432 -17.515  -0.673  0.00  0.00     0.073 C 
ATOM     29  C   UNL d   1      33.882 -18.159   0.414  0.00  0.00     0.073 C 
ATOM     30  C   UNL d   1      32.516 -18.047   0.637  0.00  0.00     0.066 C 
BRANCH  27  31
ATOM     31  O   UNL d   1      34.086 -16.055  -2.581  0.00  0.00    -0.356 OA
ATOM     32  C   UNL d   1      34.791 -16.824  -3.560  0.00  0.00     0.210 C 
ENDBRANCH  27  31
BRANCH  29  33
ATOM     33  O   UNL d   1      34.535 -18.905   1.353  0.00  0.00    -0.356 OA
ATOM     34  C   UNL d   1      33.956 -18.913   2.651  0.00  0.00     0.210 C 
ENDBRANCH  29  33
ENDBRANCH   1  25
TORSDOF 7
ENDMDL
