MODEL 1
REMARK VINA RESULT:    -7.888      0.000      0.000
REMARK INTER + INTRA:         -12.331
REMARK INTER:                 -10.871
REMARK INTRA:                  -1.460
REMARK CONF_INDEPENDENT:        2.983
REMARK UNBOUND:                -1.460
REMARK  10 active torsions:
REMARK  status: ('A' for Active; 'I' for Inactive)
REMARK    1  A    between atoms: C_2  and  C_3 
REMARK    2  A    between atoms: C_3  and  C_4 
REMARK    3  A    between atoms: C_4  and  O_5 
REMARK    4  A    between atoms: O_5  and  C_6 
REMARK    5  A    between atoms: C_9  and  C_10 
REMARK       I    between atoms: C_10  and  N_12 
REMARK    6  A    between atoms: N_12  and  N_13 
REMARK       I    between atoms: N_13  and  C_14 
REMARK    7  A    between atoms: C_14  and  C_16 
REMARK    8  A    between atoms: C_20  and  S_21 
REMARK    9  A    between atoms: S_21  and  N_22 
REMARK   10  A    between atoms: C_31  and  O_32 
ROOT
ATOM      1  N   UNL d   1      29.207 -14.075   5.019  0.00  0.00    -0.263 N 
ATOM      2  C   UNL d   1      28.236 -13.598   5.929  0.00  0.00     0.270 C 
ATOM      3  O   UNL d   1      27.035 -13.592   5.675  0.00  0.00    -0.266 OA
ATOM      4  H   UNL d   1      30.211 -14.088   5.200  0.00  0.00     0.190 HD
ENDROOT
BRANCH   1   5
ATOM      5  N   UNL d   1      28.818 -14.591   3.737  0.00  0.00    -0.263 N 
ATOM      6  C   UNL d   1      28.126 -13.780   2.823  0.00  0.00     0.270 C 
ATOM      7  O   UNL d   1      27.821 -12.618   3.089  0.00  0.00    -0.266 OA
ATOM      8  H   UNL d   1      29.062 -15.562   3.576  0.00  0.00     0.190 HD
BRANCH   6   9
ATOM      9  C   UNL d   1      27.716 -14.371   1.484  0.00  0.00     0.036 A 
ATOM     10  C   UNL d   1      27.269 -13.554   0.434  0.00  0.00     0.020 A 
ATOM     11  C   UNL d   1      26.768 -14.113  -0.770  0.00  0.00     0.040 A 
ATOM     12  C   UNL d   1      26.772 -15.503  -1.017  0.00  0.00     0.102 A 
ATOM     13  C   UNL d   1      27.293 -16.322   0.017  0.00  0.00     0.102 A 
ATOM     14  C   UNL d   1      27.733 -15.740   1.237  0.00  0.00     0.056 A 
BRANCH  12  15
ATOM     15  O   UNL d   1      26.445 -15.802  -2.334  0.00  0.00    -0.348 OA
BRANCH  15  16
ATOM     16  C   UNL d   1      25.159 -16.340  -2.622  0.00  0.00     0.176 C 
BRANCH  16  17
ATOM     17  C   UNL d   1      24.160 -16.471  -1.485  0.00  0.00     0.026 C 
BRANCH  17  18
ATOM     18  C   UNL d   1      23.891 -17.983  -1.239  0.00  0.00    -0.002 C 
ATOM     19  C   UNL d   1      22.491 -18.162  -0.707  0.00  0.00     0.005 C 
ENDBRANCH  17  18
ENDBRANCH  16  17
ENDBRANCH  15  16
ENDBRANCH  12  15
BRANCH  13  20
ATOM     20  O   UNL d   1      27.555 -17.673   0.116  0.00  0.00    -0.353 OA
ATOM     21  C   UNL d   1      26.670 -18.417   0.887  0.00  0.00     0.210 C 
ENDBRANCH  13  20
ENDBRANCH   6   9
ENDBRANCH   1   5
BRANCH   2  22
ATOM     22  C   UNL d   1      28.743 -12.955   7.213  0.00  0.00     0.035 A 
ATOM     23  C   UNL d   1      29.105 -11.503   7.405  0.00  0.00     0.024 A 
ATOM     24  C   UNL d   1      29.679 -11.109   8.632  0.00  0.00    -0.049 A 
ATOM     25  C   UNL d   1      29.768 -12.223   9.481  0.00  0.00    -0.029 A 
ATOM     26  C   UNL d   1      30.393  -9.730   9.565  0.00  0.00     0.039 C 
ATOM     27  C   UNL d   1      29.555 -13.552   9.377  0.00  0.00     0.087 A 
ATOM     28  C   UNL d   1      30.204 -11.698  10.683  0.00  0.00     0.041 C 
ATOM     29  C   UNL d   1      29.002 -13.941   8.208  0.00  0.00     0.042 A 
ATOM     30  C   UNL d   1      30.409 -11.439  12.043  0.00  0.00     0.005 C 
ATOM     31  C   UNL d   1      30.792  -9.987  11.452  0.00  0.00     0.005 C 
BRANCH  27  32
ATOM     32  S   UNL d   1      30.119 -14.593  10.698  0.00  0.00     0.257 S 
ATOM     33  O   UNL d   1      31.546 -14.301  10.911  0.00  0.00    -0.201 OA
ATOM     34  O   UNL d   1      29.170 -14.513  11.736  0.00  0.00    -0.201 OA
BRANCH  32  35
ATOM     35  N   UNL d   1      29.996 -16.151  10.032  0.00  0.00    -0.324 N 
ATOM     36  H   UNL d   1      30.780 -16.617   9.581  0.00  0.00     0.169 HD
ATOM     37  H   UNL d   1      29.093 -16.337   9.604  0.00  0.00     0.169 HD
ENDBRANCH  32  35
ENDBRANCH  27  32
ENDBRANCH   2  22
TORSDOF 10
ENDMDL
MODEL 2
REMARK VINA RESULT:    -7.643      8.872     12.844
REMARK INTER + INTRA:         -12.328
REMARK INTER:                 -10.626
REMARK INTRA:                  -1.702
REMARK CONF_INDEPENDENT:        2.983
REMARK UNBOUND:                -1.702
REMARK  10 active torsions:
REMARK  status: ('A' for Active; 'I' for Inactive)
REMARK    1  A    between atoms: C_2  and  C_3 
REMARK    2  A    between atoms: C_3  and  C_4 
REMARK    3  A    between atoms: C_4  and  O_5 
REMARK    4  A    between atoms: O_5  and  C_6 
REMARK    5  A    between atoms: C_9  and  C_10 
REMARK       I    between atoms: C_10  and  N_12 
REMARK    6  A    between atoms: N_12  and  N_13 
REMARK       I    between atoms: N_13  and  C_14 
REMARK    7  A    between atoms: C_14  and  C_16 
REMARK    8  A    between atoms: C_20  and  S_21 
REMARK    9  A    between atoms: S_21  and  N_22 
REMARK   10  A    between atoms: C_31  and  O_32 
ROOT
ATOM      1  N   UNL d   1      25.691 -11.719  -4.351  0.00  0.00    -0.263 N 
ATOM      2  C   UNL d   1      25.717 -10.364  -3.947  0.00  0.00     0.270 C 
ATOM      3  O   UNL d   1      25.626 -10.020  -2.773  0.00  0.00    -0.266 OA
ATOM      4  H   UNL d   1      25.760 -12.034  -5.319  0.00  0.00     0.190 HD
ENDROOT
BRANCH   1   5
ATOM      5  N   UNL d   1      25.563 -12.768  -3.381  0.00  0.00    -0.263 N 
ATOM      6  C   UNL d   1      25.299 -14.086  -3.787  0.00  0.00     0.270 C 
ATOM      7  O   UNL d   1      25.156 -14.382  -4.974  0.00  0.00    -0.266 OA
ATOM      8  H   UNL d   1      25.657 -12.470  -2.415  0.00  0.00     0.190 HD
BRANCH   6   9
ATOM      9  C   UNL d   1      25.152 -15.165  -2.727  0.00  0.00     0.036 A 
ATOM     10  C   UNL d   1      23.920 -15.408  -2.100  0.00  0.00     0.020 A 
ATOM     11  C   UNL d   1      23.811 -16.327  -1.025  0.00  0.00     0.040 A 
ATOM     12  C   UNL d   1      24.903 -17.108  -0.585  0.00  0.00     0.102 A 
ATOM     13  C   UNL d   1      26.129 -16.914  -1.269  0.00  0.00     0.102 A 
ATOM     14  C   UNL d   1      26.225 -15.944  -2.304  0.00  0.00     0.056 A 
BRANCH  12  15
ATOM     15  O   UNL d   1      24.514 -18.087   0.322  0.00  0.00    -0.348 OA
BRANCH  15  16
ATOM     16  C   UNL d   1      23.761 -19.201  -0.145  0.00  0.00     0.176 C 
BRANCH  16  17
ATOM     17  C   UNL d   1      22.477 -18.935  -0.911  0.00  0.00     0.026 C 
BRANCH  17  18
ATOM     18  C   UNL d   1      21.278 -19.097   0.067  0.00  0.00    -0.002 C 
ATOM     19  C   UNL d   1      20.107 -19.695  -0.672  0.00  0.00     0.005 C 
ENDBRANCH  17  18
ENDBRANCH  16  17
ENDBRANCH  15  16
ENDBRANCH  12  15
BRANCH  13  20
ATOM     20  O   UNL d   1      27.358 -17.538  -1.209  0.00  0.00    -0.353 OA
ATOM     21  C   UNL d   1      28.179 -17.180  -0.146  0.00  0.00     0.210 C 
ENDBRANCH  13  20
ENDBRANCH   6   9
ENDBRANCH   1   5
BRANCH   2  22
ATOM     22  C   UNL d   1      25.731  -9.311  -5.049  0.00  0.00     0.035 A 
ATOM     23  C   UNL d   1      26.936  -8.839  -5.823  0.00  0.00     0.024 A 
ATOM     24  C   UNL d   1      26.780  -7.764  -6.722  0.00  0.00    -0.049 A 
ATOM     25  C   UNL d   1      25.438  -7.355  -6.728  0.00  0.00    -0.029 A 
ATOM     26  C   UNL d   1      27.631  -6.651  -7.871  0.00  0.00     0.039 C 
ATOM     27  C   UNL d   1      24.323  -7.649  -6.026  0.00  0.00     0.087 A 
ATOM     28  C   UNL d   1      25.377  -6.409  -7.733  0.00  0.00     0.041 C 
ATOM     29  C   UNL d   1      24.458  -8.680  -5.164  0.00  0.00     0.042 A 
ATOM     30  C   UNL d   1      24.965  -5.609  -8.806  0.00  0.00     0.005 C 
ATOM     31  C   UNL d   1      26.562  -5.467  -8.986  0.00  0.00     0.005 C 
BRANCH  27  32
ATOM     32  S   UNL d   1      22.905  -6.603  -6.235  0.00  0.00     0.257 S 
ATOM     33  O   UNL d   1      23.274  -5.260  -5.759  0.00  0.00    -0.201 OA
ATOM     34  O   UNL d   1      22.396  -6.831  -7.529  0.00  0.00    -0.201 OA
BRANCH  32  35
ATOM     35  N   UNL d   1      21.785  -7.259  -5.139  0.00  0.00    -0.324 N 
ATOM     36  H   UNL d   1      21.138  -8.002  -5.395  0.00  0.00     0.169 HD
ATOM     37  H   UNL d   1      21.404  -6.573  -4.493  0.00  0.00     0.169 HD
ENDBRANCH  32  35
ENDBRANCH  27  32
ENDBRANCH   2  22
TORSDOF 10
ENDMDL
MODEL 3
REMARK VINA RESULT:    -7.612      2.655      3.813
REMARK INTER + INTRA:         -11.744
REMARK INTER:                 -10.595
REMARK INTRA:                  -1.149
REMARK CONF_INDEPENDENT:        2.983
REMARK UNBOUND:                -1.149
REMARK  10 active torsions:
REMARK  status: ('A' for Active; 'I' for Inactive)
REMARK    1  A    between atoms: C_2  and  C_3 
REMARK    2  A    between atoms: C_3  and  C_4 
REMARK    3  A    between atoms: C_4  and  O_5 
REMARK    4  A    between atoms: O_5  and  C_6 
REMARK    5  A    between atoms: C_9  and  C_10 
REMARK       I    between atoms: C_10  and  N_12 
REMARK    6  A    between atoms: N_12  and  N_13 
REMARK       I    between atoms: N_13  and  C_14 
REMARK    7  A    between atoms: C_14  and  C_16 
REMARK    8  A    between atoms: C_20  and  S_21 
REMARK    9  A    between atoms: S_21  and  N_22 
REMARK   10  A    between atoms: C_31  and  O_32 
ROOT
ATOM      1  N   UNL d   1      28.508 -14.712   3.329  0.00  0.00    -0.263 N 
ATOM      2  C   UNL d   1      27.837 -13.918   4.288  0.00  0.00     0.270 C 
ATOM      3  O   UNL d   1      26.742 -13.408   4.077  0.00  0.00    -0.266 OA
ATOM      4  H   UNL d   1      29.420 -15.145   3.475  0.00  0.00     0.190 HD
ENDROOT
BRANCH   1   5
ATOM      5  N   UNL d   1      27.916 -14.966   2.046  0.00  0.00    -0.263 N 
ATOM      6  C   UNL d   1      27.424 -13.907   1.267  0.00  0.00     0.270 C 
ATOM      7  O   UNL d   1      27.470 -12.740   1.656  0.00  0.00    -0.266 OA
ATOM      8  H   UNL d   1      27.872 -15.945   1.783  0.00  0.00     0.190 HD
BRANCH   6   9
ATOM      9  C   UNL d   1      26.787 -14.220  -0.077  0.00  0.00     0.036 A 
ATOM     10  C   UNL d   1      26.664 -13.237  -1.071  0.00  0.00     0.020 A 
ATOM     11  C   UNL d   1      25.960 -13.494  -2.276  0.00  0.00     0.040 A 
ATOM     12  C   UNL d   1      25.424 -14.764  -2.581  0.00  0.00     0.102 A 
ATOM     13  C   UNL d   1      25.614 -15.776  -1.606  0.00  0.00     0.102 A 
ATOM     14  C   UNL d   1      26.272 -15.476  -0.382  0.00  0.00     0.056 A 
BRANCH  12  15
ATOM     15  O   UNL d   1      24.976 -14.842  -3.895  0.00  0.00    -0.348 OA
BRANCH  15  16
ATOM     16  C   UNL d   1      25.925 -15.043  -4.937  0.00  0.00     0.176 C 
BRANCH  16  17
ATOM     17  C   UNL d   1      27.387 -15.207  -4.561  0.00  0.00     0.026 C 
BRANCH  17  18
ATOM     18  C   UNL d   1      28.258 -14.767  -5.772  0.00  0.00    -0.002 C 
ATOM     19  C   UNL d   1      29.427 -15.710  -5.916  0.00  0.00     0.005 C 
ENDBRANCH  17  18
ENDBRANCH  16  17
ENDBRANCH  15  16
ENDBRANCH  12  15
BRANCH  13  20
ATOM     20  O   UNL d   1      25.339 -17.127  -1.576  0.00  0.00    -0.353 OA
ATOM     21  C   UNL d   1      24.026 -17.484  -1.293  0.00  0.00     0.210 C 
ENDBRANCH  13  20
ENDBRANCH   6   9
ENDBRANCH   1   5
BRANCH   2  22
ATOM     22  C   UNL d   1      28.590 -13.598   5.573  0.00  0.00     0.035 A 
ATOM     23  C   UNL d   1      28.933 -14.567   6.676  0.00  0.00     0.024 A 
ATOM     24  C   UNL d   1      29.526 -14.065   7.853  0.00  0.00    -0.049 A 
ATOM     25  C   UNL d   1      29.712 -12.680   7.725  0.00  0.00    -0.029 A 
ATOM     26  C   UNL d   1      30.128 -14.483   9.511  0.00  0.00     0.039 C 
ATOM     27  C   UNL d   1      29.370 -11.726   6.833  0.00  0.00     0.087 A 
ATOM     28  C   UNL d   1      30.418 -12.327   8.859  0.00  0.00     0.041 C 
ATOM     29  C   UNL d   1      28.805 -12.195   5.700  0.00  0.00     0.042 A 
ATOM     30  C   UNL d   1      31.303 -11.723   9.760  0.00  0.00     0.005 C 
ATOM     31  C   UNL d   1      31.092 -13.129  10.522  0.00  0.00     0.005 C 
BRANCH  27  32
ATOM     32  S   UNL d   1      29.594 -10.029   7.300  0.00  0.00     0.257 S 
ATOM     33  O   UNL d   1      31.041  -9.796   7.436  0.00  0.00    -0.201 OA
ATOM     34  O   UNL d   1      28.780  -9.246   6.458  0.00  0.00    -0.201 OA
BRANCH  32  35
ATOM     35  N   UNL d   1      28.905  -9.969   8.852  0.00  0.00    -0.324 N 
ATOM     36  H   UNL d   1      29.401  -9.591   9.656  0.00  0.00     0.169 HD
ATOM     37  H   UNL d   1      28.309 -10.765   9.060  0.00  0.00     0.169 HD
ENDBRANCH  32  35
ENDBRANCH  27  32
ENDBRANCH   2  22
TORSDOF 10
ENDMDL
MODEL 4
REMARK VINA RESULT:    -7.585      1.197      1.934
REMARK INTER + INTRA:         -12.476
REMARK INTER:                 -10.568
REMARK INTRA:                  -1.909
REMARK CONF_INDEPENDENT:        2.983
REMARK UNBOUND:                -1.909
REMARK  10 active torsions:
REMARK  status: ('A' for Active; 'I' for Inactive)
REMARK    1  A    between atoms: C_2  and  C_3 
REMARK    2  A    between atoms: C_3  and  C_4 
REMARK    3  A    between atoms: C_4  and  O_5 
REMARK    4  A    between atoms: O_5  and  C_6 
REMARK    5  A    between atoms: C_9  and  C_10 
REMARK       I    between atoms: C_10  and  N_12 
REMARK    6  A    between atoms: N_12  and  N_13 
REMARK       I    between atoms: N_13  and  C_14 
REMARK    7  A    between atoms: C_14  and  C_16 
REMARK    8  A    between atoms: C_20  and  S_21 
REMARK    9  A    between atoms: S_21  and  N_22 
REMARK   10  A    between atoms: C_31  and  O_32 
ROOT
ATOM      1  N   UNL d   1      28.718 -13.720   4.462  0.00  0.00    -0.263 N 
ATOM      2  C   UNL d   1      28.658 -14.257   5.769  0.00  0.00     0.270 C 
ATOM      3  O   UNL d   1      28.155 -15.349   6.015  0.00  0.00    -0.266 OA
ATOM      4  H   UNL d   1      29.125 -12.814   4.229  0.00  0.00     0.190 HD
ENDROOT
BRANCH   1   5
ATOM      5  N   UNL d   1      28.191 -14.452   3.346  0.00  0.00    -0.263 N 
ATOM      6  C   UNL d   1      27.848 -13.789   2.157  0.00  0.00     0.270 C 
ATOM      7  O   UNL d   1      27.973 -12.570   2.035  0.00  0.00    -0.266 OA
ATOM      8  H   UNL d   1      28.076 -15.448   3.505  0.00  0.00     0.190 HD
BRANCH   6   9
ATOM      9  C   UNL d   1      27.276 -14.598   1.004  0.00  0.00     0.036 A 
ATOM     10  C   UNL d   1      27.371 -15.998   0.979  0.00  0.00     0.020 A 
ATOM     11  C   UNL d   1      26.950 -16.743  -0.153  0.00  0.00     0.040 A 
ATOM     12  C   UNL d   1      26.335 -16.137  -1.270  0.00  0.00     0.102 A 
ATOM     13  C   UNL d   1      26.172 -14.729  -1.210  0.00  0.00     0.102 A 
ATOM     14  C   UNL d   1      26.657 -14.001  -0.090  0.00  0.00     0.056 A 
BRANCH  12  15
ATOM     15  O   UNL d   1      25.810 -17.075  -2.151  0.00  0.00    -0.348 OA
BRANCH  15  16
ATOM     16  C   UNL d   1      24.446 -17.459  -2.020  0.00  0.00     0.176 C 
BRANCH  16  17
ATOM     17  C   UNL d   1      23.729 -17.143  -0.719  0.00  0.00     0.026 C 
BRANCH  17  18
ATOM     18  C   UNL d   1      23.122 -18.461  -0.160  0.00  0.00    -0.002 C 
ATOM     19  C   UNL d   1      21.689 -18.584  -0.615  0.00  0.00     0.005 C 
ENDBRANCH  17  18
ENDBRANCH  16  17
ENDBRANCH  15  16
ENDBRANCH  12  15
BRANCH  13  20
ATOM     20  O   UNL d   1      25.547 -13.812  -2.027  0.00  0.00    -0.353 OA
ATOM     21  C   UNL d   1      25.617 -14.055  -3.394  0.00  0.00     0.210 C 
ENDBRANCH  13  20
ENDBRANCH   6   9
ENDBRANCH   1   5
BRANCH   2  22
ATOM     22  C   UNL d   1      29.127 -13.363   6.909  0.00  0.00     0.035 A 
ATOM     23  C   UNL d   1      29.008 -11.861   6.977  0.00  0.00     0.024 A 
ATOM     24  C   UNL d   1      29.612 -11.186   8.058  0.00  0.00    -0.049 A 
ATOM     25  C   UNL d   1      30.209 -12.123   8.915  0.00  0.00    -0.029 A 
ATOM     26  C   UNL d   1      29.968  -9.566   8.789  0.00  0.00     0.039 C 
ATOM     27  C   UNL d   1      30.439 -13.453   8.901  0.00  0.00     0.087 A 
ATOM     28  C   UNL d   1      30.637 -11.371   9.993  0.00  0.00     0.041 C 
ATOM     29  C   UNL d   1      29.863 -14.111   7.873  0.00  0.00     0.042 A 
ATOM     30  C   UNL d   1      30.968 -10.930  11.280  0.00  0.00     0.005 C 
ATOM     31  C   UNL d   1      30.738  -9.497  10.575  0.00  0.00     0.005 C 
BRANCH  27  32
ATOM     32  S   UNL d   1      31.531 -14.123  10.129  0.00  0.00     0.257 S 
ATOM     33  O   UNL d   1      32.858 -13.526   9.912  0.00  0.00    -0.201 OA
ATOM     34  O   UNL d   1      30.867 -14.055  11.370  0.00  0.00    -0.201 OA
BRANCH  32  35
ATOM     35  N   UNL d   1      31.618 -15.766   9.703  0.00  0.00    -0.324 N 
ATOM     36  H   UNL d   1      32.456 -16.325   9.850  0.00  0.00     0.169 HD
ATOM     37  H   UNL d   1      31.105 -15.991   8.855  0.00  0.00     0.169 HD
ENDBRANCH  32  35
ENDBRANCH  27  32
ENDBRANCH   2  22
TORSDOF 10
ENDMDL
MODEL 5
REMARK VINA RESULT:    -7.529      1.945      2.942
REMARK INTER + INTRA:         -12.284
REMARK INTER:                 -10.512
REMARK INTRA:                  -1.772
REMARK CONF_INDEPENDENT:        2.983
REMARK UNBOUND:                -1.772
REMARK  10 active torsions:
REMARK  status: ('A' for Active; 'I' for Inactive)
REMARK    1  A    between atoms: C_2  and  C_3 
REMARK    2  A    between atoms: C_3  and  C_4 
REMARK    3  A    between atoms: C_4  and  O_5 
REMARK    4  A    between atoms: O_5  and  C_6 
REMARK    5  A    between atoms: C_9  and  C_10 
REMARK       I    between atoms: C_10  and  N_12 
REMARK    6  A    between atoms: N_12  and  N_13 
REMARK       I    between atoms: N_13  and  C_14 
REMARK    7  A    between atoms: C_14  and  C_16 
REMARK    8  A    between atoms: C_20  and  S_21 
REMARK    9  A    between atoms: S_21  and  N_22 
REMARK   10  A    between atoms: C_31  and  O_32 
ROOT
ATOM      1  N   UNL d   1      28.636 -14.442   3.288  0.00  0.00    -0.263 N 
ATOM      2  C   UNL d   1      28.604 -14.657   4.685  0.00  0.00     0.270 C 
ATOM      3  O   UNL d   1      27.853 -15.471   5.214  0.00  0.00    -0.266 OA
ATOM      4  H   UNL d   1      29.246 -13.771   2.821  0.00  0.00     0.190 HD
ENDROOT
BRANCH   1   5
ATOM      5  N   UNL d   1      27.779 -15.190   2.413  0.00  0.00    -0.263 N 
ATOM      6  C   UNL d   1      27.487 -14.715   1.124  0.00  0.00     0.270 C 
ATOM      7  O   UNL d   1      27.939 -13.648   0.709  0.00  0.00    -0.266 OA
ATOM      8  H   UNL d   1      27.406 -16.046   2.810  0.00  0.00     0.190 HD
BRANCH   6   9
ATOM      9  C   UNL d   1      26.560 -15.528   0.235  0.00  0.00     0.036 A 
ATOM     10  C   UNL d   1      26.287 -16.877   0.509  0.00  0.00     0.020 A 
ATOM     11  C   UNL d   1      25.524 -17.669  -0.388  0.00  0.00     0.040 A 
ATOM     12  C   UNL d   1      24.926 -17.132  -1.549  0.00  0.00     0.102 A 
ATOM     13  C   UNL d   1      25.142 -15.750  -1.784  0.00  0.00     0.102 A 
ATOM     14  C   UNL d   1      25.960 -14.994  -0.901  0.00  0.00     0.056 A 
BRANCH  12  15
ATOM     15  O   UNL d   1      24.051 -18.029  -2.151  0.00  0.00    -0.348 OA
BRANCH  15  16
ATOM     16  C   UNL d   1      23.203 -18.824  -1.329  0.00  0.00     0.176 C 
BRANCH  16  17
ATOM     17  C   UNL d   1      21.931 -18.198  -0.786  0.00  0.00     0.026 C 
BRANCH  17  18
ATOM     18  C   UNL d   1      20.728 -19.097  -1.192  0.00  0.00    -0.002 C 
ATOM     19  C   UNL d   1      20.139 -19.732   0.042  0.00  0.00     0.005 C 
ENDBRANCH  17  18
ENDBRANCH  16  17
ENDBRANCH  15  16
ENDBRANCH  12  15
BRANCH  13  20
ATOM     20  O   UNL d   1      24.658 -14.861  -2.720  0.00  0.00    -0.353 OA
ATOM     21  C   UNL d   1      25.522 -13.842  -3.106  0.00  0.00     0.210 C 
ENDBRANCH  13  20
ENDBRANCH   6   9
ENDBRANCH   1   5
BRANCH   2  22
ATOM     22  C   UNL d   1      29.455 -13.736   5.549  0.00  0.00     0.035 A 
ATOM     23  C   UNL d   1      30.349 -12.623   5.062  0.00  0.00     0.024 A 
ATOM     24  C   UNL d   1      31.161 -11.952   5.999  0.00  0.00    -0.049 A 
ATOM     25  C   UNL d   1      30.925 -12.479   7.279  0.00  0.00    -0.029 A 
ATOM     26  C   UNL d   1      32.436 -10.684   6.225  0.00  0.00     0.039 C 
ATOM     27  C   UNL d   1      30.224 -13.509   7.798  0.00  0.00     0.087 A 
ATOM     28  C   UNL d   1      31.657 -11.663   8.120  0.00  0.00     0.041 C 
ATOM     29  C   UNL d   1      29.439 -14.157   6.910  0.00  0.00     0.042 A 
ATOM     30  C   UNL d   1      32.095 -10.899   9.209  0.00  0.00     0.005 C 
ATOM     31  C   UNL d   1      32.920 -10.160   8.036  0.00  0.00     0.005 C 
BRANCH  27  32
ATOM     32  S   UNL d   1      30.505 -13.938   9.496  0.00  0.00     0.257 S 
ATOM     33  O   UNL d   1      31.960 -14.055   9.686  0.00  0.00    -0.201 OA
ATOM     34  O   UNL d   1      29.708 -13.086  10.286  0.00  0.00    -0.201 OA
BRANCH  32  35
ATOM     35  N   UNL d   1      29.834 -15.494   9.611  0.00  0.00    -0.324 N 
ATOM     36  H   UNL d   1      30.398 -16.339   9.550  0.00  0.00     0.169 HD
ATOM     37  H   UNL d   1      28.915 -15.570   9.185  0.00  0.00     0.169 HD
ENDBRANCH  32  35
ENDBRANCH  27  32
ENDBRANCH   2  22
TORSDOF 10
ENDMDL
MODEL 6
REMARK VINA RESULT:    -7.515      8.728     12.456
REMARK INTER + INTRA:         -12.239
REMARK INTER:                 -10.498
REMARK INTRA:                  -1.742
REMARK CONF_INDEPENDENT:        2.983
REMARK UNBOUND:                -1.742
REMARK  10 active torsions:
REMARK  status: ('A' for Active; 'I' for Inactive)
REMARK    1  A    between atoms: C_2  and  C_3 
REMARK    2  A    between atoms: C_3  and  C_4 
REMARK    3  A    between atoms: C_4  and  O_5 
REMARK    4  A    between atoms: O_5  and  C_6 
REMARK    5  A    between atoms: C_9  and  C_10 
REMARK       I    between atoms: C_10  and  N_12 
REMARK    6  A    between atoms: N_12  and  N_13 
REMARK       I    between atoms: N_13  and  C_14 
REMARK    7  A    between atoms: C_14  and  C_16 
REMARK    8  A    between atoms: C_20  and  S_21 
REMARK    9  A    between atoms: S_21  and  N_22 
REMARK   10  A    between atoms: C_31  and  O_32 
ROOT
ATOM      1  N   UNL d   1      27.534 -14.401  -4.253  0.00  0.00    -0.263 N 
ATOM      2  C   UNL d   1      27.674 -14.515  -5.656  0.00  0.00     0.270 C 
ATOM      3  O   UNL d   1      27.026 -15.315  -6.324  0.00  0.00    -0.266 OA
ATOM      4  H   UNL d   1      28.061 -13.749  -3.672  0.00  0.00     0.190 HD
ENDROOT
BRANCH   1   5
ATOM      5  N   UNL d   1      26.602 -15.228  -3.541  0.00  0.00    -0.263 N 
ATOM      6  C   UNL d   1      26.351 -15.007  -2.178  0.00  0.00     0.270 C 
ATOM      7  O   UNL d   1      26.923 -14.117  -1.549  0.00  0.00    -0.266 OA
ATOM      8  H   UNL d   1      26.180 -15.967  -4.093  0.00  0.00     0.190 HD
BRANCH   6   9
ATOM      9  C   UNL d   1      25.369 -15.917  -1.456  0.00  0.00     0.036 A 
ATOM     10  C   UNL d   1      23.986 -15.810  -1.667  0.00  0.00     0.020 A 
ATOM     11  C   UNL d   1      23.065 -16.572  -0.902  0.00  0.00     0.040 A 
ATOM     12  C   UNL d   1      23.482 -17.536   0.041  0.00  0.00     0.102 A 
ATOM     13  C   UNL d   1      24.883 -17.695   0.199  0.00  0.00     0.102 A 
ATOM     14  C   UNL d   1      25.782 -16.877  -0.537  0.00  0.00     0.056 A 
BRANCH  12  15
ATOM     15  O   UNL d   1      22.423 -18.308   0.504  0.00  0.00    -0.348 OA
BRANCH  15  16
ATOM     16  C   UNL d   1      21.875 -19.310  -0.346  0.00  0.00     0.176 C 
BRANCH  16  17
ATOM     17  C   UNL d   1      20.436 -19.157  -0.808  0.00  0.00     0.026 C 
BRANCH  17  18
ATOM     18  C   UNL d   1      19.548 -20.125   0.025  0.00  0.00    -0.002 C 
ATOM     19  C   UNL d   1      19.883 -19.977   1.489  0.00  0.00     0.005 C 
ENDBRANCH  17  18
ENDBRANCH  16  17
ENDBRANCH  15  16
ENDBRANCH  12  15
BRANCH  13  20
ATOM     20  O   UNL d   1      25.661 -18.575   0.921  0.00  0.00    -0.353 OA
ATOM     21  C   UNL d   1      27.034 -18.497   0.712  0.00  0.00     0.210 C 
ENDBRANCH  13  20
ENDBRANCH   6   9
ENDBRANCH   1   5
BRANCH   2  22
ATOM     22  C   UNL d   1      28.772 -13.690  -6.314  0.00  0.00     0.035 A 
ATOM     23  C   UNL d   1      28.654 -12.266  -6.797  0.00  0.00     0.024 A 
ATOM     24  C   UNL d   1      29.740 -11.701  -7.497  0.00  0.00    -0.049 A 
ATOM     25  C   UNL d   1      30.782 -12.638  -7.573  0.00  0.00    -0.029 A 
ATOM     26  C   UNL d   1      30.338 -10.239  -8.387  0.00  0.00     0.039 C 
ATOM     27  C   UNL d   1      30.952 -13.938  -7.254  0.00  0.00     0.087 A 
ATOM     28  C   UNL d   1      31.827 -11.937  -8.144  0.00  0.00     0.041 C 
ATOM     29  C   UNL d   1      29.920 -14.490  -6.579  0.00  0.00     0.042 A 
ATOM     30  C   UNL d   1      33.095 -11.446  -8.479  0.00  0.00     0.005 C 
ATOM     31  C   UNL d   1      32.209 -10.171  -8.919  0.00  0.00     0.005 C 
BRANCH  27  32
ATOM     32  S   UNL d   1      32.410 -14.758  -7.845  0.00  0.00     0.257 S 
ATOM     33  O   UNL d   1      33.570 -14.097  -7.225  0.00  0.00    -0.201 OA
ATOM     34  O   UNL d   1      32.189 -16.146  -7.740  0.00  0.00    -0.201 OA
BRANCH  32  35
ATOM     35  N   UNL d   1      32.413 -14.380  -9.501  0.00  0.00    -0.324 N 
ATOM     36  H   UNL d   1      33.213 -13.952  -9.963  0.00  0.00     0.169 HD
ATOM     37  H   UNL d   1      31.510 -14.065  -9.845  0.00  0.00     0.169 HD
ENDBRANCH  32  35
ENDBRANCH  27  32
ENDBRANCH   2  22
TORSDOF 10
ENDMDL
MODEL 7
REMARK VINA RESULT:    -7.442      1.553      2.274
REMARK INTER + INTRA:         -12.148
REMARK INTER:                 -10.425
REMARK INTRA:                  -1.723
REMARK CONF_INDEPENDENT:        2.983
REMARK UNBOUND:                -1.723
REMARK  10 active torsions:
REMARK  status: ('A' for Active; 'I' for Inactive)
REMARK    1  A    between atoms: C_2  and  C_3 
REMARK    2  A    between atoms: C_3  and  C_4 
REMARK    3  A    between atoms: C_4  and  O_5 
REMARK    4  A    between atoms: O_5  and  C_6 
REMARK    5  A    between atoms: C_9  and  C_10 
REMARK       I    between atoms: C_10  and  N_12 
REMARK    6  A    between atoms: N_12  and  N_13 
REMARK       I    between atoms: N_13  and  C_14 
REMARK    7  A    between atoms: C_14  and  C_16 
REMARK    8  A    between atoms: C_20  and  S_21 
REMARK    9  A    between atoms: S_21  and  N_22 
REMARK   10  A    between atoms: C_31  and  O_32 
ROOT
ATOM      1  N   UNL d   1      28.976 -13.974   4.310  0.00  0.00    -0.263 N 
ATOM      2  C   UNL d   1      28.892 -14.484   5.626  0.00  0.00     0.270 C 
ATOM      3  O   UNL d   1      28.296 -15.521   5.899  0.00  0.00    -0.266 OA
ATOM      4  H   UNL d   1      29.461 -13.114   4.054  0.00  0.00     0.190 HD
ENDROOT
BRANCH   1   5
ATOM      5  N   UNL d   1      28.361 -14.670   3.215  0.00  0.00    -0.263 N 
ATOM      6  C   UNL d   1      28.059 -13.995   2.022  0.00  0.00     0.270 C 
ATOM      7  O   UNL d   1      28.295 -12.795   1.878  0.00  0.00    -0.266 OA
ATOM      8  H   UNL d   1      28.157 -15.648   3.393  0.00  0.00     0.190 HD
BRANCH   6   9
ATOM      9  C   UNL d   1      27.391 -14.764   0.893  0.00  0.00     0.036 A 
ATOM     10  C   UNL d   1      27.427 -16.166   0.846  0.00  0.00     0.020 A 
ATOM     11  C   UNL d   1      26.914 -16.877  -0.269  0.00  0.00     0.040 A 
ATOM     12  C   UNL d   1      26.264 -16.231  -1.343  0.00  0.00     0.102 A 
ATOM     13  C   UNL d   1      26.163 -14.819  -1.257  0.00  0.00     0.102 A 
ATOM     14  C   UNL d   1      26.738 -14.126  -0.157  0.00  0.00     0.056 A 
BRANCH  12  15
ATOM     15  O   UNL d   1      25.653 -17.134  -2.205  0.00  0.00    -0.348 OA
BRANCH  15  16
ATOM     16  C   UNL d   1      24.279 -17.452  -2.012  0.00  0.00     0.176 C 
BRANCH  16  17
ATOM     17  C   UNL d   1      23.765 -17.601  -0.591  0.00  0.00     0.026 C 
BRANCH  17  18
ATOM     18  C   UNL d   1      23.002 -18.953  -0.484  0.00  0.00    -0.002 C 
ATOM     19  C   UNL d   1      21.564 -18.748  -0.888  0.00  0.00     0.005 C 
ENDBRANCH  17  18
ENDBRANCH  16  17
ENDBRANCH  15  16
ENDBRANCH  12  15
BRANCH  13  20
ATOM     20  O   UNL d   1      25.531 -13.865  -2.027  0.00  0.00    -0.353 OA
ATOM     21  C   UNL d   1      25.480 -14.111  -3.395  0.00  0.00     0.210 C 
ENDBRANCH  13  20
ENDBRANCH   6   9
ENDBRANCH   1   5
BRANCH   2  22
ATOM     22  C   UNL d   1      29.465 -13.621   6.743  0.00  0.00     0.035 A 
ATOM     23  C   UNL d   1      30.646 -12.689   6.639  0.00  0.00     0.024 A 
ATOM     24  C   UNL d   1      31.114 -12.063   7.813  0.00  0.00    -0.049 A 
ATOM     25  C   UNL d   1      30.306 -12.442   8.895  0.00  0.00    -0.029 A 
ATOM     26  C   UNL d   1      32.381 -10.971   8.512  0.00  0.00     0.039 C 
ATOM     27  C   UNL d   1      29.299 -13.316   9.105  0.00  0.00     0.087 A 
ATOM     28  C   UNL d   1      30.763 -11.668   9.945  0.00  0.00     0.041 C 
ATOM     29  C   UNL d   1      28.840 -13.920   7.988  0.00  0.00     0.042 A 
ATOM     30  C   UNL d   1      30.848 -10.884  11.102  0.00  0.00     0.005 C 
ATOM     31  C   UNL d   1      32.180 -10.369  10.352  0.00  0.00     0.005 C 
BRANCH  27  32
ATOM     32  S   UNL d   1      28.807 -13.635  10.779  0.00  0.00     0.257 S 
ATOM     33  O   UNL d   1      27.808 -14.716  10.746  0.00  0.00    -0.201 OA
ATOM     34  O   UNL d   1      29.977 -13.715  11.558  0.00  0.00    -0.201 OA
BRANCH  32  35
ATOM     35  N   UNL d   1      28.012 -12.200  11.221  0.00  0.00    -0.324 N 
ATOM     36  H   UNL d   1      27.403 -11.693  10.582  0.00  0.00     0.169 HD
ATOM     37  H   UNL d   1      28.561 -11.608  11.838  0.00  0.00     0.169 HD
ENDBRANCH  32  35
ENDBRANCH  27  32
ENDBRANCH   2  22
TORSDOF 10
ENDMDL
MODEL 8
REMARK VINA RESULT:    -7.290      1.193      1.913
REMARK INTER + INTRA:         -11.628
REMARK INTER:                 -10.273
REMARK INTRA:                  -1.355
REMARK CONF_INDEPENDENT:        2.983
REMARK UNBOUND:                -1.355
REMARK  10 active torsions:
REMARK  status: ('A' for Active; 'I' for Inactive)
REMARK    1  A    between atoms: C_2  and  C_3 
REMARK    2  A    between atoms: C_3  and  C_4 
REMARK    3  A    between atoms: C_4  and  O_5 
REMARK    4  A    between atoms: O_5  and  C_6 
REMARK    5  A    between atoms: C_9  and  C_10 
REMARK       I    between atoms: C_10  and  N_12 
REMARK    6  A    between atoms: N_12  and  N_13 
REMARK       I    between atoms: N_13  and  C_14 
REMARK    7  A    between atoms: C_14  and  C_16 
REMARK    8  A    between atoms: C_20  and  S_21 
REMARK    9  A    between atoms: S_21  and  N_22 
REMARK   10  A    between atoms: C_31  and  O_32 
ROOT
ATOM      1  N   UNL d   1      29.110 -13.950   4.500  0.00  0.00    -0.263 N 
ATOM      2  C   UNL d   1      28.186 -13.734   5.549  0.00  0.00     0.270 C 
ATOM      3  O   UNL d   1      26.998 -14.022   5.456  0.00  0.00    -0.266 OA
ATOM      4  H   UNL d   1      30.102 -13.716   4.548  0.00  0.00     0.190 HD
ENDROOT
BRANCH   1   5
ATOM      5  N   UNL d   1      28.685 -14.538   3.262  0.00  0.00    -0.263 N 
ATOM      6  C   UNL d   1      27.799 -13.853   2.415  0.00  0.00     0.270 C 
ATOM      7  O   UNL d   1      27.351 -12.744   2.707  0.00  0.00    -0.266 OA
ATOM      8  H   UNL d   1      29.056 -15.465   3.080  0.00  0.00     0.190 HD
BRANCH   6   9
ATOM      9  C   UNL d   1      27.360 -14.518   1.121  0.00  0.00     0.036 A 
ATOM     10  C   UNL d   1      26.846 -13.766   0.054  0.00  0.00     0.020 A 
ATOM     11  C   UNL d   1      26.320 -14.397  -1.104  0.00  0.00     0.040 A 
ATOM     12  C   UNL d   1      26.363 -15.796  -1.287  0.00  0.00     0.102 A 
ATOM     13  C   UNL d   1      26.950 -16.549  -0.238  0.00  0.00     0.102 A 
ATOM     14  C   UNL d   1      27.416 -15.896   0.936  0.00  0.00     0.056 A 
BRANCH  12  15
ATOM     15  O   UNL d   1      25.997 -16.167  -2.576  0.00  0.00    -0.348 OA
BRANCH  15  16
ATOM     16  C   UNL d   1      25.532 -15.168  -3.476  0.00  0.00     0.176 C 
BRANCH  16  17
ATOM     17  C   UNL d   1      25.926 -15.274  -4.939  0.00  0.00     0.026 C 
BRANCH  17  18
ATOM     18  C   UNL d   1      27.339 -14.648  -5.114  0.00  0.00    -0.002 C 
ATOM     19  C   UNL d   1      28.372 -15.575  -4.524  0.00  0.00     0.005 C 
ENDBRANCH  17  18
ENDBRANCH  16  17
ENDBRANCH  15  16
ENDBRANCH  12  15
BRANCH  13  20
ATOM     20  O   UNL d   1      27.263 -17.884  -0.089  0.00  0.00    -0.353 OA
ATOM     21  C   UNL d   1      26.658 -18.543   0.975  0.00  0.00     0.210 C 
ENDBRANCH  13  20
ENDBRANCH   6   9
ENDBRANCH   1   5
BRANCH   2  22
ATOM     22  C   UNL d   1      28.694 -12.993   6.780  0.00  0.00     0.035 A 
ATOM     23  C   UNL d   1      29.071 -11.535   6.856  0.00  0.00     0.024 A 
ATOM     24  C   UNL d   1      29.642 -11.049   8.050  0.00  0.00    -0.049 A 
ATOM     25  C   UNL d   1      29.714 -12.090   8.988  0.00  0.00    -0.029 A 
ATOM     26  C   UNL d   1      30.367  -9.605   8.873  0.00  0.00     0.039 C 
ATOM     27  C   UNL d   1      29.487 -13.421   8.991  0.00  0.00     0.087 A 
ATOM     28  C   UNL d   1      30.149 -11.474  10.146  0.00  0.00     0.041 C 
ATOM     29  C   UNL d   1      28.936 -13.898   7.854  0.00  0.00     0.042 A 
ATOM     30  C   UNL d   1      30.349 -11.107  11.482  0.00  0.00     0.005 C 
ATOM     31  C   UNL d   1      30.752  -9.713  10.777  0.00  0.00     0.005 C 
BRANCH  27  32
ATOM     32  S   UNL d   1      30.031 -14.357  10.396  0.00  0.00     0.257 S 
ATOM     33  O   UNL d   1      31.500 -14.275  10.438  0.00  0.00    -0.201 OA
ATOM     34  O   UNL d   1      29.224 -13.989  11.490  0.00  0.00    -0.201 OA
BRANCH  32  35
ATOM     35  N   UNL d   1      29.606 -15.949   9.979  0.00  0.00    -0.324 N 
ATOM     36  H   UNL d   1      30.275 -16.716   9.996  0.00  0.00     0.169 HD
ATOM     37  H   UNL d   1      28.925 -16.001   9.227  0.00  0.00     0.169 HD
ENDBRANCH  32  35
ENDBRANCH  27  32
ENDBRANCH   2  22
TORSDOF 10
ENDMDL
MODEL 9
REMARK VINA RESULT:    -7.054      2.235      3.109
REMARK INTER + INTRA:         -11.711
REMARK INTER:                 -10.037
REMARK INTRA:                  -1.674
REMARK CONF_INDEPENDENT:        2.983
REMARK UNBOUND:                -1.674
REMARK  10 active torsions:
REMARK  status: ('A' for Active; 'I' for Inactive)
REMARK    1  A    between atoms: C_2  and  C_3 
REMARK    2  A    between atoms: C_3  and  C_4 
REMARK    3  A    between atoms: C_4  and  O_5 
REMARK    4  A    between atoms: O_5  and  C_6 
REMARK    5  A    between atoms: C_9  and  C_10 
REMARK       I    between atoms: C_10  and  N_12 
REMARK    6  A    between atoms: N_12  and  N_13 
REMARK       I    between atoms: N_13  and  C_14 
REMARK    7  A    between atoms: C_14  and  C_16 
REMARK    8  A    between atoms: C_20  and  S_21 
REMARK    9  A    between atoms: S_21  and  N_22 
REMARK   10  A    between atoms: C_31  and  O_32 
ROOT
ATOM      1  N   UNL d   1      28.835 -13.837   4.694  0.00  0.00    -0.263 N 
ATOM      2  C   UNL d   1      28.688 -14.475   5.947  0.00  0.00     0.270 C 
ATOM      3  O   UNL d   1      28.157 -15.574   6.074  0.00  0.00    -0.266 OA
ATOM      4  H   UNL d   1      29.267 -12.923   4.559  0.00  0.00     0.190 HD
ENDROOT
BRANCH   1   5
ATOM      5  N   UNL d   1      28.367 -14.468   3.493  0.00  0.00    -0.263 N 
ATOM      6  C   UNL d   1      27.890 -13.696   2.422  0.00  0.00     0.270 C 
ATOM      7  O   UNL d   1      27.844 -12.467   2.478  0.00  0.00    -0.266 OA
ATOM      8  H   UNL d   1      28.394 -15.482   3.506  0.00  0.00     0.190 HD
BRANCH   6   9
ATOM      9  C   UNL d   1      27.386 -14.404   1.175  0.00  0.00     0.036 A 
ATOM     10  C   UNL d   1      27.410 -15.803   1.071  0.00  0.00     0.020 A 
ATOM     11  C   UNL d   1      27.058 -16.458  -0.137  0.00  0.00     0.040 A 
ATOM     12  C   UNL d   1      26.583 -15.754  -1.266  0.00  0.00     0.102 A 
ATOM     13  C   UNL d   1      26.489 -14.346  -1.134  0.00  0.00     0.102 A 
ATOM     14  C   UNL d   1      26.905 -13.711   0.068  0.00  0.00     0.056 A 
BRANCH  12  15
ATOM     15  O   UNL d   1      26.094 -16.609  -2.248  0.00  0.00    -0.348 OA
BRANCH  15  16
ATOM     16  C   UNL d   1      24.774 -17.126  -2.119  0.00  0.00     0.176 C 
BRANCH  16  17
ATOM     17  C   UNL d   1      23.835 -16.467  -1.124  0.00  0.00     0.026 C 
BRANCH  17  18
ATOM     18  C   UNL d   1      22.927 -17.567  -0.503  0.00  0.00    -0.002 C 
ATOM     19  C   UNL d   1      23.632 -18.899  -0.579  0.00  0.00     0.005 C 
ENDBRANCH  17  18
ENDBRANCH  16  17
ENDBRANCH  15  16
ENDBRANCH  12  15
BRANCH  13  20
ATOM     20  O   UNL d   1      25.992 -13.348  -1.946  0.00  0.00    -0.353 OA
ATOM     21  C   UNL d   1      25.433 -13.757  -3.152  0.00  0.00     0.210 C 
ENDBRANCH  13  20
ENDBRANCH   6   9
ENDBRANCH   1   5
BRANCH   2  22
ATOM     22  C   UNL d   1      29.099 -13.683   7.182  0.00  0.00     0.035 A 
ATOM     23  C   UNL d   1      28.913 -14.103   8.619  0.00  0.00     0.024 A 
ATOM     24  C   UNL d   1      29.241 -13.183   9.637  0.00  0.00    -0.049 A 
ATOM     25  C   UNL d   1      29.734 -12.005   9.056  0.00  0.00    -0.029 A 
ATOM     26  C   UNL d   1      29.254 -12.885  11.424  0.00  0.00     0.039 C 
ATOM     27  C   UNL d   1      29.859 -11.508   7.807  0.00  0.00     0.087 A 
ATOM     28  C   UNL d   1      30.150 -11.246  10.133  0.00  0.00     0.041 C 
ATOM     29  C   UNL d   1      29.551 -12.380   6.823  0.00  0.00     0.042 A 
ATOM     30  C   UNL d   1      30.851 -10.373  10.974  0.00  0.00     0.005 C 
ATOM     31  C   UNL d   1      30.151 -11.295  12.098  0.00  0.00     0.005 C 
BRANCH  27  32
ATOM     32  S   UNL d   1      30.285  -9.795   7.630  0.00  0.00     0.257 S 
ATOM     33  O   UNL d   1      31.679  -9.638   8.076  0.00  0.00    -0.201 OA
ATOM     34  O   UNL d   1      29.850  -9.379   6.356  0.00  0.00    -0.201 OA
BRANCH  32  35
ATOM     35  N   UNL d   1      29.280  -9.034   8.770  0.00  0.00    -0.324 N 
ATOM     36  H   UNL d   1      28.515  -9.519   9.233  0.00  0.00     0.169 HD
ATOM     37  H   UNL d   1      29.094  -8.058   8.556  0.00  0.00     0.169 HD
ENDBRANCH  32  35
ENDBRANCH  27  32
ENDBRANCH   2  22
TORSDOF 10
ENDMDL
