MODEL 1
REMARK VINA RESULT:    -5.502      0.000      0.000
REMARK INTER + INTRA:          -9.775
REMARK INTER:                  -7.292
REMARK INTRA:                  -2.483
REMARK CONF_INDEPENDENT:        1.790
REMARK UNBOUND:                -2.483
REMARK  6 active torsions:
REMARK  status: ('A' for Active; 'I' for Inactive)
REMARK       I    between atoms: C_2  and  N_3 
REMARK    1  A    between atoms: C_2  and  C_23 
REMARK    2  A    between atoms: N_3  and  N_4 
REMARK    3  A    between atoms: N_4  and  C_5 
REMARK    4  A    between atoms: C_14  and  N_15 
REMARK    5  A    between atoms: N_15  and  N_16 
REMARK       I    between atoms: N_16  and  C_17 
REMARK    6  A    between atoms: C_17  and  C_19 
ROOT
ATOM      1  C   UNL d   1      24.943 -14.707  -2.902  0.00  0.00     0.169 A 
ATOM      2  N   UNL d   1      24.030 -15.492  -2.279  0.00  0.00    -0.229 NA
ATOM      3  C   UNL d   1      24.498 -16.380  -1.376  0.00  0.00     0.087 A 
ATOM      4  C   UNL d   1      23.605 -17.236  -0.732  0.00  0.00     0.034 A 
ATOM      5  C   UNL d   1      24.023 -18.148   0.240  0.00  0.00     0.002 A 
ATOM      6  C   UNL d   1      25.365 -18.208   0.579  0.00  0.00     0.002 A 
ATOM      7  C   UNL d   1      26.277 -17.370  -0.074  0.00  0.00     0.034 A 
ATOM      8  C   UNL d   1      25.877 -16.460  -1.059  0.00  0.00     0.088 A 
ATOM      9  N   UNL d   1      26.786 -15.669  -1.686  0.00  0.00    -0.225 NA
ATOM     10  C   UNL d   1      26.336 -14.793  -2.621  0.00  0.00     0.185 A 
ENDROOT
BRANCH   1  11
ATOM     11  N   UNL d   1      24.513 -13.766  -3.875  0.00  0.00    -0.182 NA
ATOM     12  H   UNL d   1      24.053 -12.966  -3.424  0.00  0.00     0.154 HD
BRANCH  11  13
ATOM     13  N   UNL d   1      25.414 -13.406  -4.879  0.00  0.00    -0.278 N 
ATOM     14  C   UNL d   1      25.905 -12.100  -4.773  0.00  0.00     0.340 C 
ATOM     15  O   UNL d   1      25.743 -11.453  -3.732  0.00  0.00    -0.262 OA
ATOM     16  H   UNL d   1      25.336 -13.900  -5.770  0.00  0.00     0.184 HD
BRANCH  14  17
ATOM     17  C   UNL d   1      26.656 -11.569  -6.002  0.00  0.00     0.473 C 
ATOM     18  F   UNL d   1      27.403 -12.531  -6.613  0.00  0.00    -0.162 F 
ATOM     19  F   UNL d   1      25.811 -11.075  -6.948  0.00  0.00    -0.162 F 
ATOM     20  F   UNL d   1      27.519 -10.560  -5.689  0.00  0.00    -0.162 F 
ENDBRANCH  14  17
ENDBRANCH  11  13
ENDBRANCH   1  11
BRANCH  10  21
ATOM     21  N   UNL d   1      27.287 -13.924  -3.201  0.00  0.00    -0.278 N 
ATOM     22  H   UNL d   1      27.240 -12.935  -2.961  0.00  0.00     0.189 HD
BRANCH  21  23
ATOM     23  N   UNL d   1      28.402 -14.416  -3.904  0.00  0.00    -0.261 N 
ATOM     24  C   UNL d   1      28.222 -15.102  -5.102  0.00  0.00     0.343 C 
ATOM     25  O   UNL d   1      27.115 -15.200  -5.644  0.00  0.00    -0.262 OA
ATOM     26  H   UNL d   1      29.218 -14.660  -3.334  0.00  0.00     0.190 HD
BRANCH  24  27
ATOM     27  C   UNL d   1      29.535 -15.685  -5.677  0.00  0.00     0.473 C 
ATOM     28  F   UNL d   1      29.656 -17.018  -5.413  0.00  0.00    -0.162 F 
ATOM     29  F   UNL d   1      29.594 -15.564  -7.035  0.00  0.00    -0.162 F 
ATOM     30  F   UNL d   1      30.657 -15.092  -5.187  0.00  0.00    -0.162 F 
ENDBRANCH  24  27
ENDBRANCH  21  23
ENDBRANCH  10  21
TORSDOF 6
ENDMDL
MODEL 2
REMARK VINA RESULT:    -5.393      1.699      4.875
REMARK INTER + INTRA:          -9.127
REMARK INTER:                  -7.183
REMARK INTRA:                  -1.944
REMARK CONF_INDEPENDENT:        1.790
REMARK UNBOUND:                -1.944
REMARK  6 active torsions:
REMARK  status: ('A' for Active; 'I' for Inactive)
REMARK       I    between atoms: C_2  and  N_3 
REMARK    1  A    between atoms: C_2  and  C_23 
REMARK    2  A    between atoms: N_3  and  N_4 
REMARK    3  A    between atoms: N_4  and  C_5 
REMARK    4  A    between atoms: C_14  and  N_15 
REMARK    5  A    between atoms: N_15  and  N_16 
REMARK       I    between atoms: N_16  and  C_17 
REMARK    6  A    between atoms: C_17  and  C_19 
ROOT
ATOM      1  C   UNL d   1      26.577 -15.212  -3.502  0.00  0.00     0.169 A 
ATOM      2  N   UNL d   1      26.767 -16.241  -2.641  0.00  0.00    -0.229 NA
ATOM      3  C   UNL d   1      25.737 -16.558  -1.827  0.00  0.00     0.087 A 
ATOM      4  C   UNL d   1      25.891 -17.587  -0.898  0.00  0.00     0.034 A 
ATOM      5  C   UNL d   1      24.850 -17.988  -0.057  0.00  0.00     0.002 A 
ATOM      6  C   UNL d   1      23.624 -17.347  -0.145  0.00  0.00     0.002 A 
ATOM      7  C   UNL d   1      23.461 -16.299  -1.058  0.00  0.00     0.034 A 
ATOM      8  C   UNL d   1      24.497 -15.876  -1.899  0.00  0.00     0.088 A 
ATOM      9  N   UNL d   1      24.313 -14.847  -2.765  0.00  0.00    -0.225 NA
ATOM     10  C   UNL d   1      25.351 -14.493  -3.569  0.00  0.00     0.185 A 
ENDROOT
BRANCH   1  11
ATOM     11  N   UNL d   1      27.630 -14.819  -4.371  0.00  0.00    -0.182 NA
ATOM     12  H   UNL d   1      27.801 -13.809  -4.296  0.00  0.00     0.154 HD
BRANCH  11  13
ATOM     13  N   UNL d   1      28.795 -15.588  -4.376  0.00  0.00    -0.278 N 
ATOM     14  C   UNL d   1      29.281 -15.893  -5.652  0.00  0.00     0.340 C 
ATOM     15  O   UNL d   1      28.848 -15.297  -6.645  0.00  0.00    -0.262 OA
ATOM     16  H   UNL d   1      28.961 -16.183  -3.561  0.00  0.00     0.184 HD
BRANCH  14  17
ATOM     17  C   UNL d   1      30.374 -16.969  -5.708  0.00  0.00     0.473 C 
ATOM     18  F   UNL d   1      30.209 -17.932  -4.758  0.00  0.00    -0.162 F 
ATOM     19  F   UNL d   1      30.405 -17.610  -6.909  0.00  0.00    -0.162 F 
ATOM     20  F   UNL d   1      31.622 -16.454  -5.514  0.00  0.00    -0.162 F 
ENDBRANCH  14  17
ENDBRANCH  11  13
ENDBRANCH   1  11
BRANCH  10  21
ATOM     21  N   UNL d   1      25.112 -13.474  -4.518  0.00  0.00    -0.278 N 
ATOM     22  H   UNL d   1      24.664 -13.735  -5.395  0.00  0.00     0.189 HD
BRANCH  21  23
ATOM     23  N   UNL d   1      25.270 -12.115  -4.195  0.00  0.00    -0.261 N 
ATOM     24  C   UNL d   1      26.432 -11.679  -3.564  0.00  0.00     0.343 C 
ATOM     25  O   UNL d   1      27.397 -12.428  -3.374  0.00  0.00    -0.262 OA
ATOM     26  H   UNL d   1      24.406 -11.595  -4.011  0.00  0.00     0.190 HD
BRANCH  24  27
ATOM     27  C   UNL d   1      26.389 -10.185  -3.165  0.00  0.00     0.473 C 
ATOM     28  F   UNL d   1      27.292  -9.445  -3.871  0.00  0.00    -0.162 F 
ATOM     29  F   UNL d   1      25.169  -9.626  -3.415  0.00  0.00    -0.162 F 
ATOM     30  F   UNL d   1      26.654  -9.963  -1.849  0.00  0.00    -0.162 F 
ENDBRANCH  24  27
ENDBRANCH  21  23
ENDBRANCH  10  21
TORSDOF 6
ENDMDL
MODEL 3
REMARK VINA RESULT:    -5.379      1.679      1.979
REMARK INTER + INTRA:          -9.382
REMARK INTER:                  -7.168
REMARK INTRA:                  -2.214
REMARK CONF_INDEPENDENT:        1.790
REMARK UNBOUND:                -2.214
REMARK  6 active torsions:
REMARK  status: ('A' for Active; 'I' for Inactive)
REMARK       I    between atoms: C_2  and  N_3 
REMARK    1  A    between atoms: C_2  and  C_23 
REMARK    2  A    between atoms: N_3  and  N_4 
REMARK    3  A    between atoms: N_4  and  C_5 
REMARK    4  A    between atoms: C_14  and  N_15 
REMARK    5  A    between atoms: N_15  and  N_16 
REMARK       I    between atoms: N_16  and  C_17 
REMARK    6  A    between atoms: C_17  and  C_19 
ROOT
ATOM      1  C   UNL d   1      25.291 -14.488  -3.659  0.00  0.00     0.169 A 
ATOM      2  N   UNL d   1      24.280 -14.819  -2.819  0.00  0.00    -0.229 NA
ATOM      3  C   UNL d   1      24.507 -15.830  -1.953  0.00  0.00     0.087 A 
ATOM      4  C   UNL d   1      23.488 -16.233  -1.091  0.00  0.00     0.034 A 
ATOM      5  C   UNL d   1      23.675 -17.245  -0.146  0.00  0.00     0.002 A 
ATOM      6  C   UNL d   1      24.909 -17.870  -0.058  0.00  0.00     0.002 A 
ATOM      7  C   UNL d   1      25.935 -17.491  -0.931  0.00  0.00     0.034 A 
ATOM      8  C   UNL d   1      25.761 -16.488  -1.892  0.00  0.00     0.088 A 
ATOM      9  N   UNL d   1      26.770 -16.150  -2.735  0.00  0.00    -0.225 NA
ATOM     10  C   UNL d   1      26.547 -15.156  -3.635  0.00  0.00     0.185 A 
ENDROOT
BRANCH   1  11
ATOM     11  N   UNL d   1      25.106 -13.445  -4.605  0.00  0.00    -0.182 NA
ATOM     12  H   UNL d   1      24.297 -13.644  -5.206  0.00  0.00     0.154 HD
BRANCH  11  13
ATOM     13  N   UNL d   1      25.156 -12.128  -4.145  0.00  0.00    -0.278 N 
ATOM     14  C   UNL d   1      26.441 -11.577  -4.110  0.00  0.00     0.340 C 
ATOM     15  O   UNL d   1      27.379 -12.137  -4.689  0.00  0.00    -0.262 OA
ATOM     16  H   UNL d   1      24.405 -11.826  -3.522  0.00  0.00     0.184 HD
BRANCH  14  17
ATOM     17  C   UNL d   1      26.577 -10.254  -3.342  0.00  0.00     0.473 C 
ATOM     18  F   UNL d   1      25.422  -9.532  -3.336  0.00  0.00    -0.162 F 
ATOM     19  F   UNL d   1      26.921 -10.447  -2.040  0.00  0.00    -0.162 F 
ATOM     20  F   UNL d   1      27.532  -9.438  -3.876  0.00  0.00    -0.162 F 
ENDBRANCH  14  17
ENDBRANCH  11  13
ENDBRANCH   1  11
BRANCH  10  21
ATOM     21  N   UNL d   1      27.637 -14.766  -4.447  0.00  0.00    -0.278 N 
ATOM     22  H   UNL d   1      27.665 -13.803  -4.776  0.00  0.00     0.189 HD
BRANCH  21  23
ATOM     23  N   UNL d   1      28.762 -15.593  -4.617  0.00  0.00    -0.261 N 
ATOM     24  C   UNL d   1      29.282 -15.807  -5.890  0.00  0.00     0.343 C 
ATOM     25  O   UNL d   1      28.861 -15.203  -6.883  0.00  0.00    -0.262 OA
ATOM     26  H   UNL d   1      28.878 -16.338  -3.923  0.00  0.00     0.190 HD
BRANCH  24  27
ATOM     27  C   UNL d   1      30.435 -16.839  -5.915  0.00  0.00     0.473 C 
ATOM     28  F   UNL d   1      30.190 -17.893  -5.083  0.00  0.00    -0.162 F 
ATOM     29  F   UNL d   1      30.612 -17.375  -7.157  0.00  0.00    -0.162 F 
ATOM     30  F   UNL d   1      31.637 -16.324  -5.541  0.00  0.00    -0.162 F 
ENDBRANCH  24  27
ENDBRANCH  21  23
ENDBRANCH  10  21
TORSDOF 6
ENDMDL
MODEL 4
REMARK VINA RESULT:    -5.370      3.357      4.343
REMARK INTER + INTRA:          -9.371
REMARK INTER:                  -7.160
REMARK INTRA:                  -2.211
REMARK CONF_INDEPENDENT:        1.790
REMARK UNBOUND:                -2.211
REMARK  6 active torsions:
REMARK  status: ('A' for Active; 'I' for Inactive)
REMARK       I    between atoms: C_2  and  N_3 
REMARK    1  A    between atoms: C_2  and  C_23 
REMARK    2  A    between atoms: N_3  and  N_4 
REMARK    3  A    between atoms: N_4  and  C_5 
REMARK    4  A    between atoms: C_14  and  N_15 
REMARK    5  A    between atoms: N_15  and  N_16 
REMARK       I    between atoms: N_16  and  C_17 
REMARK    6  A    between atoms: C_17  and  C_19 
ROOT
ATOM      1  C   UNL d   1      25.574 -15.812  -1.032  0.00  0.00     0.169 A 
ATOM      2  N   UNL d   1      24.220 -15.814  -1.095  0.00  0.00    -0.229 NA
ATOM      3  C   UNL d   1      23.595 -16.981  -0.829  0.00  0.00     0.087 A 
ATOM      4  C   UNL d   1      22.204 -17.046  -0.914  0.00  0.00     0.034 A 
ATOM      5  C   UNL d   1      21.497 -18.213  -0.612  0.00  0.00     0.002 A 
ATOM      6  C   UNL d   1      22.195 -19.343  -0.215  0.00  0.00     0.002 A 
ATOM      7  C   UNL d   1      23.592 -19.299  -0.146  0.00  0.00     0.034 A 
ATOM      8  C   UNL d   1      24.317 -18.143  -0.457  0.00  0.00     0.088 A 
ATOM      9  N   UNL d   1      25.673 -18.133  -0.394  0.00  0.00    -0.225 NA
ATOM     10  C   UNL d   1      26.320 -16.976  -0.690  0.00  0.00     0.185 A 
ENDROOT
BRANCH   1  11
ATOM     11  N   UNL d   1      26.289 -14.620  -1.319  0.00  0.00    -0.182 NA
ATOM     12  H   UNL d   1      26.912 -14.377  -0.538  0.00  0.00     0.154 HD
BRANCH  11  13
ATOM     13  N   UNL d   1      26.888 -14.502  -2.574  0.00  0.00    -0.278 N 
ATOM     14  C   UNL d   1      25.990 -14.514  -3.646  0.00  0.00     0.340 C 
ATOM     15  O   UNL d   1      24.778 -14.374  -3.449  0.00  0.00    -0.262 OA
ATOM     16  H   UNL d   1      27.857 -14.817  -2.656  0.00  0.00     0.184 HD
BRANCH  14  17
ATOM     17  C   UNL d   1      26.617 -14.685  -5.037  0.00  0.00     0.473 C 
ATOM     18  F   UNL d   1      25.968 -15.615  -5.792  0.00  0.00    -0.162 F 
ATOM     19  F   UNL d   1      26.605 -13.527  -5.753  0.00  0.00    -0.162 F 
ATOM     20  F   UNL d   1      27.919 -15.087  -4.976  0.00  0.00    -0.162 F 
ENDBRANCH  14  17
ENDBRANCH  11  13
ENDBRANCH   1  11
BRANCH  10  21
ATOM     21  N   UNL d   1      27.725 -16.966  -0.539  0.00  0.00    -0.278 N 
ATOM     22  H   UNL d   1      28.288 -17.360  -1.291  0.00  0.00     0.189 HD
BRANCH  21  23
ATOM     23  N   UNL d   1      28.350 -16.244   0.493  0.00  0.00    -0.261 N 
ATOM     24  C   UNL d   1      29.048 -15.075   0.201  0.00  0.00     0.343 C 
ATOM     25  O   UNL d   1      29.048 -14.574  -0.929  0.00  0.00    -0.262 OA
ATOM     26  H   UNL d   1      28.659 -16.794   1.300  0.00  0.00     0.190 HD
BRANCH  24  27
ATOM     27  C   UNL d   1      29.780 -14.477   1.426  0.00  0.00     0.473 C 
ATOM     28  F   UNL d   1      30.917 -15.169   1.725  0.00  0.00    -0.162 F 
ATOM     29  F   UNL d   1      30.172 -13.188   1.205  0.00  0.00    -0.162 F 
ATOM     30  F   UNL d   1      29.028 -14.463   2.559  0.00  0.00    -0.162 F 
ENDBRANCH  24  27
ENDBRANCH  21  23
ENDBRANCH  10  21
TORSDOF 6
ENDMDL
MODEL 5
REMARK VINA RESULT:    -5.233      3.225      4.912
REMARK INTER + INTRA:          -9.493
REMARK INTER:                  -7.023
REMARK INTRA:                  -2.470
REMARK CONF_INDEPENDENT:        1.790
REMARK UNBOUND:                -2.470
REMARK  6 active torsions:
REMARK  status: ('A' for Active; 'I' for Inactive)
REMARK       I    between atoms: C_2  and  N_3 
REMARK    1  A    between atoms: C_2  and  C_23 
REMARK    2  A    between atoms: N_3  and  N_4 
REMARK    3  A    between atoms: N_4  and  C_5 
REMARK    4  A    between atoms: C_14  and  N_15 
REMARK    5  A    between atoms: N_15  and  N_16 
REMARK       I    between atoms: N_16  and  C_17 
REMARK    6  A    between atoms: C_17  and  C_19 
ROOT
ATOM      1  C   UNL d   1      26.642 -16.848  -0.782  0.00  0.00     0.169 A 
ATOM      2  N   UNL d   1      25.959 -17.979  -0.478  0.00  0.00    -0.229 NA
ATOM      3  C   UNL d   1      24.611 -17.903  -0.485  0.00  0.00     0.087 A 
ATOM      4  C   UNL d   1      23.861 -19.028  -0.145  0.00  0.00     0.034 A 
ATOM      5  C   UNL d   1      22.464 -19.024  -0.173  0.00  0.00     0.002 A 
ATOM      6  C   UNL d   1      21.798 -17.868  -0.550  0.00  0.00     0.002 A 
ATOM      7  C   UNL d   1      22.537 -16.724  -0.873  0.00  0.00     0.034 A 
ATOM      8  C   UNL d   1      23.937 -16.707  -0.838  0.00  0.00     0.088 A 
ATOM      9  N   UNL d   1      24.627 -15.579  -1.143  0.00  0.00    -0.225 NA
ATOM     10  C   UNL d   1      25.984 -15.629  -1.109  0.00  0.00     0.185 A 
ENDROOT
BRANCH   1  11
ATOM     11  N   UNL d   1      28.062 -16.861  -0.774  0.00  0.00    -0.182 NA
ATOM     12  H   UNL d   1      28.430 -16.533  -1.675  0.00  0.00     0.154 HD
BRANCH  11  13
ATOM     13  N   UNL d   1      28.714 -16.316   0.333  0.00  0.00    -0.278 N 
ATOM     14  C   UNL d   1      29.351 -15.095   0.086  0.00  0.00     0.340 C 
ATOM     15  O   UNL d   1      29.110 -14.462  -0.949  0.00  0.00    -0.262 OA
ATOM     16  H   UNL d   1      29.026 -16.969   1.055  0.00  0.00     0.184 HD
BRANCH  14  17
ATOM     17  C   UNL d   1      30.316 -14.614   1.178  0.00  0.00     0.473 C 
ATOM     18  F   UNL d   1      31.151 -15.601   1.609  0.00  0.00    -0.162 F 
ATOM     19  F   UNL d   1      31.109 -13.593   0.753  0.00  0.00    -0.162 F 
ATOM     20  F   UNL d   1      29.663 -14.159   2.287  0.00  0.00    -0.162 F 
ENDBRANCH  14  17
ENDBRANCH  11  13
ENDBRANCH   1  11
BRANCH  10  21
ATOM     21  N   UNL d   1      26.682 -14.467  -1.509  0.00  0.00    -0.278 N 
ATOM     22  H   UNL d   1      26.956 -13.803  -0.787  0.00  0.00     0.189 HD
BRANCH  21  23
ATOM     23  N   UNL d   1      27.187 -14.324  -2.814  0.00  0.00    -0.261 N 
ATOM     24  C   UNL d   1      26.362 -14.561  -3.910  0.00  0.00     0.343 C 
ATOM     25  O   UNL d   1      25.152 -14.784  -3.786  0.00  0.00    -0.262 OA
ATOM     26  H   UNL d   1      28.190 -14.500  -2.927  0.00  0.00     0.190 HD
BRANCH  24  27
ATOM     27  C   UNL d   1      27.106 -14.485  -5.265  0.00  0.00     0.473 C 
ATOM     28  F   UNL d   1      28.441 -14.726  -5.124  0.00  0.00    -0.162 F 
ATOM     29  F   UNL d   1      26.647 -15.417  -6.150  0.00  0.00    -0.162 F 
ATOM     30  F   UNL d   1      26.995 -13.278  -5.882  0.00  0.00    -0.162 F 
ENDBRANCH  24  27
ENDBRANCH  21  23
ENDBRANCH  10  21
TORSDOF 6
ENDMDL
MODEL 6
REMARK VINA RESULT:    -5.087      1.260      4.349
REMARK INTER + INTRA:          -9.328
REMARK INTER:                  -6.877
REMARK INTRA:                  -2.451
REMARK CONF_INDEPENDENT:        1.790
REMARK UNBOUND:                -2.451
REMARK  6 active torsions:
REMARK  status: ('A' for Active; 'I' for Inactive)
REMARK       I    between atoms: C_2  and  N_3 
REMARK    1  A    between atoms: C_2  and  C_23 
REMARK    2  A    between atoms: N_3  and  N_4 
REMARK    3  A    between atoms: N_4  and  C_5 
REMARK    4  A    between atoms: C_14  and  N_15 
REMARK    5  A    between atoms: N_15  and  N_16 
REMARK       I    between atoms: N_16  and  C_17 
REMARK    6  A    between atoms: C_17  and  C_19 
ROOT
ATOM      1  C   UNL d   1      27.164 -14.302  -3.374  0.00  0.00     0.169 A 
ATOM      2  N   UNL d   1      27.427 -15.287  -2.480  0.00  0.00    -0.229 NA
ATOM      3  C   UNL d   1      26.367 -15.893  -1.903  0.00  0.00     0.087 A 
ATOM      4  C   UNL d   1      26.583 -16.888  -0.952  0.00  0.00     0.034 A 
ATOM      5  C   UNL d   1      25.529 -17.579  -0.349  0.00  0.00     0.002 A 
ATOM      6  C   UNL d   1      24.225 -17.269  -0.706  0.00  0.00     0.002 A 
ATOM      7  C   UNL d   1      23.992 -16.257  -1.645  0.00  0.00     0.034 A 
ATOM      8  C   UNL d   1      25.037 -15.547  -2.248  0.00  0.00     0.088 A 
ATOM      9  N   UNL d   1      24.780 -14.560  -3.145  0.00  0.00    -0.225 NA
ATOM     10  C   UNL d   1      25.836 -13.918  -3.711  0.00  0.00     0.185 A 
ENDROOT
BRANCH   1  11
ATOM     11  N   UNL d   1      28.238 -13.616  -4.000  0.00  0.00    -0.182 NA
ATOM     12  H   UNL d   1      28.542 -12.821  -3.423  0.00  0.00     0.154 HD
BRANCH  11  13
ATOM     13  N   UNL d   1      29.291 -14.376  -4.512  0.00  0.00    -0.278 N 
ATOM     14  C   UNL d   1      28.918 -15.282  -5.509  0.00  0.00     0.340 C 
ATOM     15  O   UNL d   1      27.807 -15.200  -6.047  0.00  0.00    -0.262 OA
ATOM     16  H   UNL d   1      30.096 -14.523  -3.900  0.00  0.00     0.184 HD
BRANCH  14  17
ATOM     17  C   UNL d   1      29.974 -16.332  -5.885  0.00  0.00     0.473 C 
ATOM     18  F   UNL d   1      30.102 -16.485  -7.232  0.00  0.00    -0.162 F 
ATOM     19  F   UNL d   1      31.208 -16.012  -5.411  0.00  0.00    -0.162 F 
ATOM     20  F   UNL d   1      29.678 -17.568  -5.389  0.00  0.00    -0.162 F 
ENDBRANCH  14  17
ENDBRANCH  11  13
ENDBRANCH   1  11
BRANCH  10  21
ATOM     21  N   UNL d   1      25.547 -12.952  -4.701  0.00  0.00    -0.278 N 
ATOM     22  H   UNL d   1      24.640 -12.491  -4.667  0.00  0.00     0.189 HD
BRANCH  21  23
ATOM     23  N   UNL d   1      26.542 -12.468  -5.569  0.00  0.00    -0.261 N 
ATOM     24  C   UNL d   1      26.243 -11.450  -6.471  0.00  0.00     0.343 C 
ATOM     25  O   UNL d   1      25.155 -10.864  -6.465  0.00  0.00    -0.262 OA
ATOM     26  H   UNL d   1      27.271 -13.138  -5.832  0.00  0.00     0.190 HD
BRANCH  24  27
ATOM     27  C   UNL d   1      27.409 -11.126  -7.436  0.00  0.00     0.473 C 
ATOM     28  F   UNL d   1      27.031 -11.236  -8.742  0.00  0.00    -0.162 F 
ATOM     29  F   UNL d   1      27.857  -9.846  -7.282  0.00  0.00    -0.162 F 
ATOM     30  F   UNL d   1      28.490 -11.936  -7.278  0.00  0.00    -0.162 F 
ENDBRANCH  24  27
ENDBRANCH  21  23
ENDBRANCH  10  21
TORSDOF 6
ENDMDL
MODEL 7
REMARK VINA RESULT:    -5.020      2.869      5.445
REMARK INTER + INTRA:          -9.363
REMARK INTER:                  -6.810
REMARK INTRA:                  -2.553
REMARK CONF_INDEPENDENT:        1.790
REMARK UNBOUND:                -2.553
REMARK  6 active torsions:
REMARK  status: ('A' for Active; 'I' for Inactive)
REMARK       I    between atoms: C_2  and  N_3 
REMARK    1  A    between atoms: C_2  and  C_23 
REMARK    2  A    between atoms: N_3  and  N_4 
REMARK    3  A    between atoms: N_4  and  C_5 
REMARK    4  A    between atoms: C_14  and  N_15 
REMARK    5  A    between atoms: N_15  and  N_16 
REMARK       I    between atoms: N_16  and  C_17 
REMARK    6  A    between atoms: C_17  and  C_19 
ROOT
ATOM      1  C   UNL d   1      27.822 -16.553  -1.163  0.00  0.00     0.169 A 
ATOM      2  N   UNL d   1      27.185 -17.385  -0.302  0.00  0.00    -0.229 NA
ATOM      3  C   UNL d   1      25.835 -17.388  -0.337  0.00  0.00     0.087 A 
ATOM      4  C   UNL d   1      25.130 -18.200   0.551  0.00  0.00     0.034 A 
ATOM      5  C   UNL d   1      23.736 -18.277   0.537  0.00  0.00     0.002 A 
ATOM      6  C   UNL d   1      23.025 -17.526  -0.387  0.00  0.00     0.002 A 
ATOM      7  C   UNL d   1      23.718 -16.690  -1.271  0.00  0.00     0.034 A 
ATOM      8  C   UNL d   1      25.114 -16.591  -1.262  0.00  0.00     0.088 A 
ATOM      9  N   UNL d   1      25.759 -15.762  -2.122  0.00  0.00    -0.225 NA
ATOM     10  C   UNL d   1      27.116 -15.722  -2.078  0.00  0.00     0.185 A 
ENDROOT
BRANCH   1  11
ATOM     11  N   UNL d   1      29.240 -16.492  -1.161  0.00  0.00    -0.182 NA
ATOM     12  H   UNL d   1      29.563 -15.638  -0.688  0.00  0.00     0.154 HD
BRANCH  11  13
ATOM     13  N   UNL d   1      29.944 -17.639  -0.794  0.00  0.00    -0.278 N 
ATOM     14  C   UNL d   1      30.746 -18.175  -1.807  0.00  0.00     0.340 C 
ATOM     15  O   UNL d   1      30.990 -17.518  -2.825  0.00  0.00    -0.262 OA
ATOM     16  H   UNL d   1      29.546 -18.206  -0.042  0.00  0.00     0.184 HD
BRANCH  14  17
ATOM     17  C   UNL d   1      31.298 -19.584  -1.545  0.00  0.00     0.473 C 
ATOM     18  F   UNL d   1      31.177 -20.402  -2.627  0.00  0.00    -0.162 F 
ATOM     19  F   UNL d   1      32.618 -19.567  -1.217  0.00  0.00    -0.162 F 
ATOM     20  F   UNL d   1      30.653 -20.213  -0.520  0.00  0.00    -0.162 F 
ENDBRANCH  14  17
ENDBRANCH  11  13
ENDBRANCH   1  11
BRANCH  10  21
ATOM     21  N   UNL d   1      27.768 -14.914  -3.036  0.00  0.00    -0.278 N 
ATOM     22  H   UNL d   1      27.526 -13.925  -3.071  0.00  0.00     0.189 HD
BRANCH  21  23
ATOM     23  N   UNL d   1      28.873 -15.385  -3.767  0.00  0.00    -0.261 N 
ATOM     24  C   UNL d   1      28.770 -15.569  -5.144  0.00  0.00     0.343 C 
ATOM     25  O   UNL d   1      27.769 -15.224  -5.780  0.00  0.00    -0.262 OA
ATOM     26  H   UNL d   1      29.526 -15.985  -3.254  0.00  0.00     0.190 HD
BRANCH  24  27
ATOM     27  C   UNL d   1      30.030 -16.213  -5.771  0.00  0.00     0.473 C 
ATOM     28  F   UNL d   1      30.039 -17.568  -5.615  0.00  0.00    -0.162 F 
ATOM     29  F   UNL d   1      30.099 -15.989  -7.116  0.00  0.00    -0.162 F 
ATOM     30  F   UNL d   1      31.197 -15.756  -5.243  0.00  0.00    -0.162 F 
ENDBRANCH  24  27
ENDBRANCH  21  23
ENDBRANCH  10  21
TORSDOF 6
ENDMDL
MODEL 8
REMARK VINA RESULT:    -4.948      3.201      5.221
REMARK INTER + INTRA:          -9.511
REMARK INTER:                  -6.738
REMARK INTRA:                  -2.773
REMARK CONF_INDEPENDENT:        1.790
REMARK UNBOUND:                -2.773
REMARK  6 active torsions:
REMARK  status: ('A' for Active; 'I' for Inactive)
REMARK       I    between atoms: C_2  and  N_3 
REMARK    1  A    between atoms: C_2  and  C_23 
REMARK    2  A    between atoms: N_3  and  N_4 
REMARK    3  A    between atoms: N_4  and  C_5 
REMARK    4  A    between atoms: C_14  and  N_15 
REMARK    5  A    between atoms: N_15  and  N_16 
REMARK       I    between atoms: N_16  and  C_17 
REMARK    6  A    between atoms: C_17  and  C_19 
ROOT
ATOM      1  C   UNL d   1      27.360 -17.189  -0.905  0.00  0.00     0.169 A 
ATOM      2  N   UNL d   1      26.487 -18.037  -0.309  0.00  0.00    -0.229 NA
ATOM      3  C   UNL d   1      25.175 -17.729  -0.395  0.00  0.00     0.087 A 
ATOM      4  C   UNL d   1      24.237 -18.550   0.231  0.00  0.00     0.034 A 
ATOM      5  C   UNL d   1      22.865 -18.306   0.145  0.00  0.00     0.002 A 
ATOM      6  C   UNL d   1      22.415 -17.216  -0.584  0.00  0.00     0.002 A 
ATOM      7  C   UNL d   1      23.345 -16.372  -1.201  0.00  0.00     0.034 A 
ATOM      8  C   UNL d   1      24.725 -16.594  -1.114  0.00  0.00     0.088 A 
ATOM      9  N   UNL d   1      25.604 -15.749  -1.710  0.00  0.00    -0.225 NA
ATOM     10  C   UNL d   1      26.930 -16.027  -1.606  0.00  0.00     0.185 A 
ENDROOT
BRANCH   1  11
ATOM     11  N   UNL d   1      28.754 -17.450  -0.834  0.00  0.00    -0.182 NA
ATOM     12  H   UNL d   1      29.156 -17.519  -1.777  0.00  0.00     0.154 HD
BRANCH  11  13
ATOM     13  N   UNL d   1      29.518 -16.687   0.050  0.00  0.00    -0.278 N 
ATOM     14  C   UNL d   1      30.814 -16.411  -0.397  0.00  0.00     0.340 C 
ATOM     15  O   UNL d   1      31.125 -16.609  -1.577  0.00  0.00    -0.262 OA
ATOM     16  H   UNL d   1      29.270 -16.740   1.040  0.00  0.00     0.184 HD
BRANCH  14  17
ATOM     17  C   UNL d   1      31.773 -15.837   0.656  0.00  0.00     0.473 C 
ATOM     18  F   UNL d   1      32.803 -15.140   0.100  0.00  0.00    -0.162 F 
ATOM     19  F   UNL d   1      31.147 -14.986   1.514  0.00  0.00    -0.162 F 
ATOM     20  F   UNL d   1      32.344 -16.809   1.425  0.00  0.00    -0.162 F 
ENDBRANCH  14  17
ENDBRANCH  11  13
ENDBRANCH   1  11
BRANCH  10  21
ATOM     21  N   UNL d   1      27.823 -15.181  -2.302  0.00  0.00    -0.278 N 
ATOM     22  H   UNL d   1      27.764 -14.179  -2.128  0.00  0.00     0.189 HD
BRANCH  21  23
ATOM     23  N   UNL d   1      28.905 -15.698  -3.037  0.00  0.00    -0.261 N 
ATOM     24  C   UNL d   1      28.774 -15.922  -4.405  0.00  0.00     0.343 C 
ATOM     25  O   UNL d   1      27.768 -15.575  -5.035  0.00  0.00    -0.262 OA
ATOM     26  H   UNL d   1      29.554 -16.295  -2.517  0.00  0.00     0.190 HD
BRANCH  24  27
ATOM     27  C   UNL d   1      30.009 -16.610  -5.034  0.00  0.00     0.473 C 
ATOM     28  F   UNL d   1      31.176 -16.049  -4.604  0.00  0.00    -0.162 F 
ATOM     29  F   UNL d   1      30.082 -17.931  -4.698  0.00  0.00    -0.162 F 
ATOM     30  F   UNL d   1      30.032 -16.555  -6.393  0.00  0.00    -0.162 F 
ENDBRANCH  24  27
ENDBRANCH  21  23
ENDBRANCH  10  21
TORSDOF 6
ENDMDL
MODEL 9
REMARK VINA RESULT:    -4.326      2.930      4.262
REMARK INTER + INTRA:          -9.118
REMARK INTER:                  -6.116
REMARK INTRA:                  -3.002
REMARK CONF_INDEPENDENT:        1.790
REMARK UNBOUND:                -3.002
REMARK  6 active torsions:
REMARK  status: ('A' for Active; 'I' for Inactive)
REMARK       I    between atoms: C_2  and  N_3 
REMARK    1  A    between atoms: C_2  and  C_23 
REMARK    2  A    between atoms: N_3  and  N_4 
REMARK    3  A    between atoms: N_4  and  C_5 
REMARK    4  A    between atoms: C_14  and  N_15 
REMARK    5  A    between atoms: N_15  and  N_16 
REMARK       I    between atoms: N_16  and  C_17 
REMARK    6  A    between atoms: C_17  and  C_19 
ROOT
ATOM      1  C   UNL d   1      27.172 -16.322  -1.564  0.00  0.00     0.169 A 
ATOM      2  N   UNL d   1      25.874 -15.967  -1.728  0.00  0.00    -0.229 NA
ATOM      3  C   UNL d   1      24.947 -16.727  -1.106  0.00  0.00     0.087 A 
ATOM      4  C   UNL d   1      23.595 -16.426  -1.271  0.00  0.00     0.034 A 
ATOM      5  C   UNL d   1      22.591 -17.150  -0.622  0.00  0.00     0.002 A 
ATOM      6  C   UNL d   1      22.944 -18.200   0.212  0.00  0.00     0.002 A 
ATOM      7  C   UNL d   1      24.296 -18.527   0.369  0.00  0.00     0.034 A 
ATOM      8  C   UNL d   1      25.314 -17.820  -0.283  0.00  0.00     0.088 A 
ATOM      9  N   UNL d   1      26.616 -18.169  -0.122  0.00  0.00    -0.225 NA
ATOM     10  C   UNL d   1      27.560 -17.435  -0.767  0.00  0.00     0.185 A 
ENDROOT
BRANCH   1  11
ATOM     11  N   UNL d   1      28.192 -15.572  -2.208  0.00  0.00    -0.182 NA
ATOM     12  H   UNL d   1      29.116 -15.970  -2.000  0.00  0.00     0.154 HD
BRANCH  11  13
ATOM     13  N   UNL d   1      28.011 -15.241  -3.552  0.00  0.00    -0.278 N 
ATOM     14  C   UNL d   1      28.978 -15.769  -4.413  0.00  0.00     0.340 C 
ATOM     15  O   UNL d   1      29.746 -16.657  -4.023  0.00  0.00    -0.262 OA
ATOM     16  H   UNL d   1      27.501 -14.377  -3.751  0.00  0.00     0.184 HD
BRANCH  14  17
ATOM     17  C   UNL d   1      28.989 -15.193  -5.836  0.00  0.00     0.473 C 
ATOM     18  F   UNL d   1      29.565 -13.960  -5.897  0.00  0.00    -0.162 F 
ATOM     19  F   UNL d   1      29.672 -15.984  -6.707  0.00  0.00    -0.162 F 
ATOM     20  F   UNL d   1      27.732 -15.051  -6.349  0.00  0.00    -0.162 F 
ENDBRANCH  14  17
ENDBRANCH  11  13
ENDBRANCH   1  11
BRANCH  10  21
ATOM     21  N   UNL d   1      28.912 -17.764  -0.520  0.00  0.00    -0.278 N 
ATOM     22  H   UNL d   1      29.155 -18.120   0.403  0.00  0.00     0.189 HD
BRANCH  21  23
ATOM     23  N   UNL d   1      29.857 -17.823  -1.560  0.00  0.00    -0.261 N 
ATOM     24  C   UNL d   1      31.174 -18.182  -1.285  0.00  0.00     0.343 C 
ATOM     25  O   UNL d   1      31.530 -18.569  -0.166  0.00  0.00    -0.262 OA
ATOM     26  H   UNL d   1      29.691 -17.194  -2.351  0.00  0.00     0.190 HD
BRANCH  24  27
ATOM     27  C   UNL d   1      32.108 -18.072  -2.514  0.00  0.00     0.473 C 
ATOM     28  F   UNL d   1      32.347 -16.773  -2.854  0.00  0.00    -0.162 F 
ATOM     29  F   UNL d   1      33.331 -18.629  -2.274  0.00  0.00    -0.162 F 
ATOM     30  F   UNL d   1      31.618 -18.679  -3.628  0.00  0.00    -0.162 F 
ENDBRANCH  24  27
ENDBRANCH  21  23
ENDBRANCH  10  21
TORSDOF 6
ENDMDL
