MODEL 1
REMARK VINA RESULT:    -8.467      0.000      0.000
REMARK INTER + INTRA:         -12.986
REMARK INTER:                 -11.152
REMARK INTRA:                  -1.835
REMARK CONF_INDEPENDENT:        2.685
REMARK UNBOUND:                -1.835
REMARK  9 active torsions:
REMARK  status: ('A' for Active; 'I' for Inactive)
REMARK    1  A    between atoms: C_4  and  O_5 
REMARK    2  A    between atoms: O_5  and  C_6 
REMARK    3  A    between atoms: C_6  and  C_7 
REMARK       I    between atoms: C_7  and  N_9 
REMARK    4  A    between atoms: N_9  and  C_10 
REMARK    5  A    between atoms: C_10  and  N_12 
REMARK    6  A    between atoms: N_12  and  N_13 
REMARK       I    between atoms: N_13  and  C_14 
REMARK    7  A    between atoms: C_14  and  C_16 
REMARK    8  A    between atoms: C_16  and  O_17 
REMARK    9  A    between atoms: O_17  and  C_18 
ROOT
ATOM      1  C   UNL d   1      25.901 -10.430  -3.062  0.00  0.00     0.193 C 
ATOM      2  S   UNL d   1      27.078 -10.461  -1.849  0.00  0.00    -0.039 SA
ENDROOT
BRANCH   1   3
ATOM      3  N   UNL d   1      25.372  -9.252  -3.661  0.00  0.00    -0.301 N 
ATOM      4  C   UNL d   1      25.996  -8.481  -4.681  0.00  0.00     0.248 C 
ATOM      5  O   UNL d   1      27.098  -8.774  -5.152  0.00  0.00    -0.271 OA
ATOM      6  H   UNL d   1      24.466  -8.937  -3.335  0.00  0.00     0.171 HD
BRANCH   4   7
ATOM      7  C   UNL d   1      25.284  -7.213  -5.239  0.00  0.00     0.278 C 
BRANCH   7   8
ATOM      8  O   UNL d   1      23.862  -7.316  -4.955  0.00  0.00    -0.342 OA
BRANCH   8   9
ATOM      9  C   UNL d   1      22.937  -6.880  -5.867  0.00  0.00     0.070 A 
ATOM     10  C   UNL d   1      23.108  -6.948  -7.246  0.00  0.00     0.044 A 
ATOM     11  C   UNL d   1      22.117  -6.484  -8.135  0.00  0.00    -0.042 A 
ATOM     12  C   UNL d   1      22.378  -6.585  -9.610  0.00  0.00     0.049 C 
ATOM     13  C   UNL d   1      20.931  -5.944  -7.618  0.00  0.00     0.017 A 
ATOM     14  C   UNL d   1      20.745  -5.866  -6.237  0.00  0.00     0.022 A 
ATOM     15 BR   UNL d   1      19.548  -5.296  -8.750  0.00  0.00    -0.051 Br
ATOM     16  C   UNL d   1      21.746  -6.330  -5.368  0.00  0.00     0.038 A 
ENDBRANCH   8   9
ENDBRANCH   7   8
ENDBRANCH   4   7
ENDBRANCH   1   3
BRANCH   1  17
ATOM     17  N   UNL d   1      25.387 -11.655  -3.536  0.00  0.00    -0.273 N 
ATOM     18  H   UNL d   1      24.706 -11.787  -4.282  0.00  0.00     0.189 HD
BRANCH  17  19
ATOM     19  N   UNL d   1      25.862 -12.905  -2.934  0.00  0.00    -0.266 N 
ATOM     20  C   UNL d   1      25.505 -14.148  -3.450  0.00  0.00     0.260 C 
ATOM     21  O   UNL d   1      24.764 -14.239  -4.436  0.00  0.00    -0.269 OA
ATOM     22  H   UNL d   1      26.446 -12.790  -2.103  0.00  0.00     0.190 HD
BRANCH  20  23
ATOM     23  C   UNL d   1      26.056 -15.385  -2.671  0.00  0.00     0.280 C 
BRANCH  23  24
ATOM     24  O   UNL d   1      25.541 -15.501  -1.337  0.00  0.00    -0.342 OA
BRANCH  24  25
ATOM     25  C   UNL d   1      24.635 -16.490  -1.025  0.00  0.00     0.075 A 
ATOM     26  C   UNL d   1      23.285 -16.145  -1.237  0.00  0.00     0.039 A 
ATOM     27  C   UNL d   1      22.238 -17.017  -0.895  0.00  0.00     0.026 A 
ATOM     28  C   UNL d   1      22.529 -18.235  -0.299  0.00  0.00     0.034 A 
ATOM     29 CL   UNL d   1      21.266 -19.324   0.129  0.00  0.00    -0.084 Cl
ATOM     30  C   UNL d   1      23.854 -18.582  -0.050  0.00  0.00     0.033 A 
ATOM     31  C   UNL d   1      24.917 -17.723  -0.413  0.00  0.00    -0.027 A 
ATOM     32  C   UNL d   1      26.300 -18.198  -0.095  0.00  0.00     0.051 C 
ENDBRANCH  24  25
ENDBRANCH  23  24
ENDBRANCH  20  23
ENDBRANCH  17  19
ENDBRANCH   1  17
TORSDOF 9
ENDMDL
MODEL 2
REMARK VINA RESULT:    -7.676      6.287      9.501
REMARK INTER + INTRA:         -13.288
REMARK INTER:                 -10.360
REMARK INTRA:                  -2.928
REMARK CONF_INDEPENDENT:        2.685
REMARK UNBOUND:                -2.928
REMARK  9 active torsions:
REMARK  status: ('A' for Active; 'I' for Inactive)
REMARK    1  A    between atoms: C_4  and  O_5 
REMARK    2  A    between atoms: O_5  and  C_6 
REMARK    3  A    between atoms: C_6  and  C_7 
REMARK       I    between atoms: C_7  and  N_9 
REMARK    4  A    between atoms: N_9  and  C_10 
REMARK    5  A    between atoms: C_10  and  N_12 
REMARK    6  A    between atoms: N_12  and  N_13 
REMARK       I    between atoms: N_13  and  C_14 
REMARK    7  A    between atoms: C_14  and  C_16 
REMARK    8  A    between atoms: C_16  and  O_17 
REMARK    9  A    between atoms: O_17  and  C_18 
ROOT
ATOM      1  C   UNL d   1      27.866 -12.758  -6.727  0.00  0.00     0.193 C 
ATOM      2  S   UNL d   1      28.074 -11.166  -7.253  0.00  0.00    -0.039 SA
ENDROOT
BRANCH   1   3
ATOM      3  N   UNL d   1      26.905 -13.186  -5.767  0.00  0.00    -0.301 N 
ATOM      4  C   UNL d   1      26.217 -12.349  -4.845  0.00  0.00     0.248 C 
ATOM      5  O   UNL d   1      26.402 -11.131  -4.790  0.00  0.00    -0.271 OA
ATOM      6  H   UNL d   1      26.690 -14.174  -5.742  0.00  0.00     0.171 HD
BRANCH   4   7
ATOM      7  C   UNL d   1      25.186 -12.971  -3.856  0.00  0.00     0.278 C 
BRANCH   7   8
ATOM      8  O   UNL d   1      25.180 -14.414  -4.038  0.00  0.00    -0.342 OA
BRANCH   8   9
ATOM      9  C   UNL d   1      25.436 -15.248  -2.981  0.00  0.00     0.070 A 
ATOM     10  C   UNL d   1      24.452 -15.855  -2.208  0.00  0.00     0.044 A 
ATOM     11  C   UNL d   1      24.780 -16.707  -1.134  0.00  0.00    -0.042 A 
ATOM     12  C   UNL d   1      23.661 -17.320  -0.342  0.00  0.00     0.049 C 
ATOM     13  C   UNL d   1      26.129 -16.949  -0.838  0.00  0.00     0.017 A 
ATOM     14  C   UNL d   1      27.129 -16.346  -1.601  0.00  0.00     0.022 A 
ATOM     15 BR   UNL d   1      26.653 -18.084   0.595  0.00  0.00    -0.051 Br
ATOM     16  C   UNL d   1      26.781 -15.497  -2.665  0.00  0.00     0.038 A 
ENDBRANCH   8   9
ENDBRANCH   7   8
ENDBRANCH   4   7
ENDBRANCH   1   3
BRANCH   1  17
ATOM     17  N   UNL d   1      28.696 -13.762  -7.268  0.00  0.00    -0.273 N 
ATOM     18  H   UNL d   1      28.877 -13.943  -8.254  0.00  0.00     0.189 HD
BRANCH  17  19
ATOM     19  N   UNL d   1      29.410 -14.661  -6.357  0.00  0.00    -0.266 N 
ATOM     20  C   UNL d   1      28.732 -15.535  -5.510  0.00  0.00     0.260 C 
ATOM     21  O   UNL d   1      27.497 -15.575  -5.494  0.00  0.00    -0.269 OA
ATOM     22  H   UNL d   1      30.429 -14.577  -6.376  0.00  0.00     0.190 HD
BRANCH  20  23
ATOM     23  C   UNL d   1      29.634 -16.396  -4.568  0.00  0.00     0.280 C 
BRANCH  23  24
ATOM     24  O   UNL d   1      30.932 -16.675  -5.111  0.00  0.00    -0.342 OA
BRANCH  24  25
ATOM     25  C   UNL d   1      31.059 -17.444  -6.246  0.00  0.00     0.075 A 
ATOM     26  C   UNL d   1      30.588 -18.766  -6.122  0.00  0.00     0.039 A 
ATOM     27  C   UNL d   1      30.717 -19.697  -7.166  0.00  0.00     0.026 A 
ATOM     28  C   UNL d   1      31.358 -19.327  -8.338  0.00  0.00     0.034 A 
ATOM     29 CL   UNL d   1      31.530 -20.446  -9.634  0.00  0.00    -0.084 Cl
ATOM     30  C   UNL d   1      31.863 -18.036  -8.469  0.00  0.00     0.033 A 
ATOM     31  C   UNL d   1      31.715 -17.082  -7.436  0.00  0.00    -0.027 A 
ATOM     32  C   UNL d   1      32.298 -15.727  -7.686  0.00  0.00     0.051 C 
ENDBRANCH  24  25
ENDBRANCH  23  24
ENDBRANCH  20  23
ENDBRANCH  17  19
ENDBRANCH   1  17
TORSDOF 9
ENDMDL
MODEL 3
REMARK VINA RESULT:    -7.422      6.948      9.841
REMARK INTER + INTRA:         -12.924
REMARK INTER:                 -10.107
REMARK INTRA:                  -2.817
REMARK CONF_INDEPENDENT:        2.685
REMARK UNBOUND:                -2.817
REMARK  9 active torsions:
REMARK  status: ('A' for Active; 'I' for Inactive)
REMARK    1  A    between atoms: C_4  and  O_5 
REMARK    2  A    between atoms: O_5  and  C_6 
REMARK    3  A    between atoms: C_6  and  C_7 
REMARK       I    between atoms: C_7  and  N_9 
REMARK    4  A    between atoms: N_9  and  C_10 
REMARK    5  A    between atoms: C_10  and  N_12 
REMARK    6  A    between atoms: N_12  and  N_13 
REMARK       I    between atoms: N_13  and  C_14 
REMARK    7  A    between atoms: C_14  and  C_16 
REMARK    8  A    between atoms: C_16  and  O_17 
REMARK    9  A    between atoms: O_17  and  C_18 
ROOT
ATOM      1  C   UNL d   1      28.681 -15.235  -5.857  0.00  0.00     0.193 C 
ATOM      2  S   UNL d   1      29.345 -14.101  -6.920  0.00  0.00    -0.039 SA
ENDROOT
BRANCH   1   3
ATOM      3  N   UNL d   1      29.334 -16.419  -5.408  0.00  0.00    -0.301 N 
ATOM      4  C   UNL d   1      29.973 -16.594  -4.149  0.00  0.00     0.248 C 
ATOM      5  O   UNL d   1      30.024 -15.698  -3.302  0.00  0.00    -0.271 OA
ATOM      6  H   UNL d   1      29.339 -17.208  -6.042  0.00  0.00     0.171 HD
BRANCH   4   7
ATOM      7  C   UNL d   1      30.642 -17.958  -3.804  0.00  0.00     0.278 C 
BRANCH   7   8
ATOM      8  O   UNL d   1      30.184 -18.955  -4.758  0.00  0.00    -0.342 OA
BRANCH   8   9
ATOM      9  C   UNL d   1      30.779 -19.064  -5.987  0.00  0.00     0.070 A 
ATOM     10  C   UNL d   1      31.709 -18.161  -6.488  0.00  0.00     0.044 A 
ATOM     11  C   UNL d   1      32.289 -18.330  -7.762  0.00  0.00    -0.042 A 
ATOM     12  C   UNL d   1      33.282 -17.308  -8.236  0.00  0.00     0.049 C 
ATOM     13  C   UNL d   1      31.920 -19.435  -8.541  0.00  0.00     0.017 A 
ATOM     14  C   UNL d   1      30.986 -20.350  -8.056  0.00  0.00     0.022 A 
ATOM     15 BR   UNL d   1      32.655 -19.733 -10.270  0.00  0.00    -0.051 Br
ATOM     16  C   UNL d   1      30.416 -20.161  -6.785  0.00  0.00     0.038 A 
ENDBRANCH   8   9
ENDBRANCH   7   8
ENDBRANCH   4   7
ENDBRANCH   1   3
BRANCH   1  17
ATOM     17  N   UNL d   1      27.381 -15.013  -5.359  0.00  0.00    -0.273 N 
ATOM     18  H   UNL d   1      26.525 -14.909  -5.902  0.00  0.00     0.189 HD
BRANCH  17  19
ATOM     19  N   UNL d   1      27.180 -14.928  -3.910  0.00  0.00    -0.266 N 
ATOM     20  C   UNL d   1      25.927 -14.673  -3.357  0.00  0.00     0.260 C 
ATOM     21  O   UNL d   1      24.938 -14.501  -4.078  0.00  0.00    -0.269 OA
ATOM     22  H   UNL d   1      28.027 -15.045  -3.348  0.00  0.00     0.190 HD
BRANCH  20  23
ATOM     23  C   UNL d   1      25.886 -14.570  -1.799  0.00  0.00     0.280 C 
BRANCH  23  24
ATOM     24  O   UNL d   1      26.153 -15.812  -1.132  0.00  0.00    -0.342 OA
BRANCH  24  25
ATOM     25  C   UNL d   1      25.127 -16.692  -0.866  0.00  0.00     0.075 A 
ATOM     26  C   UNL d   1      23.842 -16.223  -1.206  0.00  0.00     0.039 A 
ATOM     27  C   UNL d   1      22.686 -16.972  -0.926  0.00  0.00     0.026 A 
ATOM     28  C   UNL d   1      22.800 -18.186  -0.266  0.00  0.00     0.034 A 
ATOM     29 CL   UNL d   1      21.401 -19.123   0.089  0.00  0.00    -0.084 Cl
ATOM     30  C   UNL d   1      24.057 -18.651   0.110  0.00  0.00     0.033 A 
ATOM     31  C   UNL d   1      25.229 -17.919  -0.189  0.00  0.00    -0.027 A 
ATOM     32  C   UNL d   1      26.525 -18.515   0.264  0.00  0.00     0.051 C 
ENDBRANCH  24  25
ENDBRANCH  23  24
ENDBRANCH  20  23
ENDBRANCH  17  19
ENDBRANCH   1  17
TORSDOF 9
ENDMDL
MODEL 4
REMARK VINA RESULT:    -7.389      5.693      8.138
REMARK INTER + INTRA:         -14.094
REMARK INTER:                 -10.073
REMARK INTRA:                  -4.021
REMARK CONF_INDEPENDENT:        2.685
REMARK UNBOUND:                -4.021
REMARK  9 active torsions:
REMARK  status: ('A' for Active; 'I' for Inactive)
REMARK    1  A    between atoms: C_4  and  O_5 
REMARK    2  A    between atoms: O_5  and  C_6 
REMARK    3  A    between atoms: C_6  and  C_7 
REMARK       I    between atoms: C_7  and  N_9 
REMARK    4  A    between atoms: N_9  and  C_10 
REMARK    5  A    between atoms: C_10  and  N_12 
REMARK    6  A    between atoms: N_12  and  N_13 
REMARK       I    between atoms: N_13  and  C_14 
REMARK    7  A    between atoms: C_14  and  C_16 
REMARK    8  A    between atoms: C_16  and  O_17 
REMARK    9  A    between atoms: O_17  and  C_18 
ROOT
ATOM      1  C   UNL d   1      26.231 -11.787  -3.775  0.00  0.00     0.193 C 
ATOM      2  S   UNL d   1      25.755 -10.319  -4.466  0.00  0.00    -0.039 SA
ENDROOT
BRANCH   1   3
ATOM      3  N   UNL d   1      26.519 -12.979  -4.499  0.00  0.00    -0.301 N 
ATOM      4  C   UNL d   1      25.718 -14.154  -4.526  0.00  0.00     0.248 C 
ATOM      5  O   UNL d   1      24.662 -14.250  -3.895  0.00  0.00    -0.271 OA
ATOM      6  H   UNL d   1      27.369 -12.988  -5.049  0.00  0.00     0.171 HD
BRANCH   4   7
ATOM      7  C   UNL d   1      26.170 -15.380  -5.374  0.00  0.00     0.278 C 
BRANCH   7   8
ATOM      8  O   UNL d   1      27.565 -15.201  -5.744  0.00  0.00    -0.342 OA
BRANCH   8   9
ATOM      9  C   UNL d   1      28.558 -15.806  -5.020  0.00  0.00     0.070 A 
ATOM     10  C   UNL d   1      28.546 -15.940  -3.636  0.00  0.00     0.044 A 
ATOM     11  C   UNL d   1      29.598 -16.577  -2.948  0.00  0.00    -0.042 A 
ATOM     12  C   UNL d   1      29.516 -16.677  -1.452  0.00  0.00     0.049 C 
ATOM     13  C   UNL d   1      30.682 -17.089  -3.675  0.00  0.00     0.017 A 
ATOM     14  C   UNL d   1      30.712 -16.960  -5.064  0.00  0.00     0.022 A 
ATOM     15 BR   UNL d   1      32.141 -17.959  -2.821  0.00  0.00    -0.051 Br
ATOM     16  C   UNL d   1      29.655 -16.318  -5.730  0.00  0.00     0.038 A 
ENDBRANCH   8   9
ENDBRANCH   7   8
ENDBRANCH   4   7
ENDBRANCH   1   3
BRANCH   1  17
ATOM     17  N   UNL d   1      26.363 -11.862  -2.373  0.00  0.00    -0.273 N 
ATOM     18  H   UNL d   1      26.401 -11.082  -1.718  0.00  0.00     0.189 HD
BRANCH  17  19
ATOM     19  N   UNL d   1      26.448 -13.179  -1.737  0.00  0.00    -0.266 N 
ATOM     20  C   UNL d   1      26.928 -13.337  -0.439  0.00  0.00     0.260 C 
ATOM     21  O   UNL d   1      27.309 -12.363   0.221  0.00  0.00    -0.269 OA
ATOM     22  H   UNL d   1      26.153 -13.962  -2.324  0.00  0.00     0.190 HD
BRANCH  20  23
ATOM     23  C   UNL d   1      26.996 -14.809   0.081  0.00  0.00     0.280 C 
BRANCH  23  24
ATOM     24  O   UNL d   1      26.759 -15.790  -0.938  0.00  0.00    -0.342 OA
BRANCH  24  25
ATOM     25  C   UNL d   1      25.676 -16.637  -0.846  0.00  0.00     0.075 A 
ATOM     26  C   UNL d   1      24.472 -16.117  -1.359  0.00  0.00     0.039 A 
ATOM     27  C   UNL d   1      23.263 -16.828  -1.270  0.00  0.00     0.026 A 
ATOM     28  C   UNL d   1      23.238 -18.057  -0.629  0.00  0.00     0.034 A 
ATOM     29 CL   UNL d   1      21.772 -18.951  -0.506  0.00  0.00    -0.084 Cl
ATOM     30  C   UNL d   1      24.410 -18.575  -0.084  0.00  0.00     0.033 A 
ATOM     31  C   UNL d   1      25.637 -17.880  -0.191  0.00  0.00    -0.027 A 
ATOM     32  C   UNL d   1      26.832 -18.531   0.433  0.00  0.00     0.051 C 
ENDBRANCH  24  25
ENDBRANCH  23  24
ENDBRANCH  20  23
ENDBRANCH  17  19
ENDBRANCH   1  17
TORSDOF 9
ENDMDL
MODEL 5
REMARK VINA RESULT:    -7.200      8.013     10.258
REMARK INTER + INTRA:         -13.319
REMARK INTER:                  -9.885
REMARK INTRA:                  -3.434
REMARK CONF_INDEPENDENT:        2.685
REMARK UNBOUND:                -3.434
REMARK  9 active torsions:
REMARK  status: ('A' for Active; 'I' for Inactive)
REMARK    1  A    between atoms: C_4  and  O_5 
REMARK    2  A    between atoms: O_5  and  C_6 
REMARK    3  A    between atoms: C_6  and  C_7 
REMARK       I    between atoms: C_7  and  N_9 
REMARK    4  A    between atoms: N_9  and  C_10 
REMARK    5  A    between atoms: C_10  and  N_12 
REMARK    6  A    between atoms: N_12  and  N_13 
REMARK       I    between atoms: N_13  and  C_14 
REMARK    7  A    between atoms: C_14  and  C_16 
REMARK    8  A    between atoms: C_16  and  O_17 
REMARK    9  A    between atoms: O_17  and  C_18 
ROOT
ATOM      1  C   UNL d   1      31.764 -14.546   1.922  0.00  0.00     0.193 C 
ATOM      2  S   UNL d   1      33.121 -13.722   1.343  0.00  0.00    -0.039 SA
ENDROOT
BRANCH   1   3
ATOM      3  N   UNL d   1      30.894 -15.351   1.132  0.00  0.00    -0.301 N 
ATOM      4  C   UNL d   1      30.735 -15.272  -0.280  0.00  0.00     0.248 C 
ATOM      5  O   UNL d   1      31.359 -14.463  -0.972  0.00  0.00    -0.271 OA
ATOM      6  H   UNL d   1      30.342 -16.045   1.620  0.00  0.00     0.171 HD
BRANCH   4   7
ATOM      7  C   UNL d   1      29.742 -16.230  -1.002  0.00  0.00     0.278 C 
BRANCH   7   8
ATOM      8  O   UNL d   1      28.936 -16.906   0.002  0.00  0.00    -0.342 OA
BRANCH   8   9
ATOM      9  C   UNL d   1      27.582 -17.034  -0.166  0.00  0.00     0.070 A 
ATOM     10  C   UNL d   1      26.828 -16.268  -1.048  0.00  0.00     0.044 A 
ATOM     11  C   UNL d   1      25.436 -16.449  -1.178  0.00  0.00    -0.042 A 
ATOM     12  C   UNL d   1      24.690 -15.579  -2.147  0.00  0.00     0.049 C 
ATOM     13  C   UNL d   1      24.797 -17.425  -0.400  0.00  0.00     0.017 A 
ATOM     14  C   UNL d   1      25.537 -18.200   0.493  0.00  0.00     0.022 A 
ATOM     15 BR   UNL d   1      22.923 -17.730  -0.515  0.00  0.00    -0.051 Br
ATOM     16  C   UNL d   1      26.923 -18.001   0.610  0.00  0.00     0.038 A 
ENDBRANCH   8   9
ENDBRANCH   7   8
ENDBRANCH   4   7
ENDBRANCH   1   3
BRANCH   1  17
ATOM     17  N   UNL d   1      31.447 -14.446   3.292  0.00  0.00    -0.273 N 
ATOM     18  H   UNL d   1      32.058 -14.121   4.041  0.00  0.00     0.189 HD
BRANCH  17  19
ATOM     19  N   UNL d   1      30.104 -14.825   3.741  0.00  0.00    -0.266 N 
ATOM     20  C   UNL d   1      29.581 -14.373   4.950  0.00  0.00     0.260 C 
ATOM     21  O   UNL d   1      30.240 -13.637   5.693  0.00  0.00    -0.269 OA
ATOM     22  H   UNL d   1      29.603 -15.459   3.115  0.00  0.00     0.190 HD
BRANCH  20  23
ATOM     23  C   UNL d   1      28.154 -14.901   5.307  0.00  0.00     0.280 C 
BRANCH  23  24
ATOM     24  O   UNL d   1      27.101 -14.244   4.588  0.00  0.00    -0.342 OA
BRANCH  24  25
ATOM     25  C   UNL d   1      27.372 -13.581   3.411  0.00  0.00     0.075 A 
ATOM     26  C   UNL d   1      27.406 -14.399   2.265  0.00  0.00     0.039 A 
ATOM     27  C   UNL d   1      27.745 -13.886   1.002  0.00  0.00     0.026 A 
ATOM     28  C   UNL d   1      28.093 -12.549   0.877  0.00  0.00     0.034 A 
ATOM     29 CL   UNL d   1      28.511 -11.893  -0.658  0.00  0.00    -0.084 Cl
ATOM     30  C   UNL d   1      28.100 -11.731   2.003  0.00  0.00     0.033 A 
ATOM     31  C   UNL d   1      27.735 -12.230   3.274  0.00  0.00    -0.027 A 
ATOM     32  C   UNL d   1      27.780 -11.260   4.414  0.00  0.00     0.051 C 
ENDBRANCH  24  25
ENDBRANCH  23  24
ENDBRANCH  20  23
ENDBRANCH  17  19
ENDBRANCH   1  17
TORSDOF 9
ENDMDL
MODEL 6
REMARK VINA RESULT:    -7.098      3.628      4.807
REMARK INTER + INTRA:         -13.029
REMARK INTER:                  -9.783
REMARK INTRA:                  -3.246
REMARK CONF_INDEPENDENT:        2.685
REMARK UNBOUND:                -3.246
REMARK  9 active torsions:
REMARK  status: ('A' for Active; 'I' for Inactive)
REMARK    1  A    between atoms: C_4  and  O_5 
REMARK    2  A    between atoms: O_5  and  C_6 
REMARK    3  A    between atoms: C_6  and  C_7 
REMARK       I    between atoms: C_7  and  N_9 
REMARK    4  A    between atoms: N_9  and  C_10 
REMARK    5  A    between atoms: C_10  and  N_12 
REMARK    6  A    between atoms: N_12  and  N_13 
REMARK       I    between atoms: N_13  and  C_14 
REMARK    7  A    between atoms: C_14  and  C_16 
REMARK    8  A    between atoms: C_16  and  O_17 
REMARK    9  A    between atoms: O_17  and  C_18 
ROOT
ATOM      1  C   UNL d   1      28.270 -14.853  -5.250  0.00  0.00     0.193 C 
ATOM      2  S   UNL d   1      28.902 -14.706  -6.811  0.00  0.00    -0.039 SA
ENDROOT
BRANCH   1   3
ATOM      3  N   UNL d   1      27.278 -14.003  -4.683  0.00  0.00    -0.301 N 
ATOM      4  C   UNL d   1      25.976 -14.400  -4.269  0.00  0.00     0.248 C 
ATOM      5  O   UNL d   1      25.574 -15.562  -4.372  0.00  0.00    -0.271 OA
ATOM      6  H   UNL d   1      27.523 -13.029  -4.560  0.00  0.00     0.171 HD
BRANCH   4   7
ATOM      7  C   UNL d   1      25.002 -13.347  -3.661  0.00  0.00     0.278 C 
BRANCH   7   8
ATOM      8  O   UNL d   1      25.736 -12.112  -3.433  0.00  0.00    -0.342 OA
BRANCH   8   9
ATOM      9  C   UNL d   1      25.843 -11.175  -4.427  0.00  0.00     0.070 A 
ATOM     10  C   UNL d   1      26.127 -11.473  -5.755  0.00  0.00     0.044 A 
ATOM     11  C   UNL d   1      26.220 -10.462  -6.733  0.00  0.00    -0.042 A 
ATOM     12  C   UNL d   1      26.537 -10.862  -8.145  0.00  0.00     0.049 C 
ATOM     13  C   UNL d   1      26.022  -9.125  -6.358  0.00  0.00     0.017 A 
ATOM     14  C   UNL d   1      25.740  -8.808  -5.030  0.00  0.00     0.022 A 
ATOM     15 BR   UNL d   1      26.134  -7.705  -7.617  0.00  0.00    -0.051 Br
ATOM     16  C   UNL d   1      25.654  -9.831  -4.069  0.00  0.00     0.038 A 
ENDBRANCH   8   9
ENDBRANCH   7   8
ENDBRANCH   4   7
ENDBRANCH   1   3
BRANCH   1  17
ATOM     17  N   UNL d   1      28.746 -15.892  -4.424  0.00  0.00    -0.273 N 
ATOM     18  H   UNL d   1      29.459 -16.583  -4.656  0.00  0.00     0.189 HD
BRANCH  17  19
ATOM     19  N   UNL d   1      28.199 -16.032  -3.072  0.00  0.00    -0.266 N 
ATOM     20  C   UNL d   1      28.954 -16.560  -2.026  0.00  0.00     0.260 C 
ATOM     21  O   UNL d   1      30.116 -16.938  -2.210  0.00  0.00    -0.269 OA
ATOM     22  H   UNL d   1      27.225 -15.738  -2.967  0.00  0.00     0.190 HD
BRANCH  20  23
ATOM     23  C   UNL d   1      28.213 -16.684  -0.656  0.00  0.00     0.280 C 
BRANCH  23  24
ATOM     24  O   UNL d   1      26.941 -16.024  -0.627  0.00  0.00    -0.342 OA
BRANCH  24  25
ATOM     25  C   UNL d   1      25.777 -16.761  -0.582  0.00  0.00     0.075 A 
ATOM     26  C   UNL d   1      24.699 -16.209  -1.301  0.00  0.00     0.039 A 
ATOM     27  C   UNL d   1      23.424 -16.801  -1.289  0.00  0.00     0.026 A 
ATOM     28  C   UNL d   1      23.204 -17.936  -0.523  0.00  0.00     0.034 A 
ATOM     29 CL   UNL d   1      21.653 -18.683  -0.491  0.00  0.00    -0.084 Cl
ATOM     30  C   UNL d   1      24.247 -18.478   0.222  0.00  0.00     0.033 A 
ATOM     31  C   UNL d   1      25.540 -17.906   0.197  0.00  0.00    -0.027 A 
ATOM     32  C   UNL d   1      26.584 -18.572   1.039  0.00  0.00     0.051 C 
ENDBRANCH  24  25
ENDBRANCH  23  24
ENDBRANCH  20  23
ENDBRANCH  17  19
ENDBRANCH   1  17
TORSDOF 9
ENDMDL
MODEL 7
REMARK VINA RESULT:    -6.595      5.699      8.618
REMARK INTER + INTRA:         -13.872
REMARK INTER:                  -9.279
REMARK INTRA:                  -4.592
REMARK CONF_INDEPENDENT:        2.685
REMARK UNBOUND:                -4.592
REMARK  9 active torsions:
REMARK  status: ('A' for Active; 'I' for Inactive)
REMARK    1  A    between atoms: C_4  and  O_5 
REMARK    2  A    between atoms: O_5  and  C_6 
REMARK    3  A    between atoms: C_6  and  C_7 
REMARK       I    between atoms: C_7  and  N_9 
REMARK    4  A    between atoms: N_9  and  C_10 
REMARK    5  A    between atoms: C_10  and  N_12 
REMARK    6  A    between atoms: N_12  and  N_13 
REMARK       I    between atoms: N_13  and  C_14 
REMARK    7  A    between atoms: C_14  and  C_16 
REMARK    8  A    between atoms: C_16  and  O_17 
REMARK    9  A    between atoms: O_17  and  C_18 
ROOT
ATOM      1  C   UNL d   1      26.404 -10.999  -3.115  0.00  0.00     0.193 C 
ATOM      2  S   UNL d   1      26.359  -9.310  -3.060  0.00  0.00    -0.039 SA
ENDROOT
BRANCH   1   3
ATOM      3  N   UNL d   1      27.155 -11.828  -2.235  0.00  0.00    -0.301 N 
ATOM      4  C   UNL d   1      28.321 -12.570  -2.577  0.00  0.00     0.248 C 
ATOM      5  O   UNL d   1      28.801 -12.562  -3.713  0.00  0.00    -0.271 OA
ATOM      6  H   UNL d   1      26.833 -11.893  -1.278  0.00  0.00     0.171 HD
BRANCH   4   7
ATOM      7  C   UNL d   1      29.035 -13.432  -1.494  0.00  0.00     0.278 C 
BRANCH   7   8
ATOM      8  O   UNL d   1      28.104 -13.675  -0.405  0.00  0.00    -0.342 OA
BRANCH   8   9
ATOM      9  C   UNL d   1      27.219 -14.719  -0.468  0.00  0.00     0.070 A 
ATOM     10  C   UNL d   1      27.368 -15.913   0.229  0.00  0.00     0.044 A 
ATOM     11  C   UNL d   1      26.420 -16.951   0.125  0.00  0.00    -0.042 A 
ATOM     12  C   UNL d   1      26.655 -18.213   0.904  0.00  0.00     0.049 C 
ATOM     13  C   UNL d   1      25.300 -16.775  -0.699  0.00  0.00     0.017 A 
ATOM     14  C   UNL d   1      25.136 -15.585  -1.408  0.00  0.00     0.022 A 
ATOM     15 BR   UNL d   1      23.978 -18.128  -0.895  0.00  0.00    -0.051 Br
ATOM     16  C   UNL d   1      26.095 -14.565  -1.294  0.00  0.00     0.038 A 
ENDBRANCH   8   9
ENDBRANCH   7   8
ENDBRANCH   4   7
ENDBRANCH   1   3
BRANCH   1  17
ATOM     17  N   UNL d   1      25.644 -11.662  -4.101  0.00  0.00    -0.273 N 
ATOM     18  H   UNL d   1      24.780 -11.336  -4.531  0.00  0.00     0.189 HD
BRANCH  17  19
ATOM     19  N   UNL d   1      26.110 -12.957  -4.604  0.00  0.00    -0.266 N 
ATOM     20  C   UNL d   1      25.300 -14.091  -4.570  0.00  0.00     0.260 C 
ATOM     21  O   UNL d   1      24.157 -14.041  -4.103  0.00  0.00    -0.269 OA
ATOM     22  H   UNL d   1      27.071 -12.965  -4.953  0.00  0.00     0.190 HD
BRANCH  20  23
ATOM     23  C   UNL d   1      25.957 -15.404  -5.104  0.00  0.00     0.280 C 
BRANCH  23  24
ATOM     24  O   UNL d   1      27.247 -15.203  -5.697  0.00  0.00    -0.342 OA
BRANCH  24  25
ATOM     25  C   UNL d   1      28.388 -15.575  -5.021  0.00  0.00     0.075 A 
ATOM     26  C   UNL d   1      28.184 -15.950  -3.678  0.00  0.00     0.039 A 
ATOM     27  C   UNL d   1      29.258 -16.281  -2.834  0.00  0.00     0.026 A 
ATOM     28  C   UNL d   1      30.556 -16.204  -3.315  0.00  0.00     0.034 A 
ATOM     29 CL   UNL d   1      31.890 -16.605  -2.303  0.00  0.00    -0.084 Cl
ATOM     30  C   UNL d   1      30.782 -15.802  -4.628  0.00  0.00     0.033 A 
ATOM     31  C   UNL d   1      29.709 -15.491  -5.495  0.00  0.00    -0.027 A 
ATOM     32  C   UNL d   1      30.069 -15.070  -6.885  0.00  0.00     0.051 C 
ENDBRANCH  24  25
ENDBRANCH  23  24
ENDBRANCH  20  23
ENDBRANCH  17  19
ENDBRANCH   1  17
TORSDOF 9
ENDMDL
MODEL 8
REMARK VINA RESULT:    -6.163      5.956      7.480
REMARK INTER + INTRA:         -13.434
REMARK INTER:                  -8.848
REMARK INTRA:                  -4.586
REMARK CONF_INDEPENDENT:        2.685
REMARK UNBOUND:                -4.586
REMARK  9 active torsions:
REMARK  status: ('A' for Active; 'I' for Inactive)
REMARK    1  A    between atoms: C_4  and  O_5 
REMARK    2  A    between atoms: O_5  and  C_6 
REMARK    3  A    between atoms: C_6  and  C_7 
REMARK       I    between atoms: C_7  and  N_9 
REMARK    4  A    between atoms: N_9  and  C_10 
REMARK    5  A    between atoms: C_10  and  N_12 
REMARK    6  A    between atoms: N_12  and  N_13 
REMARK       I    between atoms: N_13  and  C_14 
REMARK    7  A    between atoms: C_14  and  C_16 
REMARK    8  A    between atoms: C_16  and  O_17 
REMARK    9  A    between atoms: O_17  and  C_18 
ROOT
ATOM      1  C   UNL d   1      28.178 -14.616  -5.619  0.00  0.00     0.193 C 
ATOM      2  S   UNL d   1      28.530 -14.413  -7.260  0.00  0.00    -0.039 SA
ENDROOT
BRANCH   1   3
ATOM      3  N   UNL d   1      27.274 -13.812  -4.869  0.00  0.00    -0.301 N 
ATOM      4  C   UNL d   1      26.033 -14.240  -4.320  0.00  0.00     0.248 C 
ATOM      5  O   UNL d   1      25.611 -15.391  -4.456  0.00  0.00    -0.271 OA
ATOM      6  H   UNL d   1      27.542 -12.849  -4.707  0.00  0.00     0.171 HD
BRANCH   4   7
ATOM      7  C   UNL d   1      25.154 -13.236  -3.516  0.00  0.00     0.278 C 
BRANCH   7   8
ATOM      8  O   UNL d   1      26.029 -12.292  -2.840  0.00  0.00    -0.342 OA
BRANCH   8   9
ATOM      9  C   UNL d   1      26.959 -12.732  -1.935  0.00  0.00     0.070 A 
ATOM     10  C   UNL d   1      26.655 -13.156  -0.646  0.00  0.00     0.044 A 
ATOM     11  C   UNL d   1      27.657 -13.601   0.239  0.00  0.00    -0.042 A 
ATOM     12  C   UNL d   1      27.251 -14.037   1.618  0.00  0.00     0.049 C 
ATOM     13  C   UNL d   1      28.992 -13.618  -0.190  0.00  0.00     0.017 A 
ATOM     14  C   UNL d   1      29.315 -13.194  -1.479  0.00  0.00     0.022 A 
ATOM     15 BR   UNL d   1      30.402 -14.203   0.944  0.00  0.00    -0.051 Br
ATOM     16  C   UNL d   1      28.301 -12.750  -2.344  0.00  0.00     0.038 A 
ENDBRANCH   8   9
ENDBRANCH   7   8
ENDBRANCH   4   7
ENDBRANCH   1   3
BRANCH   1  17
ATOM     17  N   UNL d   1      28.815 -15.659  -4.916  0.00  0.00    -0.273 N 
ATOM     18  H   UNL d   1      29.569 -16.257  -5.254  0.00  0.00     0.189 HD
BRANCH  17  19
ATOM     19  N   UNL d   1      28.397 -15.949  -3.542  0.00  0.00    -0.266 N 
ATOM     20  C   UNL d   1      29.214 -16.654  -2.660  0.00  0.00     0.260 C 
ATOM     21  O   UNL d   1      30.323 -17.068  -3.015  0.00  0.00    -0.269 OA
ATOM     22  H   UNL d   1      27.461 -15.618  -3.296  0.00  0.00     0.190 HD
BRANCH  20  23
ATOM     23  C   UNL d   1      28.607 -16.920  -1.245  0.00  0.00     0.280 C 
BRANCH  23  24
ATOM     24  O   UNL d   1      27.399 -16.189  -0.990  0.00  0.00    -0.342 OA
BRANCH  24  25
ATOM     25  C   UNL d   1      26.199 -16.853  -0.864  0.00  0.00     0.075 A 
ATOM     26  C   UNL d   1      25.099 -16.208  -1.462  0.00  0.00     0.039 A 
ATOM     27  C   UNL d   1      23.795 -16.720  -1.354  0.00  0.00     0.026 A 
ATOM     28  C   UNL d   1      23.570 -17.868  -0.609  0.00  0.00     0.034 A 
ATOM     29 CL   UNL d   1      21.983 -18.517  -0.461  0.00  0.00    -0.084 Cl
ATOM     30  C   UNL d   1      24.637 -18.502   0.020  0.00  0.00     0.033 A 
ATOM     31  C   UNL d   1      25.957 -18.011  -0.104  0.00  0.00    -0.027 A 
ATOM     32  C   UNL d   1      27.026 -18.772   0.617  0.00  0.00     0.051 C 
ENDBRANCH  24  25
ENDBRANCH  23  24
ENDBRANCH  20  23
ENDBRANCH  17  19
ENDBRANCH   1  17
TORSDOF 9
ENDMDL
MODEL 9
REMARK VINA RESULT:    -6.050      5.854      8.658
REMARK INTER + INTRA:         -12.998
REMARK INTER:                  -8.734
REMARK INTRA:                  -4.264
REMARK CONF_INDEPENDENT:        2.685
REMARK UNBOUND:                -4.264
REMARK  9 active torsions:
REMARK  status: ('A' for Active; 'I' for Inactive)
REMARK    1  A    between atoms: C_4  and  O_5 
REMARK    2  A    between atoms: O_5  and  C_6 
REMARK    3  A    between atoms: C_6  and  C_7 
REMARK       I    between atoms: C_7  and  N_9 
REMARK    4  A    between atoms: N_9  and  C_10 
REMARK    5  A    between atoms: C_10  and  N_12 
REMARK    6  A    between atoms: N_12  and  N_13 
REMARK       I    between atoms: N_13  and  C_14 
REMARK    7  A    between atoms: C_14  and  C_16 
REMARK    8  A    between atoms: C_16  and  O_17 
REMARK    9  A    between atoms: O_17  and  C_18 
ROOT
ATOM      1  C   UNL d   1      26.166 -10.765  -3.518  0.00  0.00     0.193 C 
ATOM      2  S   UNL d   1      25.816  -9.113  -3.600  0.00  0.00    -0.039 SA
ENDROOT
BRANCH   1   3
ATOM      3  N   UNL d   1      27.036 -11.373  -2.569  0.00  0.00    -0.301 N 
ATOM      4  C   UNL d   1      28.301 -11.960  -2.852  0.00  0.00     0.248 C 
ATOM      5  O   UNL d   1      28.773 -12.000  -3.991  0.00  0.00    -0.271 OA
ATOM      6  H   UNL d   1      26.728 -11.385  -1.605  0.00  0.00     0.171 HD
BRANCH   4   7
ATOM      7  C   UNL d   1      29.140 -12.585  -1.697  0.00  0.00     0.278 C 
BRANCH   7   8
ATOM      8  O   UNL d   1      28.262 -12.831  -0.565  0.00  0.00    -0.342 OA
BRANCH   8   9
ATOM      9  C   UNL d   1      27.578 -14.013  -0.461  0.00  0.00     0.070 A 
ATOM     10  C   UNL d   1      26.391 -14.292  -1.131  0.00  0.00     0.044 A 
ATOM     11  C   UNL d   1      25.736 -15.531  -0.985  0.00  0.00    -0.042 A 
ATOM     12  C   UNL d   1      24.455 -15.754  -1.736  0.00  0.00     0.049 C 
ATOM     13  C   UNL d   1      26.293 -16.506  -0.145  0.00  0.00     0.017 A 
ATOM     14  C   UNL d   1      27.480 -16.242   0.537  0.00  0.00     0.022 A 
ATOM     15 BR   UNL d   1      25.468 -18.201   0.107  0.00  0.00    -0.051 Br
ATOM     16  C   UNL d   1      28.116 -14.999   0.380  0.00  0.00     0.038 A 
ENDBRANCH   8   9
ENDBRANCH   7   8
ENDBRANCH   4   7
ENDBRANCH   1   3
BRANCH   1  17
ATOM     17  N   UNL d   1      25.558 -11.631  -4.451  0.00  0.00    -0.273 N 
ATOM     18  H   UNL d   1      24.784 -11.413  -5.077  0.00  0.00     0.189 HD
BRANCH  17  19
ATOM     19  N   UNL d   1      26.065 -12.999  -4.585  0.00  0.00    -0.266 N 
ATOM     20  C   UNL d   1      25.224 -14.106  -4.483  0.00  0.00     0.260 C 
ATOM     21  O   UNL d   1      24.015 -13.967  -4.267  0.00  0.00    -0.269 OA
ATOM     22  H   UNL d   1      27.074 -13.074  -4.732  0.00  0.00     0.190 HD
BRANCH  20  23
ATOM     23  C   UNL d   1      25.923 -15.497  -4.605  0.00  0.00     0.280 C 
BRANCH  23  24
ATOM     24  O   UNL d   1      26.885 -15.567  -5.667  0.00  0.00    -0.342 OA
BRANCH  24  25
ATOM     25  C   UNL d   1      28.118 -14.970  -5.528  0.00  0.00     0.075 A 
ATOM     26  C   UNL d   1      28.524 -14.185  -6.625  0.00  0.00     0.039 A 
ATOM     27  C   UNL d   1      29.788 -13.573  -6.667  0.00  0.00     0.026 A 
ATOM     28  C   UNL d   1      30.681 -13.773  -5.625  0.00  0.00     0.034 A 
ATOM     29 CL   UNL d   1      32.235 -13.036  -5.651  0.00  0.00    -0.084 Cl
ATOM     30  C   UNL d   1      30.314 -14.574  -4.548  0.00  0.00     0.033 A 
ATOM     31  C   UNL d   1      29.035 -15.173  -4.481  0.00  0.00    -0.027 A 
ATOM     32  C   UNL d   1      28.750 -16.015  -3.277  0.00  0.00     0.051 C 
ENDBRANCH  24  25
ENDBRANCH  23  24
ENDBRANCH  20  23
ENDBRANCH  17  19
ENDBRANCH   1  17
TORSDOF 9
ENDMDL
