MODEL 1
REMARK VINA RESULT:    -8.477      0.000      0.000
REMARK INTER + INTRA:         -12.303
REMARK INTER:                 -10.267
REMARK INTRA:                  -2.036
REMARK CONF_INDEPENDENT:        1.790
REMARK UNBOUND:                -2.036
REMARK  6 active torsions:
REMARK  status: ('A' for Active; 'I' for Inactive)
REMARK    1  A    between atoms: O_2  and  C_3 
REMARK       I    between atoms: C_3  and  N_5 
REMARK    2  A    between atoms: N_5  and  C_6 
REMARK    3  A    between atoms: C_8  and  N_9 
REMARK       I    between atoms: N_9  and  C_10 
REMARK    4  A    between atoms: C_10  and  C_12 
REMARK       I    between atoms: C_12  and  N_14 
REMARK    5  A    between atoms: N_14  and  C_15 
REMARK    6  A    between atoms: C_15  and  C_16 
ROOT
ATOM      1  N   UNL d   1      26.197 -14.951  -2.709  0.00  0.00    -0.319 N 
ATOM      2  C   UNL d   1      25.479 -14.120  -3.587  0.00  0.00     0.313 C 
ATOM      3  O   UNL d   1      24.267 -14.088  -3.772  0.00  0.00    -0.262 OA
ATOM      4  H   UNL d   1      27.204 -14.809  -2.697  0.00  0.00     0.169 HD
ENDROOT
BRANCH   2   5
ATOM      5  C   UNL d   1      26.311 -13.105  -4.424  0.00  0.00     0.309 C 
ATOM      6  O   UNL d   1      27.510 -13.256  -4.584  0.00  0.00    -0.262 OA
ATOM      7  N   UNL d   1      25.548 -12.053  -4.903  0.00  0.00    -0.349 N 
ATOM      8  H   UNL d   1      24.551 -12.123  -4.728  0.00  0.00     0.163 HD
BRANCH   7   9
ATOM      9  C   UNL d   1      26.081 -10.796  -5.404  0.00  0.00     0.162 C 
BRANCH   9  10
ATOM     10  C   UNL d   1      25.818  -9.586  -4.501  0.00  0.00    -0.029 C 
ATOM     11  C   UNL d   1      24.946  -8.531  -4.879  0.00  0.00    -0.053 C 
ATOM     12  C   UNL d   1      24.123  -8.568  -6.143  0.00  0.00     0.049 C 
ATOM     13  C   UNL d   1      24.869  -7.364  -4.088  0.00  0.00     0.014 C 
ATOM     14  C   UNL d   1      25.540  -7.269  -2.866  0.00  0.00    -0.061 C 
ATOM     15  C   UNL d   1      25.471  -6.039  -2.009  0.00  0.00     0.048 C 
ATOM     16  C   UNL d   1      26.290  -8.362  -2.429  0.00  0.00     0.014 C 
ATOM     17  C   UNL d   1      26.436  -9.515  -3.223  0.00  0.00    -0.053 C 
ATOM     18  C   UNL d   1      27.271 -10.643  -2.671  0.00  0.00     0.049 C 
ENDBRANCH   9  10
ENDBRANCH   7   9
ENDBRANCH   2   5
BRANCH   1  19
ATOM     19  C   UNL d   1      25.628 -15.970  -1.871  0.00  0.00     0.037 A 
ATOM     20  C   UNL d   1      24.220 -16.153  -1.748  0.00  0.00     0.062 A 
ATOM     21  C   UNL d   1      23.696 -17.100  -0.822  0.00  0.00     0.077 A 
ATOM     22  C   UNL d   1      24.589 -17.936  -0.139  0.00  0.00     0.143 A 
ATOM     23  C   UNL d   1      25.952 -17.788  -0.272  0.00  0.00     0.047 A 
ATOM     24  F   UNL d   1      24.141 -18.949   0.617  0.00  0.00    -0.204 F 
ATOM     25  C   UNL d   1      26.461 -16.801  -1.109  0.00  0.00     0.032 A 
BRANCH  21  26
ATOM     26  N   UNL d   1      22.307 -17.219  -0.517  0.00  0.00    -0.300 N 
ATOM     27  C   UNL d   1      21.559 -18.278  -1.024  0.00  0.00     0.364 C 
ATOM     28  O   UNL d   1      22.019 -19.234  -1.649  0.00  0.00    -0.238 OA
ATOM     29  H   UNL d   1      21.870 -16.619   0.167  0.00  0.00     0.171 HD
BRANCH  27  30
ATOM     30  O   UNL d   1      20.238 -18.200  -0.685  0.00  0.00    -0.309 OA
ATOM     31  C   UNL d   1      19.631 -19.495  -0.483  0.00  0.00     0.215 C 
ENDBRANCH  27  30
ENDBRANCH  21  26
ENDBRANCH   1  19
TORSDOF 6
ENDMDL
MODEL 2
REMARK VINA RESULT:    -8.450      1.528      2.178
REMARK INTER + INTRA:         -12.036
REMARK INTER:                 -10.240
REMARK INTRA:                  -1.796
REMARK CONF_INDEPENDENT:        1.790
REMARK UNBOUND:                -1.796
REMARK  6 active torsions:
REMARK  status: ('A' for Active; 'I' for Inactive)
REMARK    1  A    between atoms: O_2  and  C_3 
REMARK       I    between atoms: C_3  and  N_5 
REMARK    2  A    between atoms: N_5  and  C_6 
REMARK    3  A    between atoms: C_8  and  N_9 
REMARK       I    between atoms: N_9  and  C_10 
REMARK    4  A    between atoms: C_10  and  C_12 
REMARK       I    between atoms: C_12  and  N_14 
REMARK    5  A    between atoms: N_14  and  C_15 
REMARK    6  A    between atoms: C_15  and  C_16 
ROOT
ATOM      1  N   UNL d   1      26.499 -15.969  -3.062  0.00  0.00    -0.319 N 
ATOM      2  C   UNL d   1      25.913 -15.009  -3.905  0.00  0.00     0.313 C 
ATOM      3  O   UNL d   1      24.775 -14.551  -3.851  0.00  0.00    -0.262 OA
ATOM      4  H   UNL d   1      27.466 -16.204  -3.272  0.00  0.00     0.169 HD
ENDROOT
BRANCH   2   5
ATOM      5  C   UNL d   1      26.809 -14.440  -5.044  0.00  0.00     0.309 C 
ATOM      6  O   UNL d   1      27.712 -15.104  -5.525  0.00  0.00    -0.262 OA
ATOM      7  N   UNL d   1      26.477 -13.141  -5.389  0.00  0.00    -0.349 N 
ATOM      8  H   UNL d   1      25.654 -12.765  -4.929  0.00  0.00     0.163 HD
BRANCH   7   9
ATOM      9  C   UNL d   1      27.327 -12.235  -6.146  0.00  0.00     0.162 C 
BRANCH   9  10
ATOM     10  C   UNL d   1      26.736 -10.838  -6.363  0.00  0.00    -0.029 C 
ATOM     11  C   UNL d   1      26.674 -10.231  -7.646  0.00  0.00    -0.053 C 
ATOM     12  C   UNL d   1      27.076 -10.951  -8.909  0.00  0.00     0.049 C 
ATOM     13  C   UNL d   1      26.277  -8.881  -7.767  0.00  0.00     0.014 C 
ATOM     14  C   UNL d   1      25.821  -8.156  -6.662  0.00  0.00    -0.061 C 
ATOM     15  C   UNL d   1      25.392  -6.722  -6.769  0.00  0.00     0.048 C 
ATOM     16  C   UNL d   1      25.754  -8.797  -5.425  0.00  0.00     0.014 C 
ATOM     17  C   UNL d   1      26.200 -10.121  -5.259  0.00  0.00    -0.053 C 
ATOM     18  C   UNL d   1      26.095 -10.728  -3.883  0.00  0.00     0.049 C 
ENDBRANCH   9  10
ENDBRANCH   7   9
ENDBRANCH   2   5
BRANCH   1  19
ATOM     19  C   UNL d   1      25.841 -16.638  -1.974  0.00  0.00     0.037 A 
ATOM     20  C   UNL d   1      24.424 -16.781  -1.917  0.00  0.00     0.062 A 
ATOM     21  C   UNL d   1      23.805 -17.350  -0.767  0.00  0.00     0.077 A 
ATOM     22  C   UNL d   1      24.620 -17.887   0.238  0.00  0.00     0.143 A 
ATOM     23  C   UNL d   1      25.992 -17.781   0.179  0.00  0.00     0.047 A 
ATOM     24  F   UNL d   1      24.089 -18.577   1.259  0.00  0.00    -0.204 F 
ATOM     25  C   UNL d   1      26.589 -17.143  -0.902  0.00  0.00     0.032 A 
BRANCH  21  26
ATOM     26  N   UNL d   1      22.393 -17.370  -0.559  0.00  0.00    -0.300 N 
ATOM     27  C   UNL d   1      21.604 -18.353  -1.150  0.00  0.00     0.364 C 
ATOM     28  O   UNL d   1      22.033 -19.325  -1.771  0.00  0.00    -0.238 OA
ATOM     29  H   UNL d   1      21.956 -16.755   0.112  0.00  0.00     0.171 HD
BRANCH  27  30
ATOM     30  O   UNL d   1      20.272 -18.182  -0.897  0.00  0.00    -0.309 OA
ATOM     31  C   UNL d   1      19.622 -19.395  -0.460  0.00  0.00     0.215 C 
ENDBRANCH  27  30
ENDBRANCH  21  26
ENDBRANCH   1  19
TORSDOF 6
ENDMDL
MODEL 3
REMARK VINA RESULT:    -8.400      0.352      1.676
REMARK INTER + INTRA:         -12.270
REMARK INTER:                 -10.190
REMARK INTRA:                  -2.080
REMARK CONF_INDEPENDENT:        1.790
REMARK UNBOUND:                -2.080
REMARK  6 active torsions:
REMARK  status: ('A' for Active; 'I' for Inactive)
REMARK    1  A    between atoms: O_2  and  C_3 
REMARK       I    between atoms: C_3  and  N_5 
REMARK    2  A    between atoms: N_5  and  C_6 
REMARK    3  A    between atoms: C_8  and  N_9 
REMARK       I    between atoms: N_9  and  C_10 
REMARK    4  A    between atoms: C_10  and  C_12 
REMARK       I    between atoms: C_12  and  N_14 
REMARK    5  A    between atoms: N_14  and  C_15 
REMARK    6  A    between atoms: C_15  and  C_16 
ROOT
ATOM      1  N   UNL d   1      26.236 -15.014  -2.700  0.00  0.00    -0.319 N 
ATOM      2  C   UNL d   1      25.564 -14.214  -3.639  0.00  0.00     0.313 C 
ATOM      3  O   UNL d   1      24.364 -14.198  -3.896  0.00  0.00    -0.262 OA
ATOM      4  H   UNL d   1      27.239 -14.862  -2.632  0.00  0.00     0.169 HD
ENDROOT
BRANCH   2   5
ATOM      5  C   UNL d   1      26.435 -13.212  -4.453  0.00  0.00     0.309 C 
ATOM      6  O   UNL d   1      27.647 -13.336  -4.511  0.00  0.00    -0.262 OA
ATOM      7  N   UNL d   1      25.688 -12.204  -5.037  0.00  0.00    -0.349 N 
ATOM      8  H   UNL d   1      24.682 -12.294  -4.938  0.00  0.00     0.163 HD
BRANCH   7   9
ATOM      9  C   UNL d   1      26.228 -10.954  -5.550  0.00  0.00     0.162 C 
BRANCH   9  10
ATOM     10  C   UNL d   1      26.174  -9.783  -4.564  0.00  0.00    -0.029 C 
ATOM     11  C   UNL d   1      27.006  -9.718  -3.415  0.00  0.00    -0.053 C 
ATOM     12  C   UNL d   1      28.086 -10.733  -3.134  0.00  0.00     0.049 C 
ATOM     13  C   UNL d   1      26.800  -8.706  -2.453  0.00  0.00     0.014 C 
ATOM     14  C   UNL d   1      25.871  -7.682  -2.663  0.00  0.00    -0.061 C 
ATOM     15  C   UNL d   1      25.638  -6.596  -1.654  0.00  0.00     0.048 C 
ATOM     16  C   UNL d   1      25.149  -7.671  -3.856  0.00  0.00     0.014 C 
ATOM     17  C   UNL d   1      25.287  -8.699  -4.808  0.00  0.00    -0.053 C 
ATOM     18  C   UNL d   1      24.459  -8.606  -6.064  0.00  0.00     0.049 C 
ENDBRANCH   9  10
ENDBRANCH   7   9
ENDBRANCH   2   5
BRANCH   1  19
ATOM     19  C   UNL d   1      25.628 -16.017  -1.870  0.00  0.00     0.037 A 
ATOM     20  C   UNL d   1      24.214 -16.183  -1.793  0.00  0.00     0.062 A 
ATOM     21  C   UNL d   1      23.649 -17.113  -0.874  0.00  0.00     0.077 A 
ATOM     22  C   UNL d   1      24.509 -17.951  -0.152  0.00  0.00     0.143 A 
ATOM     23  C   UNL d   1      25.877 -17.820  -0.240  0.00  0.00     0.047 A 
ATOM     24  F   UNL d   1      24.023 -18.950   0.600  0.00  0.00    -0.204 F 
ATOM     25  C   UNL d   1      26.424 -16.848  -1.071  0.00  0.00     0.032 A 
BRANCH  21  26
ATOM     26  N   UNL d   1      22.249 -17.213  -0.614  0.00  0.00    -0.300 N 
ATOM     27  C   UNL d   1      21.517 -18.300  -1.085  0.00  0.00     0.364 C 
ATOM     28  O   UNL d   1      21.998 -19.291  -1.634  0.00  0.00    -0.238 OA
ATOM     29  H   UNL d   1      21.788 -16.572   0.015  0.00  0.00     0.171 HD
BRANCH  27  30
ATOM     30  O   UNL d   1      20.184 -18.201  -0.801  0.00  0.00    -0.309 OA
ATOM     31  C   UNL d   1      19.555 -19.485  -0.602  0.00  0.00     0.215 C 
ENDBRANCH  27  30
ENDBRANCH  21  26
ENDBRANCH   1  19
TORSDOF 6
ENDMDL
MODEL 4
REMARK VINA RESULT:    -8.300      4.245      6.201
REMARK INTER + INTRA:         -11.406
REMARK INTER:                 -10.089
REMARK INTRA:                  -1.317
REMARK CONF_INDEPENDENT:        1.790
REMARK UNBOUND:                -1.317
REMARK  6 active torsions:
REMARK  status: ('A' for Active; 'I' for Inactive)
REMARK    1  A    between atoms: O_2  and  C_3 
REMARK       I    between atoms: C_3  and  N_5 
REMARK    2  A    between atoms: N_5  and  C_6 
REMARK    3  A    between atoms: C_8  and  N_9 
REMARK       I    between atoms: N_9  and  C_10 
REMARK    4  A    between atoms: C_10  and  C_12 
REMARK       I    between atoms: C_12  and  N_14 
REMARK    5  A    between atoms: N_14  and  C_15 
REMARK    6  A    between atoms: C_15  and  C_16 
ROOT
ATOM      1  N   UNL d   1      26.907 -16.021  -2.803  0.00  0.00    -0.319 N 
ATOM      2  C   UNL d   1      26.438 -15.410  -3.978  0.00  0.00     0.313 C 
ATOM      3  O   UNL d   1      25.275 -15.277  -4.347  0.00  0.00    -0.262 OA
ATOM      4  H   UNL d   1      27.915 -16.016  -2.679  0.00  0.00     0.169 HD
ENDROOT
BRANCH   2   5
ATOM      5  C   UNL d   1      27.514 -14.815  -4.933  0.00  0.00     0.309 C 
ATOM      6  O   UNL d   1      27.357 -14.827  -6.142  0.00  0.00    -0.262 OA
ATOM      7  N   UNL d   1      28.622 -14.333  -4.258  0.00  0.00    -0.349 N 
ATOM      8  H   UNL d   1      28.555 -14.345  -3.245  0.00  0.00     0.163 HD
BRANCH   7   9
ATOM      9  C   UNL d   1      29.912 -14.048  -4.866  0.00  0.00     0.162 C 
BRANCH   9  10
ATOM     10  C   UNL d   1      30.460 -15.168  -5.757  0.00  0.00    -0.029 C 
ATOM     11  C   UNL d   1      30.482 -16.526  -5.341  0.00  0.00    -0.053 C 
ATOM     12  C   UNL d   1      29.867 -16.991  -4.045  0.00  0.00     0.049 C 
ATOM     13  C   UNL d   1      31.148 -17.491  -6.128  0.00  0.00     0.014 C 
ATOM     14  C   UNL d   1      31.685 -17.166  -7.376  0.00  0.00    -0.061 C 
ATOM     15  C   UNL d   1      32.395 -18.177  -8.229  0.00  0.00     0.048 C 
ATOM     16  C   UNL d   1      31.543 -15.860  -7.844  0.00  0.00     0.014 C 
ATOM     17  C   UNL d   1      30.939 -14.860  -7.059  0.00  0.00    -0.053 C 
ATOM     18  C   UNL d   1      30.837 -13.475  -7.645  0.00  0.00     0.049 C 
ENDBRANCH   9  10
ENDBRANCH   7   9
ENDBRANCH   2   5
BRANCH   1  19
ATOM     19  C   UNL d   1      26.087 -16.654  -1.807  0.00  0.00     0.037 A 
ATOM     20  C   UNL d   1      24.663 -16.648  -1.880  0.00  0.00     0.062 A 
ATOM     21  C   UNL d   1      23.887 -17.189  -0.815  0.00  0.00     0.077 A 
ATOM     22  C   UNL d   1      24.547 -17.843   0.233  0.00  0.00     0.143 A 
ATOM     23  C   UNL d   1      25.923 -17.882   0.299  0.00  0.00     0.047 A 
ATOM     24  F   UNL d   1      23.857 -18.509   1.171  0.00  0.00    -0.204 F 
ATOM     25  C   UNL d   1      26.678 -17.273  -0.697  0.00  0.00     0.032 A 
BRANCH  21  26
ATOM     26  N   UNL d   1      22.467 -17.066  -0.732  0.00  0.00    -0.300 N 
ATOM     27  C   UNL d   1      21.647 -18.170  -0.950  0.00  0.00     0.364 C 
ATOM     28  O   UNL d   1      22.042 -19.325  -1.102  0.00  0.00    -0.238 OA
ATOM     29  H   UNL d   1      22.036 -16.218  -0.396  0.00  0.00     0.171 HD
BRANCH  27  30
ATOM     30  O   UNL d   1      20.318 -17.857  -0.895  0.00  0.00    -0.309 OA
ATOM     31  C   UNL d   1      19.487 -18.989  -0.558  0.00  0.00     0.215 C 
ENDBRANCH  27  30
ENDBRANCH  21  26
ENDBRANCH   1  19
TORSDOF 6
ENDMDL
MODEL 5
REMARK VINA RESULT:    -8.231      6.669      9.859
REMARK INTER + INTRA:         -11.297
REMARK INTER:                 -10.021
REMARK INTRA:                  -1.275
REMARK CONF_INDEPENDENT:        1.790
REMARK UNBOUND:                -1.275
REMARK  6 active torsions:
REMARK  status: ('A' for Active; 'I' for Inactive)
REMARK    1  A    between atoms: O_2  and  C_3 
REMARK       I    between atoms: C_3  and  N_5 
REMARK    2  A    between atoms: N_5  and  C_6 
REMARK    3  A    between atoms: C_8  and  N_9 
REMARK       I    between atoms: N_9  and  C_10 
REMARK    4  A    between atoms: C_10  and  C_12 
REMARK       I    between atoms: C_12  and  N_14 
REMARK    5  A    between atoms: N_14  and  C_15 
REMARK    6  A    between atoms: C_15  and  C_16 
ROOT
ATOM      1  N   UNL d   1      28.345 -14.369   2.920  0.00  0.00    -0.319 N 
ATOM      2  C   UNL d   1      27.485 -13.713   2.022  0.00  0.00     0.313 C 
ATOM      3  O   UNL d   1      26.832 -12.691   2.213  0.00  0.00    -0.262 OA
ATOM      4  H   UNL d   1      28.804 -15.201   2.559  0.00  0.00     0.169 HD
ENDROOT
BRANCH   2   5
ATOM      5  C   UNL d   1      27.341 -14.344   0.606  0.00  0.00     0.309 C 
ATOM      6  O   UNL d   1      26.702 -13.784  -0.269  0.00  0.00    -0.262 OA
ATOM      7  N   UNL d   1      27.973 -15.571   0.499  0.00  0.00    -0.349 N 
ATOM      8  H   UNL d   1      28.513 -15.856   1.310  0.00  0.00     0.163 HD
BRANCH   7   9
ATOM      9  C   UNL d   1      27.730 -16.547  -0.552  0.00  0.00     0.162 C 
BRANCH   9  10
ATOM     10  C   UNL d   1      26.279 -17.027  -0.654  0.00  0.00    -0.029 C 
ATOM     11  C   UNL d   1      25.408 -16.600  -1.692  0.00  0.00    -0.053 C 
ATOM     12  C   UNL d   1      25.870 -15.733  -2.837  0.00  0.00     0.049 C 
ATOM     13  C   UNL d   1      24.038 -16.938  -1.645  0.00  0.00     0.014 C 
ATOM     14  C   UNL d   1      23.535 -17.795  -0.662  0.00  0.00    -0.061 C 
ATOM     15  C   UNL d   1      22.083 -18.169  -0.595  0.00  0.00     0.048 C 
ATOM     16  C   UNL d   1      24.418 -18.324   0.279  0.00  0.00     0.014 C 
ATOM     17  C   UNL d   1      25.777 -17.958   0.297  0.00  0.00    -0.053 C 
ATOM     18  C   UNL d   1      26.655 -18.575   1.355  0.00  0.00     0.049 C 
ENDBRANCH   9  10
ENDBRANCH   7   9
ENDBRANCH   2   5
BRANCH   1  19
ATOM     19  C   UNL d   1      28.596 -13.971   4.278  0.00  0.00     0.037 A 
ATOM     20  C   UNL d   1      28.156 -12.717   4.795  0.00  0.00     0.062 A 
ATOM     21  C   UNL d   1      28.523 -12.314   6.111  0.00  0.00     0.077 A 
ATOM     22  C   UNL d   1      29.203 -13.227   6.927  0.00  0.00     0.143 A 
ATOM     23  C   UNL d   1      29.607 -14.454   6.448  0.00  0.00     0.047 A 
ATOM     24  F   UNL d   1      29.425 -12.958   8.223  0.00  0.00    -0.204 F 
ATOM     25  C   UNL d   1      29.327 -14.807   5.133  0.00  0.00     0.032 A 
BRANCH  21  26
ATOM     26  N   UNL d   1      28.272 -11.011   6.635  0.00  0.00    -0.300 N 
ATOM     27  C   UNL d   1      29.316 -10.109   6.822  0.00  0.00     0.364 C 
ATOM     28  O   UNL d   1      30.478 -10.288   6.457  0.00  0.00    -0.238 OA
ATOM     29  H   UNL d   1      27.329 -10.673   6.763  0.00  0.00     0.171 HD
BRANCH  27  30
ATOM     30  O   UNL d   1      28.905  -8.937   7.391  0.00  0.00    -0.309 OA
ATOM     31  C   UNL d   1      29.223  -7.780   6.587  0.00  0.00     0.215 C 
ENDBRANCH  27  30
ENDBRANCH  21  26
ENDBRANCH   1  19
TORSDOF 6
ENDMDL
MODEL 6
REMARK VINA RESULT:    -8.093      2.372      3.724
REMARK INTER + INTRA:         -11.620
REMARK INTER:                  -9.883
REMARK INTRA:                  -1.737
REMARK CONF_INDEPENDENT:        1.790
REMARK UNBOUND:                -1.737
REMARK  6 active torsions:
REMARK  status: ('A' for Active; 'I' for Inactive)
REMARK    1  A    between atoms: O_2  and  C_3 
REMARK       I    between atoms: C_3  and  N_5 
REMARK    2  A    between atoms: N_5  and  C_6 
REMARK    3  A    between atoms: C_8  and  N_9 
REMARK       I    between atoms: N_9  and  C_10 
REMARK    4  A    between atoms: C_10  and  C_12 
REMARK       I    between atoms: C_12  and  N_14 
REMARK    5  A    between atoms: N_14  and  C_15 
REMARK    6  A    between atoms: C_15  and  C_16 
ROOT
ATOM      1  N   UNL d   1      26.264 -15.242  -3.062  0.00  0.00    -0.319 N 
ATOM      2  C   UNL d   1      25.474 -14.410  -3.873  0.00  0.00     0.313 C 
ATOM      3  O   UNL d   1      24.260 -14.237  -3.821  0.00  0.00    -0.262 OA
ATOM      4  H   UNL d   1      27.261 -15.232  -3.263  0.00  0.00     0.169 HD
ENDROOT
BRANCH   2   5
ATOM      5  C   UNL d   1      26.219 -13.594  -4.970  0.00  0.00     0.309 C 
ATOM      6  O   UNL d   1      27.223 -14.032  -5.507  0.00  0.00    -0.262 OA
ATOM      7  N   UNL d   1      25.635 -12.361  -5.210  0.00  0.00    -0.349 N 
ATOM      8  H   UNL d   1      24.765 -12.188  -4.718  0.00  0.00     0.163 HD
BRANCH   7   9
ATOM      9  C   UNL d   1      26.277 -11.253  -5.900  0.00  0.00     0.162 C 
BRANCH   9  10
ATOM     10  C   UNL d   1      27.600 -11.609  -6.586  0.00  0.00    -0.029 C 
ATOM     11  C   UNL d   1      27.718 -11.719  -7.997  0.00  0.00    -0.053 C 
ATOM     12  C   UNL d   1      26.588 -11.384  -8.938  0.00  0.00     0.049 C 
ATOM     13  C   UNL d   1      28.913 -12.211  -8.567  0.00  0.00     0.014 C 
ATOM     14  C   UNL d   1      30.036 -12.480  -7.780  0.00  0.00    -0.061 C 
ATOM     15  C   UNL d   1      31.316 -13.002  -8.365  0.00  0.00     0.048 C 
ATOM     16  C   UNL d   1      29.962 -12.242  -6.407  0.00  0.00     0.014 C 
ATOM     17  C   UNL d   1      28.768 -11.810  -5.801  0.00  0.00    -0.053 C 
ATOM     18  C   UNL d   1      28.781 -11.586  -4.310  0.00  0.00     0.049 C 
ENDBRANCH   9  10
ENDBRANCH   7   9
ENDBRANCH   2   5
BRANCH   1  19
ATOM     19  C   UNL d   1      25.775 -16.097  -2.015  0.00  0.00     0.037 A 
ATOM     20  C   UNL d   1      24.383 -16.346  -1.827  0.00  0.00     0.062 A 
ATOM     21  C   UNL d   1      23.934 -17.107  -0.710  0.00  0.00     0.077 A 
ATOM     22  C   UNL d   1      24.889 -17.716   0.115  0.00  0.00     0.143 A 
ATOM     23  C   UNL d   1      26.237 -17.507  -0.075  0.00  0.00     0.047 A 
ATOM     24  F   UNL d   1      24.519 -18.574   1.077  0.00  0.00    -0.204 F 
ATOM     25  C   UNL d   1      26.669 -16.687  -1.112  0.00  0.00     0.032 A 
BRANCH  21  26
ATOM     26  N   UNL d   1      22.560 -17.254  -0.358  0.00  0.00    -0.300 N 
ATOM     27  C   UNL d   1      21.782 -18.252  -0.938  0.00  0.00     0.364 C 
ATOM     28  O   UNL d   1      22.207 -19.139  -1.678  0.00  0.00    -0.238 OA
ATOM     29  H   UNL d   1      22.157 -16.726   0.403  0.00  0.00     0.171 HD
BRANCH  27  30
ATOM     30  O   UNL d   1      20.478 -18.206  -0.534  0.00  0.00    -0.309 OA
ATOM     31  C   UNL d   1      20.078 -19.376   0.212  0.00  0.00     0.215 C 
ENDBRANCH  27  30
ENDBRANCH  21  26
ENDBRANCH   1  19
TORSDOF 6
ENDMDL
MODEL 7
REMARK VINA RESULT:    -8.020      7.354     10.027
REMARK INTER + INTRA:         -11.936
REMARK INTER:                  -9.809
REMARK INTRA:                  -2.126
REMARK CONF_INDEPENDENT:        1.790
REMARK UNBOUND:                -2.126
REMARK  6 active torsions:
REMARK  status: ('A' for Active; 'I' for Inactive)
REMARK    1  A    between atoms: O_2  and  C_3 
REMARK       I    between atoms: C_3  and  N_5 
REMARK    2  A    between atoms: N_5  and  C_6 
REMARK    3  A    between atoms: C_8  and  N_9 
REMARK       I    between atoms: N_9  and  C_10 
REMARK    4  A    between atoms: C_10  and  C_12 
REMARK       I    between atoms: C_12  and  N_14 
REMARK    5  A    between atoms: N_14  and  C_15 
REMARK    6  A    between atoms: C_15  and  C_16 
ROOT
ATOM      1  N   UNL d   1      27.518 -13.723   3.459  0.00  0.00    -0.319 N 
ATOM      2  C   UNL d   1      28.308 -14.413   2.523  0.00  0.00     0.313 C 
ATOM      3  O   UNL d   1      29.482 -14.753   2.631  0.00  0.00    -0.262 OA
ATOM      4  H   UNL d   1      26.558 -13.547   3.177  0.00  0.00     0.169 HD
ENDROOT
BRANCH   2   5
ATOM      5  C   UNL d   1      27.618 -14.809   1.184  0.00  0.00     0.309 C 
ATOM      6  O   UNL d   1      26.539 -14.336   0.870  0.00  0.00    -0.262 OA
ATOM      7  N   UNL d   1      28.343 -15.743   0.463  0.00  0.00    -0.349 N 
ATOM      8  H   UNL d   1      29.253 -15.977   0.846  0.00  0.00     0.163 HD
BRANCH   7   9
ATOM      9  C   UNL d   1      27.814 -16.553  -0.622  0.00  0.00     0.162 C 
BRANCH   9  10
ATOM     10  C   UNL d   1      26.315 -16.854  -0.523  0.00  0.00    -0.029 C 
ATOM     11  C   UNL d   1      25.794 -17.834   0.363  0.00  0.00    -0.053 C 
ATOM     12  C   UNL d   1      26.655 -18.575   1.356  0.00  0.00     0.049 C 
ATOM     13  C   UNL d   1      24.429 -18.189   0.296  0.00  0.00     0.014 C 
ATOM     14  C   UNL d   1      23.542 -17.508  -0.542  0.00  0.00    -0.061 C 
ATOM     15  C   UNL d   1      22.087 -17.867  -0.628  0.00  0.00     0.048 C 
ATOM     16  C   UNL d   1      24.029 -16.453  -1.314  0.00  0.00     0.014 C 
ATOM     17  C   UNL d   1      25.395 -16.114  -1.315  0.00  0.00    -0.053 C 
ATOM     18  C   UNL d   1      25.831 -14.964  -2.186  0.00  0.00     0.049 C 
ENDBRANCH   9  10
ENDBRANCH   7   9
ENDBRANCH   2   5
BRANCH   1  19
ATOM     19  C   UNL d   1      27.967 -13.243   4.737  0.00  0.00     0.037 A 
ATOM     20  C   UNL d   1      28.574 -14.102   5.700  0.00  0.00     0.062 A 
ATOM     21  C   UNL d   1      28.900 -13.610   6.996  0.00  0.00     0.077 A 
ATOM     22  C   UNL d   1      28.740 -12.243   7.256  0.00  0.00     0.143 A 
ATOM     23  C   UNL d   1      28.182 -11.398   6.323  0.00  0.00     0.047 A 
ATOM     24  F   UNL d   1      29.185 -11.705   8.401  0.00  0.00    -0.204 F 
ATOM     25  C   UNL d   1      27.779 -11.900   5.090  0.00  0.00     0.032 A 
BRANCH  21  26
ATOM     26  N   UNL d   1      29.347 -14.443   8.066  0.00  0.00    -0.300 N 
ATOM     27  C   UNL d   1      28.770 -14.343   9.330  0.00  0.00     0.364 C 
ATOM     28  O   UNL d   1      27.788 -13.655   9.605  0.00  0.00    -0.238 OA
ATOM     29  H   UNL d   1      29.994 -15.200   7.903  0.00  0.00     0.171 HD
BRANCH  27  30
ATOM     30  O   UNL d   1      29.361 -15.167  10.245  0.00  0.00    -0.309 OA
ATOM     31  C   UNL d   1      30.768 -15.372   9.992  0.00  0.00     0.215 C 
ENDBRANCH  27  30
ENDBRANCH  21  26
ENDBRANCH   1  19
TORSDOF 6
ENDMDL
MODEL 8
REMARK VINA RESULT:    -7.985      7.475      9.990
REMARK INTER + INTRA:         -11.818
REMARK INTER:                  -9.775
REMARK INTRA:                  -2.043
REMARK CONF_INDEPENDENT:        1.790
REMARK UNBOUND:                -2.043
REMARK  6 active torsions:
REMARK  status: ('A' for Active; 'I' for Inactive)
REMARK    1  A    between atoms: O_2  and  C_3 
REMARK       I    between atoms: C_3  and  N_5 
REMARK    2  A    between atoms: N_5  and  C_6 
REMARK    3  A    between atoms: C_8  and  N_9 
REMARK       I    between atoms: N_9  and  C_10 
REMARK    4  A    between atoms: C_10  and  C_12 
REMARK       I    between atoms: C_12  and  N_14 
REMARK    5  A    between atoms: N_14  and  C_15 
REMARK    6  A    between atoms: C_15  and  C_16 
ROOT
ATOM      1  N   UNL d   1      27.624 -13.940   3.609  0.00  0.00    -0.319 N 
ATOM      2  C   UNL d   1      28.493 -14.445   2.627  0.00  0.00     0.313 C 
ATOM      3  O   UNL d   1      29.715 -14.550   2.682  0.00  0.00    -0.262 OA
ATOM      4  H   UNL d   1      26.637 -13.952   3.369  0.00  0.00     0.169 HD
ENDROOT
BRANCH   2   5
ATOM      5  C   UNL d   1      27.839 -14.945   1.306  0.00  0.00     0.309 C 
ATOM      6  O   UNL d   1      26.697 -14.632   1.013  0.00  0.00    -0.262 OA
ATOM      7  N   UNL d   1      28.673 -15.772   0.573  0.00  0.00    -0.349 N 
ATOM      8  H   UNL d   1      29.615 -15.872   0.937  0.00  0.00     0.163 HD
BRANCH   7   9
ATOM      9  C   UNL d   1      28.241 -16.658  -0.497  0.00  0.00     0.162 C 
BRANCH   9  10
ATOM     10  C   UNL d   1      26.731 -16.911  -0.545  0.00  0.00    -0.029 C 
ATOM     11  C   UNL d   1      25.855 -16.130  -1.345  0.00  0.00    -0.053 C 
ATOM     12  C   UNL d   1      26.349 -15.067  -2.294  0.00  0.00     0.049 C 
ATOM     13  C   UNL d   1      24.458 -16.295  -1.225  0.00  0.00     0.014 C 
ATOM     14  C   UNL d   1      23.911 -17.302  -0.425  0.00  0.00    -0.061 C 
ATOM     15  C   UNL d   1      22.430 -17.496  -0.285  0.00  0.00     0.048 C 
ATOM     16  C   UNL d   1      24.778 -18.158   0.256  0.00  0.00     0.014 C 
ATOM     17  C   UNL d   1      26.173 -17.981   0.206  0.00  0.00    -0.053 C 
ATOM     18  C   UNL d   1      27.029 -18.951   0.980  0.00  0.00     0.049 C 
ENDBRANCH   9  10
ENDBRANCH   7   9
ENDBRANCH   2   5
BRANCH   1  19
ATOM     19  C   UNL d   1      28.024 -13.404   4.882  0.00  0.00     0.037 A 
ATOM     20  C   UNL d   1      28.636 -14.210   5.886  0.00  0.00     0.062 A 
ATOM     21  C   UNL d   1      28.913 -13.666   7.173  0.00  0.00     0.077 A 
ATOM     22  C   UNL d   1      28.698 -12.298   7.385  0.00  0.00     0.143 A 
ATOM     23  C   UNL d   1      28.135 -11.503   6.411  0.00  0.00     0.047 A 
ATOM     24  F   UNL d   1      29.096 -11.708   8.522  0.00  0.00    -0.204 F 
ATOM     25  C   UNL d   1      27.781 -12.058   5.187  0.00  0.00     0.032 A 
BRANCH  21  26
ATOM     26  N   UNL d   1      29.362 -14.448   8.280  0.00  0.00    -0.300 N 
ATOM     27  C   UNL d   1      28.772 -14.306   9.533  0.00  0.00     0.364 C 
ATOM     28  O   UNL d   1      27.777 -13.622   9.772  0.00  0.00    -0.238 OA
ATOM     29  H   UNL d   1      30.021 -15.201   8.153  0.00  0.00     0.171 HD
BRANCH  27  30
ATOM     30  O   UNL d   1      29.366 -15.083  10.486  0.00  0.00    -0.309 OA
ATOM     31  C   UNL d   1      30.800 -15.164  10.333  0.00  0.00     0.215 C 
ENDBRANCH  27  30
ENDBRANCH  21  26
ENDBRANCH   1  19
TORSDOF 6
ENDMDL
MODEL 9
REMARK VINA RESULT:    -7.515      1.427      1.974
REMARK INTER + INTRA:         -11.475
REMARK INTER:                  -9.305
REMARK INTRA:                  -2.170
REMARK CONF_INDEPENDENT:        1.790
REMARK UNBOUND:                -2.170
REMARK  6 active torsions:
REMARK  status: ('A' for Active; 'I' for Inactive)
REMARK    1  A    between atoms: O_2  and  C_3 
REMARK       I    between atoms: C_3  and  N_5 
REMARK    2  A    between atoms: N_5  and  C_6 
REMARK    3  A    between atoms: C_8  and  N_9 
REMARK       I    between atoms: N_9  and  C_10 
REMARK    4  A    between atoms: C_10  and  C_12 
REMARK       I    between atoms: C_12  and  N_14 
REMARK    5  A    between atoms: N_14  and  C_15 
REMARK    6  A    between atoms: C_15  and  C_16 
ROOT
ATOM      1  N   UNL d   1      26.248 -15.299  -3.047  0.00  0.00    -0.319 N 
ATOM      2  C   UNL d   1      25.481 -14.363  -3.762  0.00  0.00     0.313 C 
ATOM      3  O   UNL d   1      24.300 -14.073  -3.598  0.00  0.00    -0.262 OA
ATOM      4  H   UNL d   1      27.220 -15.381  -3.335  0.00  0.00     0.169 HD
ENDROOT
BRANCH   2   5
ATOM      5  C   UNL d   1      26.210 -13.584  -4.896  0.00  0.00     0.309 C 
ATOM      6  O   UNL d   1      27.268 -13.982  -5.353  0.00  0.00    -0.262 OA
ATOM      7  N   UNL d   1      25.545 -12.427  -5.265  0.00  0.00    -0.349 N 
ATOM      8  H   UNL d   1      24.642 -12.284  -4.823  0.00  0.00     0.163 HD
BRANCH   7   9
ATOM      9  C   UNL d   1      26.130 -11.332  -6.023  0.00  0.00     0.162 C 
BRANCH   9  10
ATOM     10  C   UNL d   1      27.086 -10.441  -5.222  0.00  0.00    -0.029 C 
ATOM     11  C   UNL d   1      26.622  -9.476  -4.290  0.00  0.00    -0.053 C 
ATOM     12  C   UNL d   1      25.165  -9.327  -3.928  0.00  0.00     0.049 C 
ATOM     13  C   UNL d   1      27.532  -8.568  -3.705  0.00  0.00     0.014 C 
ATOM     14  C   UNL d   1      28.908  -8.674  -3.927  0.00  0.00    -0.061 C 
ATOM     15  C   UNL d   1      29.892  -7.722  -3.314  0.00  0.00     0.048 C 
ATOM     16  C   UNL d   1      29.375  -9.710  -4.737  0.00  0.00     0.014 C 
ATOM     17  C   UNL d   1      28.490 -10.593  -5.383  0.00  0.00    -0.053 C 
ATOM     18  C   UNL d   1      29.087 -11.676  -6.245  0.00  0.00     0.049 C 
ENDBRANCH   9  10
ENDBRANCH   7   9
ENDBRANCH   2   5
BRANCH   1  19
ATOM     19  C   UNL d   1      25.764 -16.140  -1.987  0.00  0.00     0.037 A 
ATOM     20  C   UNL d   1      24.375 -16.396  -1.796  0.00  0.00     0.062 A 
ATOM     21  C   UNL d   1      23.930 -17.143  -0.667  0.00  0.00     0.077 A 
ATOM     22  C   UNL d   1      24.889 -17.729   0.169  0.00  0.00     0.143 A 
ATOM     23  C   UNL d   1      26.235 -17.513  -0.023  0.00  0.00     0.047 A 
ATOM     24  F   UNL d   1      24.524 -18.574   1.146  0.00  0.00    -0.204 F 
ATOM     25  C   UNL d   1      26.662 -16.708  -1.073  0.00  0.00     0.032 A 
BRANCH  21  26
ATOM     26  N   UNL d   1      22.556 -17.294  -0.313  0.00  0.00    -0.300 N 
ATOM     27  C   UNL d   1      21.766 -18.257  -0.936  0.00  0.00     0.364 C 
ATOM     28  O   UNL d   1      22.179 -19.111  -1.720  0.00  0.00    -0.238 OA
ATOM     29  H   UNL d   1      22.163 -16.800   0.474  0.00  0.00     0.171 HD
BRANCH  27  30
ATOM     30  O   UNL d   1      20.465 -18.218  -0.522  0.00  0.00    -0.309 OA
ATOM     31  C   UNL d   1      19.892 -19.532  -0.343  0.00  0.00     0.215 C 
ENDBRANCH  27  30
ENDBRANCH  21  26
ENDBRANCH   1  19
TORSDOF 6
ENDMDL
