MODEL 1
REMARK VINA RESULT:    -8.460      0.000      0.000
REMARK INTER + INTRA:         -10.361
REMARK INTER:                  -9.653
REMARK INTRA:                  -0.707
REMARK CONF_INDEPENDENT:        1.193
REMARK UNBOUND:                -0.707
REMARK  4 active torsions:
REMARK  status: ('A' for Active; 'I' for Inactive)
REMARK    1  A    between atoms: C_3  and  C_4 
REMARK    2  A    between atoms: C_4  and  C_5 
REMARK    3  A    between atoms: C_4  and  C_12 
REMARK    4  A    between atoms: C_19  and  O_20 
ROOT
ATOM      1  C   UNL d   1      25.943 -15.205  -1.597  0.00  0.00     0.095 C 
ENDROOT
BRANCH   1   2
ATOM      2  C   UNL d   1      26.391 -15.272  -3.039  0.00  0.00     0.010 C 
ATOM      3  C   UNL d   1      27.631 -15.136  -3.533  0.00  0.00     0.060 C 
ATOM      4  C   UNL d   1      28.897 -14.866  -2.793  0.00  0.00     0.072 C 
ATOM      5  N   UNL d   1      27.665 -15.214  -4.900  0.00  0.00    -0.157 NA
ATOM      6  N   UNL d   1      26.525 -15.527  -5.335  0.00  0.00    -0.155 NA
ATOM      7  C   UNL d   1      25.531 -15.497  -4.232  0.00  0.00     0.296 C 
BRANCH   7   8
ATOM      8  O   UNL d   1      24.622 -14.442  -4.451  0.00  0.00    -0.369 OA
ATOM      9  H   UNL d   1      24.405 -14.487  -5.395  0.00  0.00     0.212 HD
ENDBRANCH   7   8
ENDBRANCH   1   2
BRANCH   1  10
ATOM     10  C   UNL d   1      24.885 -16.262  -1.238  0.00  0.00    -0.045 A 
ATOM     11  C   UNL d   1      25.254 -17.552  -0.831  0.00  0.00     0.009 A 
ATOM     12  C   UNL d   1      24.273 -18.495  -0.505  0.00  0.00     0.007 A 
ATOM     13  C   UNL d   1      22.913 -18.155  -0.536  0.00  0.00    -0.062 A 
ATOM     14  C   UNL d   1      21.842 -19.149  -0.233  0.00  0.00     0.048 C 
ATOM     15  C   UNL d   1      22.539 -16.866  -0.887  0.00  0.00     0.007 A 
ATOM     16  C   UNL d   1      23.510 -15.954  -1.260  0.00  0.00     0.009 A 
ENDBRANCH   1  10
BRANCH   1  17
ATOM     17  C   UNL d   1      27.054 -15.338  -0.577  0.00  0.00     0.050 A 
ATOM     18  C   UNL d   1      27.437 -14.456   0.492  0.00  0.00     0.063 A 
ATOM     19  C   UNL d   1      26.880 -13.145   0.901  0.00  0.00     0.073 C 
ATOM     20  N   UNL d   1      28.428 -14.968   1.229  0.00  0.00    -0.176 NA
ATOM     21  N   UNL d   1      28.704 -16.124   0.607  0.00  0.00    -0.243 N 
ATOM     22  C   UNL d   1      27.942 -16.412  -0.495  0.00  0.00     0.270 A 
ATOM     23  H   UNL d   1      29.442 -16.710   0.966  0.00  0.00     0.192 HD
ATOM     24  O   UNL d   1      28.182 -17.450  -1.093  0.00  0.00    -0.266 OA
ENDBRANCH   1  17
TORSDOF 4
ENDMDL
MODEL 2
REMARK VINA RESULT:    -7.536      1.250      1.899
REMARK INTER + INTRA:          -9.848
REMARK INTER:                  -8.730
REMARK INTRA:                  -1.118
REMARK CONF_INDEPENDENT:        1.193
REMARK UNBOUND:                -1.118
REMARK  4 active torsions:
REMARK  status: ('A' for Active; 'I' for Inactive)
REMARK    1  A    between atoms: C_3  and  C_4 
REMARK    2  A    between atoms: C_4  and  C_5 
REMARK    3  A    between atoms: C_4  and  C_12 
REMARK    4  A    between atoms: C_19  and  O_20 
ROOT
ATOM      1  C   UNL d   1      26.745 -15.182  -1.882  0.00  0.00     0.095 C 
ENDROOT
BRANCH   1   2
ATOM      2  C   UNL d   1      26.935 -15.072  -3.377  0.00  0.00     0.010 C 
ATOM      3  C   UNL d   1      27.965 -14.535  -4.048  0.00  0.00     0.060 C 
ATOM      4  C   UNL d   1      29.191 -13.889  -3.498  0.00  0.00     0.072 C 
ATOM      5  N   UNL d   1      27.786 -14.570  -5.405  0.00  0.00    -0.157 NA
ATOM      6  N   UNL d   1      26.744 -15.224  -5.679  0.00  0.00    -0.155 NA
ATOM      7  C   UNL d   1      25.996 -15.537  -4.434  0.00  0.00     0.296 C 
BRANCH   7   8
ATOM      8  O   UNL d   1      24.780 -14.825  -4.429  0.00  0.00    -0.369 OA
ATOM      9  H   UNL d   1      24.861 -14.181  -5.148  0.00  0.00     0.212 HD
ENDBRANCH   7   8
ENDBRANCH   1   2
BRANCH   1  10
ATOM     10  C   UNL d   1      25.575 -16.098  -1.482  0.00  0.00    -0.045 A 
ATOM     11  C   UNL d   1      25.801 -17.352  -0.897  0.00  0.00     0.009 A 
ATOM     12  C   UNL d   1      24.721 -18.166  -0.537  0.00  0.00     0.007 A 
ATOM     13  C   UNL d   1      23.402 -17.726  -0.713  0.00  0.00    -0.062 A 
ATOM     14  C   UNL d   1      22.229 -18.586  -0.377  0.00  0.00     0.048 C 
ATOM     15  C   UNL d   1      23.167 -16.466  -1.243  0.00  0.00     0.007 A 
ATOM     16  C   UNL d   1      24.237 -15.687  -1.646  0.00  0.00     0.009 A 
ENDBRANCH   1  10
BRANCH   1  17
ATOM     17  C   UNL d   1      27.958 -15.667  -1.118  0.00  0.00     0.050 A 
ATOM     18  C   UNL d   1      29.070 -16.465  -1.560  0.00  0.00     0.063 A 
ATOM     19  C   UNL d   1      29.351 -17.072  -2.883  0.00  0.00     0.073 C 
ATOM     20  N   UNL d   1      29.988 -16.615  -0.599  0.00  0.00    -0.176 NA
ATOM     21  N   UNL d   1      29.443 -15.973   0.445  0.00  0.00    -0.243 N 
ATOM     22  C   UNL d   1      28.221 -15.395   0.225  0.00  0.00     0.270 A 
ATOM     23  H   UNL d   1      29.943 -15.950   1.320  0.00  0.00     0.192 HD
ATOM     24  O   UNL d   1      27.691 -14.818   1.164  0.00  0.00    -0.266 OA
ENDBRANCH   1  17
TORSDOF 4
ENDMDL
MODEL 3
REMARK VINA RESULT:    -7.201      1.657      3.758
REMARK INTER + INTRA:          -9.454
REMARK INTER:                  -8.394
REMARK INTRA:                  -1.060
REMARK CONF_INDEPENDENT:        1.193
REMARK UNBOUND:                -1.060
REMARK  4 active torsions:
REMARK  status: ('A' for Active; 'I' for Inactive)
REMARK    1  A    between atoms: C_3  and  C_4 
REMARK    2  A    between atoms: C_4  and  C_5 
REMARK    3  A    between atoms: C_4  and  C_12 
REMARK    4  A    between atoms: C_19  and  O_20 
ROOT
ATOM      1  C   UNL d   1      26.535 -15.886  -2.196  0.00  0.00     0.095 C 
ENDROOT
BRANCH   1   2
ATOM      2  C   UNL d   1      27.803 -15.930  -1.375  0.00  0.00     0.010 C 
ATOM      3  C   UNL d   1      29.046 -16.232  -1.779  0.00  0.00     0.060 C 
ATOM      4  C   UNL d   1      29.507 -16.622  -3.143  0.00  0.00     0.072 C 
ATOM      5  N   UNL d   1      29.953 -16.212  -0.753  0.00  0.00    -0.157 NA
ATOM      6  N   UNL d   1      29.399 -15.782   0.294  0.00  0.00    -0.155 NA
ATOM      7  C   UNL d   1      27.935 -15.650   0.080  0.00  0.00     0.296 C 
BRANCH   7   8
ATOM      8  O   UNL d   1      27.260 -16.596   0.877  0.00  0.00    -0.369 OA
ATOM      9  H   UNL d   1      27.958 -17.069   1.355  0.00  0.00     0.212 HD
ENDBRANCH   7   8
ENDBRANCH   1   2
BRANCH   1  10
ATOM     10  C   UNL d   1      25.341 -16.569  -1.509  0.00  0.00    -0.045 A 
ATOM     11  C   UNL d   1      24.065 -15.987  -1.519  0.00  0.00     0.009 A 
ATOM     12  C   UNL d   1      22.992 -16.630  -0.892  0.00  0.00     0.007 A 
ATOM     13  C   UNL d   1      23.162 -17.881  -0.285  0.00  0.00    -0.062 A 
ATOM     14  C   UNL d   1      22.048 -18.573   0.428  0.00  0.00     0.048 C 
ATOM     15  C   UNL d   1      24.408 -18.491  -0.313  0.00  0.00     0.007 A 
ATOM     16  C   UNL d   1      25.477 -17.827  -0.889  0.00  0.00     0.009 A 
ENDBRANCH   1  10
BRANCH   1  17
ATOM     17  C   UNL d   1      26.076 -14.498  -2.589  0.00  0.00     0.050 A 
ATOM     18  C   UNL d   1      26.301 -13.233  -1.942  0.00  0.00     0.063 A 
ATOM     19  C   UNL d   1      27.025 -12.910  -0.690  0.00  0.00     0.073 C 
ATOM     20  N   UNL d   1      25.794 -12.217  -2.647  0.00  0.00    -0.176 NA
ATOM     21  N   UNL d   1      25.213 -12.829  -3.690  0.00  0.00    -0.243 N 
ATOM     22  C   UNL d   1      25.318 -14.195  -3.721  0.00  0.00     0.270 A 
ATOM     23  H   UNL d   1      24.736 -12.272  -4.382  0.00  0.00     0.192 HD
ATOM     24  O   UNL d   1      24.782 -14.782  -4.649  0.00  0.00    -0.266 OA
ENDBRANCH   1  17
TORSDOF 4
ENDMDL
MODEL 4
REMARK VINA RESULT:    -7.182      2.463      3.528
REMARK INTER + INTRA:          -9.203
REMARK INTER:                  -8.376
REMARK INTRA:                  -0.828
REMARK CONF_INDEPENDENT:        1.193
REMARK UNBOUND:                -0.828
REMARK  4 active torsions:
REMARK  status: ('A' for Active; 'I' for Inactive)
REMARK    1  A    between atoms: C_3  and  C_4 
REMARK    2  A    between atoms: C_4  and  C_5 
REMARK    3  A    between atoms: C_4  and  C_12 
REMARK    4  A    between atoms: C_19  and  O_20 
ROOT
ATOM      1  C   UNL d   1      27.259 -14.563  -2.568  0.00  0.00     0.095 C 
ENDROOT
BRANCH   1   2
ATOM      2  C   UNL d   1      26.602 -13.446  -3.345  0.00  0.00     0.010 C 
ATOM      3  C   UNL d   1      26.521 -12.146  -3.024  0.00  0.00     0.060 C 
ATOM      4  C   UNL d   1      27.043 -11.458  -1.809  0.00  0.00     0.072 C 
ATOM      5  N   UNL d   1      25.813 -11.420  -3.946  0.00  0.00    -0.157 NA
ATOM      6  N   UNL d   1      25.530 -12.148  -4.933  0.00  0.00    -0.155 NA
ATOM      7  C   UNL d   1      25.888 -13.561  -4.645  0.00  0.00     0.296 C 
BRANCH   7   8
ATOM      8  O   UNL d   1      24.712 -14.331  -4.550  0.00  0.00    -0.369 OA
ATOM      9  H   UNL d   1      24.036 -13.819  -5.020  0.00  0.00     0.212 HD
ENDBRANCH   7   8
ENDBRANCH   1   2
BRANCH   1  10
ATOM     10  C   UNL d   1      26.254 -15.557  -1.962  0.00  0.00    -0.045 A 
ATOM     11  C   UNL d   1      24.871 -15.351  -2.070  0.00  0.00     0.009 A 
ATOM     12  C   UNL d   1      23.976 -16.272  -1.515  0.00  0.00     0.007 A 
ATOM     13  C   UNL d   1      24.442 -17.433  -0.883  0.00  0.00    -0.062 A 
ATOM     14  C   UNL d   1      23.515 -18.413  -0.244  0.00  0.00     0.048 C 
ATOM     15  C   UNL d   1      25.807 -17.672  -0.814  0.00  0.00     0.007 A 
ATOM     16  C   UNL d   1      26.689 -16.733  -1.318  0.00  0.00     0.009 A 
ENDBRANCH   1  10
BRANCH   1  17
ATOM     17  C   UNL d   1      28.262 -15.382  -3.352  0.00  0.00     0.050 A 
ATOM     18  C   UNL d   1      29.408 -16.122  -2.898  0.00  0.00     0.063 A 
ATOM     19  C   UNL d   1      29.967 -16.286  -1.535  0.00  0.00     0.073 C 
ATOM     20  N   UNL d   1      30.001 -16.784  -3.897  0.00  0.00    -0.176 NA
ATOM     21  N   UNL d   1      29.279 -16.428  -4.969  0.00  0.00    -0.243 N 
ATOM     22  C   UNL d   1      28.233 -15.575  -4.735  0.00  0.00     0.270 A 
ATOM     23  H   UNL d   1      29.535 -16.790  -5.875  0.00  0.00     0.192 HD
ATOM     24  O   UNL d   1      27.568 -15.218  -5.696  0.00  0.00    -0.266 OA
ENDBRANCH   1  17
TORSDOF 4
ENDMDL
MODEL 5
REMARK VINA RESULT:    -6.960      1.333      1.759
REMARK INTER + INTRA:          -9.509
REMARK INTER:                  -8.154
REMARK INTRA:                  -1.356
REMARK CONF_INDEPENDENT:        1.193
REMARK UNBOUND:                -1.356
REMARK  4 active torsions:
REMARK  status: ('A' for Active; 'I' for Inactive)
REMARK    1  A    between atoms: C_3  and  C_4 
REMARK    2  A    between atoms: C_4  and  C_5 
REMARK    3  A    between atoms: C_4  and  C_12 
REMARK    4  A    between atoms: C_19  and  O_20 
ROOT
ATOM      1  C   UNL d   1      26.583 -14.983  -1.647  0.00  0.00     0.095 C 
ENDROOT
BRANCH   1   2
ATOM      2  C   UNL d   1      27.147 -15.156  -3.037  0.00  0.00     0.010 C 
ATOM      3  C   UNL d   1      26.546 -14.923  -4.214  0.00  0.00     0.060 C 
ATOM      4  C   UNL d   1      25.155 -14.448  -4.465  0.00  0.00     0.072 C 
ATOM      5  N   UNL d   1      27.346 -15.228  -5.283  0.00  0.00    -0.157 NA
ATOM      6  N   UNL d   1      28.500 -15.530  -4.878  0.00  0.00    -0.155 NA
ATOM      7  C   UNL d   1      28.509 -15.637  -3.396  0.00  0.00     0.296 C 
BRANCH   7   8
ATOM      8  O   UNL d   1      28.722 -16.980  -3.027  0.00  0.00    -0.369 OA
ATOM      9  H   UNL d   1      27.922 -17.241  -2.545  0.00  0.00     0.212 HD
ENDBRANCH   7   8
ENDBRANCH   1   2
BRANCH   1  10
ATOM     10  C   UNL d   1      25.579 -16.081  -1.255  0.00  0.00    -0.045 A 
ATOM     11  C   UNL d   1      25.983 -17.211  -0.531  0.00  0.00     0.009 A 
ATOM     12  C   UNL d   1      25.050 -18.194  -0.182  0.00  0.00     0.007 A 
ATOM     13  C   UNL d   1      23.695 -18.046  -0.510  0.00  0.00    -0.062 A 
ATOM     14  C   UNL d   1      22.684 -19.095  -0.188  0.00  0.00     0.048 C 
ATOM     15  C   UNL d   1      23.276 -16.907  -1.181  0.00  0.00     0.007 A 
ATOM     16  C   UNL d   1      24.210 -15.963  -1.570  0.00  0.00     0.009 A 
ENDBRANCH   1  10
BRANCH   1  17
ATOM     17  C   UNL d   1      27.616 -14.924  -0.541  0.00  0.00     0.050 A 
ATOM     18  C   UNL d   1      27.898 -13.879   0.406  0.00  0.00     0.063 A 
ATOM     19  C   UNL d   1      27.282 -12.540   0.569  0.00  0.00     0.073 C 
ATOM     20  N   UNL d   1      28.841 -14.241   1.281  0.00  0.00    -0.176 NA
ATOM     21  N   UNL d   1      29.188 -15.468   0.864  0.00  0.00    -0.243 N 
ATOM     22  C   UNL d   1      28.518 -15.944  -0.232  0.00  0.00     0.270 A 
ATOM     23  H   UNL d   1      29.909 -15.968   1.361  0.00  0.00     0.192 HD
ATOM     24  O   UNL d   1      28.825 -17.052  -0.646  0.00  0.00    -0.266 OA
ENDBRANCH   1  17
TORSDOF 4
ENDMDL
MODEL 6
REMARK VINA RESULT:    -6.942      1.845      4.015
REMARK INTER + INTRA:          -9.953
REMARK INTER:                  -8.135
REMARK INTRA:                  -1.818
REMARK CONF_INDEPENDENT:        1.193
REMARK UNBOUND:                -1.818
REMARK  4 active torsions:
REMARK  status: ('A' for Active; 'I' for Inactive)
REMARK    1  A    between atoms: C_3  and  C_4 
REMARK    2  A    between atoms: C_4  and  C_5 
REMARK    3  A    between atoms: C_4  and  C_12 
REMARK    4  A    between atoms: C_19  and  O_20 
ROOT
ATOM      1  C   UNL d   1      27.089 -15.246  -1.815  0.00  0.00     0.095 C 
ENDROOT
BRANCH   1   2
ATOM      2  C   UNL d   1      27.059 -13.868  -1.197  0.00  0.00     0.010 C 
ATOM      3  C   UNL d   1      27.128 -13.536   0.101  0.00  0.00     0.060 C 
ATOM      4  C   UNL d   1      27.238 -14.439   1.282  0.00  0.00     0.072 C 
ATOM      5  N   UNL d   1      27.030 -12.185   0.305  0.00  0.00    -0.157 NA
ATOM      6  N   UNL d   1      27.030 -11.587  -0.804  0.00  0.00    -0.155 NA
ATOM      7  C   UNL d   1      26.934 -12.570  -1.914  0.00  0.00     0.296 C 
BRANCH   7   8
ATOM      8  O   UNL d   1      25.689 -12.425  -2.559  0.00  0.00    -0.369 OA
ATOM      9  H   UNL d   1      25.211 -13.248  -2.374  0.00  0.00     0.212 HD
ENDBRANCH   7   8
ENDBRANCH   1   2
BRANCH   1  10
ATOM     10  C   UNL d   1      25.943 -16.154  -1.338  0.00  0.00    -0.045 A 
ATOM     11  C   UNL d   1      26.199 -17.394  -0.736  0.00  0.00     0.009 A 
ATOM     12  C   UNL d   1      25.139 -18.200  -0.305  0.00  0.00     0.007 A 
ATOM     13  C   UNL d   1      23.812 -17.765  -0.427  0.00  0.00    -0.062 A 
ATOM     14  C   UNL d   1      22.659 -18.618  -0.015  0.00  0.00     0.048 C 
ATOM     15  C   UNL d   1      23.550 -16.517  -0.974  0.00  0.00     0.007 A 
ATOM     16  C   UNL d   1      24.597 -15.747  -1.446  0.00  0.00     0.009 A 
ENDBRANCH   1  10
BRANCH   1  17
ATOM     17  C   UNL d   1      27.061 -15.268  -3.329  0.00  0.00     0.050 A 
ATOM     18  C   UNL d   1      28.105 -15.576  -4.268  0.00  0.00     0.063 A 
ATOM     19  C   UNL d   1      29.525 -15.937  -4.042  0.00  0.00     0.073 C 
ATOM     20  N   UNL d   1      27.661 -15.562  -5.529  0.00  0.00    -0.176 NA
ATOM     21  N   UNL d   1      26.376 -15.200  -5.395  0.00  0.00    -0.243 N 
ATOM     22  C   UNL d   1      25.941 -14.985  -4.113  0.00  0.00     0.270 A 
ATOM     23  H   UNL d   1      25.806 -15.102  -6.221  0.00  0.00     0.192 HD
ATOM     24  O   UNL d   1      24.780 -14.637  -3.961  0.00  0.00    -0.266 OA
ENDBRANCH   1  17
TORSDOF 4
ENDMDL
MODEL 7
REMARK VINA RESULT:    -6.890      1.644      5.721
REMARK INTER + INTRA:          -9.304
REMARK INTER:                  -8.083
REMARK INTRA:                  -1.221
REMARK CONF_INDEPENDENT:        1.193
REMARK UNBOUND:                -1.221
REMARK  4 active torsions:
REMARK  status: ('A' for Active; 'I' for Inactive)
REMARK    1  A    between atoms: C_3  and  C_4 
REMARK    2  A    between atoms: C_4  and  C_5 
REMARK    3  A    between atoms: C_4  and  C_12 
REMARK    4  A    between atoms: C_19  and  O_20 
ROOT
ATOM      1  C   UNL d   1      25.902 -15.248  -1.539  0.00  0.00     0.095 C 
ENDROOT
BRANCH   1   2
ATOM      2  C   UNL d   1      26.128 -16.556  -0.818  0.00  0.00     0.010 C 
ATOM      3  C   UNL d   1      25.216 -17.458  -0.423  0.00  0.00     0.060 C 
ATOM      4  C   UNL d   1      23.734 -17.402  -0.575  0.00  0.00     0.072 C 
ATOM      5  N   UNL d   1      25.776 -18.516   0.242  0.00  0.00    -0.157 NA
ATOM      6  N   UNL d   1      27.031 -18.431   0.196  0.00  0.00    -0.155 NA
ATOM      7  C   UNL d   1      27.433 -17.122  -0.382  0.00  0.00     0.296 C 
BRANCH   7   8
ATOM      8  O   UNL d   1      28.054 -16.343   0.615  0.00  0.00    -0.369 OA
ATOM      9  H   UNL d   1      28.750 -16.910   0.982  0.00  0.00     0.212 HD
ENDBRANCH   7   8
ENDBRANCH   1   2
BRANCH   1  10
ATOM     10  C   UNL d   1      26.583 -14.050  -0.855  0.00  0.00    -0.045 A 
ATOM     11  C   UNL d   1      27.159 -13.015  -1.606  0.00  0.00     0.009 A 
ATOM     12  C   UNL d   1      27.769 -11.933  -0.962  0.00  0.00     0.007 A 
ATOM     13  C   UNL d   1      27.776 -11.843   0.437  0.00  0.00    -0.062 A 
ATOM     14  C   UNL d   1      28.454 -10.723   1.154  0.00  0.00     0.048 C 
ATOM     15  C   UNL d   1      27.164 -12.835   1.189  0.00  0.00     0.007 A 
ATOM     16  C   UNL d   1      26.609 -13.929   0.549  0.00  0.00     0.009 A 
ENDBRANCH   1  10
BRANCH   1  17
ATOM     17  C   UNL d   1      26.343 -15.232  -2.987  0.00  0.00     0.050 A 
ATOM     18  C   UNL d   1      27.610 -15.578  -3.571  0.00  0.00     0.063 A 
ATOM     19  C   UNL d   1      28.870 -16.030  -2.933  0.00  0.00     0.073 C 
ATOM     20  N   UNL d   1      27.580 -15.507  -4.905  0.00  0.00    -0.176 NA
ATOM     21  N   UNL d   1      26.337 -15.072  -5.158  0.00  0.00    -0.243 N 
ATOM     22  C   UNL d   1      25.537 -14.862  -4.065  0.00  0.00     0.270 A 
ATOM     23  H   UNL d   1      26.056 -14.919  -6.115  0.00  0.00     0.192 HD
ATOM     24  O   UNL d   1      24.405 -14.448  -4.264  0.00  0.00    -0.266 OA
ENDBRANCH   1  17
TORSDOF 4
ENDMDL
MODEL 8
REMARK VINA RESULT:    -6.622      2.245      4.389
REMARK INTER + INTRA:          -9.737
REMARK INTER:                  -7.815
REMARK INTRA:                  -1.922
REMARK CONF_INDEPENDENT:        1.193
REMARK UNBOUND:                -1.922
REMARK  4 active torsions:
REMARK  status: ('A' for Active; 'I' for Inactive)
REMARK    1  A    between atoms: C_3  and  C_4 
REMARK    2  A    between atoms: C_4  and  C_5 
REMARK    3  A    between atoms: C_4  and  C_12 
REMARK    4  A    between atoms: C_19  and  O_20 
ROOT
ATOM      1  C   UNL d   1      26.950 -15.819  -1.684  0.00  0.00     0.095 C 
ENDROOT
BRANCH   1   2
ATOM      2  C   UNL d   1      26.909 -15.666  -3.187  0.00  0.00     0.010 C 
ATOM      3  C   UNL d   1      27.939 -15.574  -4.042  0.00  0.00     0.060 C 
ATOM      4  C   UNL d   1      29.399 -15.582  -3.738  0.00  0.00     0.072 C 
ATOM      5  N   UNL d   1      27.532 -15.402  -5.339  0.00  0.00    -0.157 NA
ATOM      6  N   UNL d   1      26.279 -15.506  -5.408  0.00  0.00    -0.155 NA
ATOM      7  C   UNL d   1      25.696 -15.574  -4.043  0.00  0.00     0.296 C 
BRANCH   7   8
ATOM      8  O   UNL d   1      24.947 -14.407  -3.797  0.00  0.00    -0.369 OA
ATOM      9  H   UNL d   1      24.310 -14.654  -3.109  0.00  0.00     0.212 HD
ENDBRANCH   7   8
ENDBRANCH   1   2
BRANCH   1  10
ATOM     10  C   UNL d   1      26.959 -14.475  -0.935  0.00  0.00    -0.045 A 
ATOM     11  C   UNL d   1      26.670 -14.405   0.435  0.00  0.00     0.009 A 
ATOM     12  C   UNL d   1      26.689 -13.171   1.097  0.00  0.00     0.007 A 
ATOM     13  C   UNL d   1      27.040 -11.998   0.415  0.00  0.00    -0.062 A 
ATOM     14  C   UNL d   1      27.030 -10.663   1.082  0.00  0.00     0.048 C 
ATOM     15  C   UNL d   1      27.378 -12.063  -0.929  0.00  0.00     0.007 A 
ATOM     16  C   UNL d   1      27.306 -13.276  -1.590  0.00  0.00     0.009 A 
ENDBRANCH   1  10
BRANCH   1  17
ATOM     17  C   UNL d   1      25.822 -16.638  -1.095  0.00  0.00     0.050 A 
ATOM     18  C   UNL d   1      25.868 -17.807  -0.259  0.00  0.00     0.063 A 
ATOM     19  C   UNL d   1      27.027 -18.575   0.255  0.00  0.00     0.073 C 
ATOM     20  N   UNL d   1      24.647 -18.195   0.122  0.00  0.00    -0.176 NA
ATOM     21  N   UNL d   1      23.841 -17.324  -0.504  0.00  0.00    -0.243 N 
ATOM     22  C   UNL d   1      24.463 -16.372  -1.268  0.00  0.00     0.270 A 
ATOM     23  H   UNL d   1      22.843 -17.409  -0.389  0.00  0.00     0.192 HD
ATOM     24  O   UNL d   1      23.754 -15.574  -1.865  0.00  0.00    -0.266 OA
ENDBRANCH   1  17
TORSDOF 4
ENDMDL
MODEL 9
REMARK VINA RESULT:    -5.972      2.632      5.512
REMARK INTER + INTRA:          -8.961
REMARK INTER:                  -7.165
REMARK INTRA:                  -1.797
REMARK CONF_INDEPENDENT:        1.193
REMARK UNBOUND:                -1.797
REMARK  4 active torsions:
REMARK  status: ('A' for Active; 'I' for Inactive)
REMARK    1  A    between atoms: C_3  and  C_4 
REMARK    2  A    between atoms: C_4  and  C_5 
REMARK    3  A    between atoms: C_4  and  C_12 
REMARK    4  A    between atoms: C_19  and  O_20 
ROOT
ATOM      1  C   UNL d   1      27.231 -14.712  -2.128  0.00  0.00     0.095 C 
ENDROOT
BRANCH   1   2
ATOM      2  C   UNL d   1      26.358 -15.746  -1.457  0.00  0.00     0.010 C 
ATOM      3  C   UNL d   1      26.585 -16.411  -0.314  0.00  0.00     0.060 C 
ATOM      4  C   UNL d   1      27.767 -16.320   0.591  0.00  0.00     0.072 C 
ATOM      5  N   UNL d   1      25.593 -17.310  -0.022  0.00  0.00    -0.157 NA
ATOM      6  N   UNL d   1      24.649 -17.183  -0.847  0.00  0.00    -0.155 NA
ATOM      7  C   UNL d   1      25.046 -16.257  -1.938  0.00  0.00     0.296 C 
BRANCH   7   8
ATOM      8  O   UNL d   1      25.155 -16.976  -3.145  0.00  0.00    -0.369 OA
ATOM      9  H   UNL d   1      25.208 -16.302  -3.838  0.00  0.00     0.212 HD
ENDBRANCH   7   8
ENDBRANCH   1   2
BRANCH   1  10
ATOM     10  C   UNL d   1      28.088 -15.285  -3.270  0.00  0.00    -0.045 A 
ATOM     11  C   UNL d   1      28.043 -14.737  -4.559  0.00  0.00     0.009 A 
ATOM     12  C   UNL d   1      28.835 -15.273  -5.580  0.00  0.00     0.007 A 
ATOM     13  C   UNL d   1      29.717 -16.332  -5.323  0.00  0.00    -0.062 A 
ATOM     14  C   UNL d   1      30.545 -16.952  -6.399  0.00  0.00     0.048 C 
ATOM     15  C   UNL d   1      29.808 -16.848  -4.039  0.00  0.00     0.007 A 
ATOM     16  C   UNL d   1      28.984 -16.350  -3.045  0.00  0.00     0.009 A 
ENDBRANCH   1  10
BRANCH   1  17
ATOM     17  C   UNL d   1      26.488 -13.522  -2.698  0.00  0.00     0.050 A 
ATOM     18  C   UNL d   1      26.653 -12.117  -2.436  0.00  0.00     0.063 A 
ATOM     19  C   UNL d   1      27.579 -11.415  -1.516  0.00  0.00     0.073 C 
ATOM     20  N   UNL d   1      25.852 -11.371  -3.202  0.00  0.00    -0.176 NA
ATOM     21  N   UNL d   1      25.155 -12.284  -3.895  0.00  0.00    -0.243 N 
ATOM     22  C   UNL d   1      25.459 -13.595  -3.639  0.00  0.00     0.270 A 
ATOM     23  H   UNL d   1      24.456 -11.972  -4.551  0.00  0.00     0.192 HD
ATOM     24  O   UNL d   1      24.827 -14.450  -4.241  0.00  0.00    -0.266 OA
ENDBRANCH   1  17
TORSDOF 4
ENDMDL
