MODEL 1
REMARK VINA RESULT:   -34.138      0.000      0.000
REMARK INTER + INTRA:         -42.691
REMARK INTER:                 -38.612
REMARK INTRA:                  -4.079
REMARK CONF_INDEPENDENT:        4.474
REMARK UNBOUND:                -4.079
REMARK  15 active torsions:
REMARK  status: ('A' for Active; 'I' for Inactive)
REMARK    1  A    between atoms: C_2  and  O_5 
REMARK    2  A    between atoms: O_5  and  C_6 
REMARK       I    between atoms: C_6  and  N_8 
REMARK    3  A    between atoms: N_8  and  C_9 
REMARK    4  A    between atoms: C_9  and  C_10 
REMARK    5  A    between atoms: C_9  and  C_17 
REMARK    6  A    between atoms: C_10  and  C_11 
REMARK    7  A    between atoms: C_17  and  O_18 
REMARK    8  A    between atoms: C_17  and  C_19 
REMARK    9  A    between atoms: C_19  and  N_20 
REMARK   10  A    between atoms: N_20  and  C_21 
REMARK   11  A    between atoms: N_20  and  N_34 
REMARK   12  A    between atoms: C_21  and  C_22 
REMARK   13  A    between atoms: C_25  and  C_26 
REMARK       I    between atoms: N_34  and  C_35 
REMARK   14  A    between atoms: C_35  and  O_37 
REMARK   15  A    between atoms: O_37  and  C_38 
ROOT
ATOM      1  N   UNL d   1      26.930 -16.542  -0.904  0.00  0.00    -0.220 NA
ENDROOT
BRANCH   1   2
ATOM      2  C   UNL d   1      28.010 -16.432   0.123  0.00  0.00     0.148 C 
BRANCH   2   3
ATOM      3  C   UNL d   1      28.606 -15.012   0.269  0.00  0.00     0.156 C 
BRANCH   3   4
ATOM      4  C   UNL d   1      28.108 -14.032   1.309  0.00  0.00     0.120 C 
BRANCH   4   5
ATOM      5  N   UNL d   1      28.524 -14.464   2.729  0.00  0.00    -0.329 N 
ATOM      6  C   UNL d   1      27.696 -14.263   3.816  0.00  0.00     0.361 C 
ATOM      7  O   UNL d   1      26.659 -13.701   3.714  0.00  0.00    -0.238 OA
ATOM      8  H   UNL d   1      29.210 -15.206   2.793  0.00  0.00     0.165 HD
BRANCH   6   9
ATOM      9  O   UNL d   1      28.050 -14.692   5.062  0.00  0.00    -0.294 OA
BRANCH   9  10
ATOM     10  C   UNL d   1      28.839 -13.633   5.762  0.00  0.00     0.061 C 
ATOM     11  C   UNL d   1      27.865 -12.486   6.000  0.00  0.00     0.046 C 
ATOM     12  C   UNL d   1      30.030 -13.066   4.927  0.00  0.00     0.046 C 
ATOM     13  C   UNL d   1      29.368 -14.080   7.163  0.00  0.00     0.046 C 
ENDBRANCH   9  10
ENDBRANCH   6   9
ENDBRANCH   4   5
BRANCH   4  14
ATOM     14  C   UNL d   1      28.567 -12.696   0.847  0.00  0.00     0.066 C 
BRANCH  14  15
ATOM     15  C   UNL d   1      28.002 -11.585   1.648  0.00  0.00    -0.056 C 
ATOM     16  C   UNL d   1      26.666 -11.133   1.540  0.00  0.00     0.007 C 
ATOM     17  C   UNL d   1      26.141 -10.297   2.512  0.00  0.00     0.001 C 
ATOM     18  C   UNL d   1      26.998  -9.769   3.461  0.00  0.00     0.000 C 
ATOM     19  C   UNL d   1      28.361 -10.086   3.451  0.00  0.00     0.001 C 
ATOM     20  C   UNL d   1      28.857 -11.035   2.582  0.00  0.00     0.007 C 
ENDBRANCH  14  15
ENDBRANCH   4  14
ENDBRANCH   3   4
BRANCH   3  21
ATOM     21  O   UNL d   1      29.756 -15.184   1.005  0.00  0.00    -0.392 OA
ATOM     22  H   UNL d   1      29.705 -16.015   1.499  0.00  0.00     0.210 HD
ENDBRANCH   3  21
ENDBRANCH   2   3
ENDBRANCH   1   2
BRANCH   1  23
ATOM     23  C   UNL d   1      25.533 -16.106  -0.457  0.00  0.00     0.152 C 
BRANCH  23  24
ATOM     24  C   UNL d   1      24.315 -17.019  -0.714  0.00  0.00    -0.043 C 
ATOM     25  C   UNL d   1      23.035 -16.489  -1.024  0.00  0.00     0.009 C 
ATOM     26  C   UNL d   1      21.897 -17.180  -0.544  0.00  0.00     0.014 C 
ATOM     27  C   UNL d   1      21.969 -18.521  -0.155  0.00  0.00    -0.007 C 
ATOM     28  C   UNL d   1      23.234 -19.123  -0.148  0.00  0.00     0.014 C 
ATOM     29  C   UNL d   1      24.398 -18.375  -0.385  0.00  0.00     0.009 C 
BRANCH  27  30
ATOM     30  C   UNL d   1      20.730 -19.251   0.108  0.00  0.00     0.066 A 
ATOM     31  C   UNL d   1      20.440 -19.911   1.298  0.00  0.00     0.032 A 
ATOM     32  C   UNL d   1      19.293 -20.700   1.352  0.00  0.00     0.004 A 
ATOM     33  C   UNL d   1      18.469 -20.796   0.235  0.00  0.00     0.019 A 
ATOM     34  C   UNL d   1      18.808 -20.074  -0.891  0.00  0.00     0.117 A 
ATOM     35  N   UNL d   1      19.905 -19.304  -0.970  0.00  0.00    -0.260 NA
ENDBRANCH  27  30
ENDBRANCH  23  24
ENDBRANCH   1  23
BRANCH   1  36
ATOM     36  N   UNL d   1      27.334 -15.763  -2.090  0.00  0.00    -0.264 N 
ATOM     37  C   UNL d   1      26.456 -15.602  -3.150  0.00  0.00     0.376 C 
ATOM     38  O   UNL d   1      25.332 -16.088  -3.159  0.00  0.00    -0.237 OA
ATOM     39  H   UNL d   1      28.281 -15.406  -2.182  0.00  0.00     0.186 HD
BRANCH  37  40
ATOM     40  O   UNL d   1      26.957 -14.811  -4.156  0.00  0.00    -0.293 OA
BRANCH  40  41
ATOM     41  C   UNL d   1      26.583 -13.393  -4.123  0.00  0.00     0.061 C 
ATOM     42  C   UNL d   1      25.153 -13.185  -4.646  0.00  0.00     0.046 C 
ATOM     43  C   UNL d   1      26.744 -12.814  -2.708  0.00  0.00     0.046 C 
ATOM     44  C   UNL d   1      27.524 -12.594  -5.049  0.00  0.00     0.046 C 
ENDBRANCH  40  41
ENDBRANCH  37  40
ENDBRANCH   1  36
TORSDOF 15
ENDMDL
MODEL 2
REMARK VINA RESULT:   -33.529      1.833      3.860
REMARK INTER + INTRA:         -42.252
REMARK INTER:                 -38.004
REMARK INTRA:                  -4.248
REMARK CONF_INDEPENDENT:        4.474
REMARK UNBOUND:                -4.248
REMARK  15 active torsions:
REMARK  status: ('A' for Active; 'I' for Inactive)
REMARK    1  A    between atoms: C_2  and  O_5 
REMARK    2  A    between atoms: O_5  and  C_6 
REMARK       I    between atoms: C_6  and  N_8 
REMARK    3  A    between atoms: N_8  and  C_9 
REMARK    4  A    between atoms: C_9  and  C_10 
REMARK    5  A    between atoms: C_9  and  C_17 
REMARK    6  A    between atoms: C_10  and  C_11 
REMARK    7  A    between atoms: C_17  and  O_18 
REMARK    8  A    between atoms: C_17  and  C_19 
REMARK    9  A    between atoms: C_19  and  N_20 
REMARK   10  A    between atoms: N_20  and  C_21 
REMARK   11  A    between atoms: N_20  and  N_34 
REMARK   12  A    between atoms: C_21  and  C_22 
REMARK   13  A    between atoms: C_25  and  C_26 
REMARK       I    between atoms: N_34  and  C_35 
REMARK   14  A    between atoms: C_35  and  O_37 
REMARK   15  A    between atoms: O_37  and  C_38 
ROOT
ATOM      1  N   UNL d   1      26.401 -15.526  -1.924  0.00  0.00    -0.220 NA
ENDROOT
BRANCH   1   2
ATOM      2  C   UNL d   1      26.512 -15.210  -0.468  0.00  0.00     0.148 C 
BRANCH   2   3
ATOM      3  C   UNL d   1      27.672 -15.935   0.254  0.00  0.00     0.156 C 
BRANCH   3   4
ATOM      4  C   UNL d   1      29.081 -15.382   0.272  0.00  0.00     0.120 C 
BRANCH   4   5
ATOM      5  N   UNL d   1      29.442 -14.819   1.661  0.00  0.00    -0.329 N 
ATOM      6  C   UNL d   1      29.194 -13.501   1.992  0.00  0.00     0.361 C 
ATOM      7  O   UNL d   1      28.746 -12.735   1.208  0.00  0.00    -0.238 OA
ATOM      8  H   UNL d   1      29.506 -15.489   2.417  0.00  0.00     0.165 HD
BRANCH   6   9
ATOM      9  O   UNL d   1      29.471 -13.023   3.239  0.00  0.00    -0.294 OA
BRANCH   9  10
ATOM     10  C   UNL d   1      28.489 -13.568   4.226  0.00  0.00     0.061 C 
ATOM     11  C   UNL d   1      28.511 -12.602   5.404  0.00  0.00     0.046 C 
ATOM     12  C   UNL d   1      28.856 -14.982   4.777  0.00  0.00     0.046 C 
ATOM     13  C   UNL d   1      27.022 -13.597   3.688  0.00  0.00     0.046 C 
ENDBRANCH   9  10
ENDBRANCH   6   9
ENDBRANCH   4   5
BRANCH   4  14
ATOM     14  C   UNL d   1      29.941 -16.470  -0.260  0.00  0.00     0.066 C 
BRANCH  14  15
ATOM     15  C   UNL d   1      29.973 -16.507  -1.742  0.00  0.00    -0.056 C 
ATOM     16  C   UNL d   1      30.556 -17.554  -2.494  0.00  0.00     0.007 C 
ATOM     17  C   UNL d   1      30.291 -17.657  -3.850  0.00  0.00     0.001 C 
ATOM     18  C   UNL d   1      29.622 -16.619  -4.472  0.00  0.00     0.000 C 
ATOM     19  C   UNL d   1      29.203 -15.498  -3.746  0.00  0.00     0.001 C 
ATOM     20  C   UNL d   1      29.328 -15.463  -2.373  0.00  0.00     0.007 C 
ENDBRANCH  14  15
ENDBRANCH   4  14
ENDBRANCH   3   4
BRANCH   3  21
ATOM     21  O   UNL d   1      27.537 -15.592   1.580  0.00  0.00    -0.392 OA
ATOM     22  H   UNL d   1      27.315 -14.652   1.651  0.00  0.00     0.210 HD
ENDBRANCH   3  21
ENDBRANCH   2   3
ENDBRANCH   1   2
BRANCH   1  23
ATOM     23  C   UNL d   1      25.489 -16.699  -2.289  0.00  0.00     0.152 C 
BRANCH  23  24
ATOM     24  C   UNL d   1      24.396 -17.166  -1.305  0.00  0.00    -0.043 C 
ATOM     25  C   UNL d   1      24.437 -18.448  -0.694  0.00  0.00     0.009 C 
ATOM     26  C   UNL d   1      23.208 -19.105  -0.449  0.00  0.00     0.014 C 
ATOM     27  C   UNL d   1      22.002 -18.402  -0.402  0.00  0.00    -0.007 C 
ATOM     28  C   UNL d   1      22.038 -17.038  -0.723  0.00  0.00     0.014 C 
ATOM     29  C   UNL d   1      23.209 -16.434  -1.206  0.00  0.00     0.009 C 
BRANCH  27  30
ATOM     30  C   UNL d   1      20.801 -19.082   0.083  0.00  0.00     0.066 A 
ATOM     31  C   UNL d   1      20.624 -19.536   1.386  0.00  0.00     0.032 A 
ATOM     32  C   UNL d   1      19.498 -20.308   1.668  0.00  0.00     0.004 A 
ATOM     33  C   UNL d   1      18.586 -20.590   0.656  0.00  0.00     0.019 A 
ATOM     34  C   UNL d   1      18.817 -20.064  -0.599  0.00  0.00     0.117 A 
ATOM     35  N   UNL d   1      19.890 -19.316  -0.897  0.00  0.00    -0.260 NA
ENDBRANCH  27  30
ENDBRANCH  23  24
ENDBRANCH   1  23
BRANCH   1  36
ATOM     36  N   UNL d   1      25.951 -14.311  -2.630  0.00  0.00    -0.264 N 
ATOM     37  C   UNL d   1      25.537 -14.387  -3.951  0.00  0.00     0.376 C 
ATOM     38  O   UNL d   1      25.528 -15.435  -4.584  0.00  0.00    -0.237 OA
ATOM     39  H   UNL d   1      26.014 -13.398  -2.190  0.00  0.00     0.186 HD
BRANCH  37  40
ATOM     40  O   UNL d   1      25.100 -13.184  -4.453  0.00  0.00    -0.293 OA
BRANCH  40  41
ATOM     41  C   UNL d   1      26.128 -12.173  -4.723  0.00  0.00     0.061 C 
ATOM     42  C   UNL d   1      25.779 -11.349  -5.972  0.00  0.00     0.046 C 
ATOM     43  C   UNL d   1      26.338 -11.264  -3.501  0.00  0.00     0.046 C 
ATOM     44  C   UNL d   1      27.474 -12.874  -5.003  0.00  0.00     0.046 C 
ENDBRANCH  40  41
ENDBRANCH  37  40
ENDBRANCH   1  36
TORSDOF 15
ENDMDL
MODEL 3
REMARK VINA RESULT:   -33.494      3.871      6.684
REMARK INTER + INTRA:         -42.487
REMARK INTER:                 -37.969
REMARK INTRA:                  -4.518
REMARK CONF_INDEPENDENT:        4.474
REMARK UNBOUND:                -4.518
REMARK  15 active torsions:
REMARK  status: ('A' for Active; 'I' for Inactive)
REMARK    1  A    between atoms: C_2  and  O_5 
REMARK    2  A    between atoms: O_5  and  C_6 
REMARK       I    between atoms: C_6  and  N_8 
REMARK    3  A    between atoms: N_8  and  C_9 
REMARK    4  A    between atoms: C_9  and  C_10 
REMARK    5  A    between atoms: C_9  and  C_17 
REMARK    6  A    between atoms: C_10  and  C_11 
REMARK    7  A    between atoms: C_17  and  O_18 
REMARK    8  A    between atoms: C_17  and  C_19 
REMARK    9  A    between atoms: C_19  and  N_20 
REMARK   10  A    between atoms: N_20  and  C_21 
REMARK   11  A    between atoms: N_20  and  N_34 
REMARK   12  A    between atoms: C_21  and  C_22 
REMARK   13  A    between atoms: C_25  and  C_26 
REMARK       I    between atoms: N_34  and  C_35 
REMARK   14  A    between atoms: C_35  and  O_37 
REMARK   15  A    between atoms: O_37  and  C_38 
ROOT
ATOM      1  N   UNL d   1      25.174 -15.448  -3.350  0.00  0.00    -0.220 NA
ENDROOT
BRANCH   1   2
ATOM      2  C   UNL d   1      25.904 -15.641  -4.640  0.00  0.00     0.148 C 
BRANCH   2   3
ATOM      3  C   UNL d   1      27.341 -15.070  -4.648  0.00  0.00     0.156 C 
BRANCH   3   4
ATOM      4  C   UNL d   1      28.558 -15.945  -4.435  0.00  0.00     0.120 C 
BRANCH   4   5
ATOM      5  N   UNL d   1      29.281 -16.232  -5.767  0.00  0.00    -0.329 N 
ATOM      6  C   UNL d   1      30.471 -16.930  -5.805  0.00  0.00     0.361 C 
ATOM      7  O   UNL d   1      31.015 -17.289  -4.817  0.00  0.00    -0.238 OA
ATOM      8  H   UNL d   1      28.706 -16.236  -6.600  0.00  0.00     0.165 HD
BRANCH   6   9
ATOM      9  O   UNL d   1      31.079 -17.223  -6.990  0.00  0.00    -0.294 OA
BRANCH   9  10
ATOM     10  C   UNL d   1      31.409 -18.680  -7.049  0.00  0.00     0.061 C 
ATOM     11  C   UNL d   1      31.327 -19.060  -8.522  0.00  0.00     0.046 C 
ATOM     12  C   UNL d   1      30.406 -19.593  -6.276  0.00  0.00     0.046 C 
ATOM     13  C   UNL d   1      32.862 -19.005  -6.575  0.00  0.00     0.046 C 
ENDBRANCH   9  10
ENDBRANCH   6   9
ENDBRANCH   4   5
BRANCH   4  14
ATOM     14  C   UNL d   1      29.347 -15.274  -3.369  0.00  0.00     0.066 C 
BRANCH  14  15
ATOM     15  C   UNL d   1      28.767 -15.463  -2.018  0.00  0.00    -0.056 C 
ATOM     16  C   UNL d   1      28.172 -14.426  -1.262  0.00  0.00     0.007 C 
ATOM     17  C   UNL d   1      27.406 -14.738  -0.151  0.00  0.00     0.001 C 
ATOM     18  C   UNL d   1      27.404 -16.045   0.304  0.00  0.00     0.000 C 
ATOM     19  C   UNL d   1      28.143 -17.034  -0.354  0.00  0.00     0.001 C 
ATOM     20  C   UNL d   1      28.782 -16.759  -1.546  0.00  0.00     0.007 C 
ENDBRANCH  14  15
ENDBRANCH   4  14
ENDBRANCH   3   4
BRANCH   3  21
ATOM     21  O   UNL d   1      27.673 -14.961  -5.980  0.00  0.00    -0.392 OA
ATOM     22  H   UNL d   1      27.197 -14.215  -6.373  0.00  0.00     0.210 HD
ENDBRANCH   3  21
ENDBRANCH   2   3
ENDBRANCH   1   2
BRANCH   1  23
ATOM     23  C   UNL d   1      25.510 -16.439  -2.234  0.00  0.00     0.152 C 
BRANCH  23  24
ATOM     24  C   UNL d   1      24.398 -16.967  -1.304  0.00  0.00    -0.043 C 
ATOM     25  C   UNL d   1      24.460 -18.262  -0.724  0.00  0.00     0.009 C 
ATOM     26  C   UNL d   1      23.245 -18.965  -0.541  0.00  0.00     0.014 C 
ATOM     27  C   UNL d   1      22.015 -18.302  -0.522  0.00  0.00    -0.007 C 
ATOM     28  C   UNL d   1      22.017 -16.930  -0.807  0.00  0.00     0.014 C 
ATOM     29  C   UNL d   1      23.185 -16.277  -1.231  0.00  0.00     0.009 C 
BRANCH  27  30
ATOM     30  C   UNL d   1      20.821 -19.033  -0.098  0.00  0.00     0.066 A 
ATOM     31  C   UNL d   1      20.655 -19.615   1.154  0.00  0.00     0.032 A 
ATOM     32  C   UNL d   1      19.535 -20.418   1.365  0.00  0.00     0.004 A 
ATOM     33  C   UNL d   1      18.617 -20.603   0.336  0.00  0.00     0.019 A 
ATOM     34  C   UNL d   1      18.836 -19.954  -0.862  0.00  0.00     0.117 A 
ATOM     35  N   UNL d   1      19.904 -19.173  -1.091  0.00  0.00    -0.260 NA
ENDBRANCH  27  30
ENDBRANCH  23  24
ENDBRANCH   1  23
BRANCH   1  36
ATOM     36  N   UNL d   1      25.418 -14.071  -2.879  0.00  0.00    -0.264 N 
ATOM     37  C   UNL d   1      25.187 -12.996  -3.722  0.00  0.00     0.376 C 
ATOM     38  O   UNL d   1      24.784 -13.129  -4.871  0.00  0.00    -0.237 OA
ATOM     39  H   UNL d   1      25.832 -13.897  -1.968  0.00  0.00     0.186 HD
BRANCH  37  40
ATOM     40  O   UNL d   1      25.411 -11.778  -3.125  0.00  0.00    -0.293 OA
BRANCH  40  41
ATOM     41  C   UNL d   1      26.447 -10.933  -3.729  0.00  0.00     0.061 C 
ATOM     42  C   UNL d   1      27.512 -11.784  -4.437  0.00  0.00     0.046 C 
ATOM     43  C   UNL d   1      25.827  -9.907  -4.692  0.00  0.00     0.046 C 
ATOM     44  C   UNL d   1      27.167 -10.136  -2.620  0.00  0.00     0.046 C 
ENDBRANCH  40  41
ENDBRANCH  37  40
ENDBRANCH   1  36
TORSDOF 15
ENDMDL
MODEL 4
REMARK VINA RESULT:   -33.302      2.709      7.004
REMARK INTER + INTRA:         -44.093
REMARK INTER:                 -37.776
REMARK INTRA:                  -6.316
REMARK CONF_INDEPENDENT:        4.474
REMARK UNBOUND:                -6.316
REMARK  15 active torsions:
REMARK  status: ('A' for Active; 'I' for Inactive)
REMARK    1  A    between atoms: C_2  and  O_5 
REMARK    2  A    between atoms: O_5  and  C_6 
REMARK       I    between atoms: C_6  and  N_8 
REMARK    3  A    between atoms: N_8  and  C_9 
REMARK    4  A    between atoms: C_9  and  C_10 
REMARK    5  A    between atoms: C_9  and  C_17 
REMARK    6  A    between atoms: C_10  and  C_11 
REMARK    7  A    between atoms: C_17  and  O_18 
REMARK    8  A    between atoms: C_17  and  C_19 
REMARK    9  A    between atoms: C_19  and  N_20 
REMARK   10  A    between atoms: N_20  and  C_21 
REMARK   11  A    between atoms: N_20  and  N_34 
REMARK   12  A    between atoms: C_21  and  C_22 
REMARK   13  A    between atoms: C_25  and  C_26 
REMARK       I    between atoms: N_34  and  C_35 
REMARK   14  A    between atoms: C_35  and  O_37 
REMARK   15  A    between atoms: O_37  and  C_38 
ROOT
ATOM      1  N   UNL d   1      26.980 -16.295  -1.129  0.00  0.00    -0.220 NA
ENDROOT
BRANCH   1   2
ATOM      2  C   UNL d   1      27.994 -17.341  -0.797  0.00  0.00     0.148 C 
BRANCH   2   3
ATOM      3  C   UNL d   1      29.321 -17.211  -1.581  0.00  0.00     0.156 C 
BRANCH   3   4
ATOM      4  C   UNL d   1      29.362 -16.766  -3.027  0.00  0.00     0.120 C 
BRANCH   4   5
ATOM      5  N   UNL d   1      28.783 -15.347  -3.192  0.00  0.00    -0.329 N 
ATOM      6  C   UNL d   1      28.241 -14.924  -4.390  0.00  0.00     0.361 C 
ATOM      7  O   UNL d   1      28.249 -15.610  -5.355  0.00  0.00    -0.238 OA
ATOM      8  H   UNL d   1      28.471 -14.885  -2.347  0.00  0.00     0.165 HD
BRANCH   6   9
ATOM      9  O   UNL d   1      27.685 -13.684  -4.515  0.00  0.00    -0.294 OA
BRANCH   9  10
ATOM     10  C   UNL d   1      26.243 -13.729  -4.123  0.00  0.00     0.061 C 
ATOM     11  C   UNL d   1      25.572 -12.604  -4.901  0.00  0.00     0.046 C 
ATOM     12  C   UNL d   1      25.984 -13.465  -2.607  0.00  0.00     0.046 C 
ATOM     13  C   UNL d   1      25.530 -15.057  -4.537  0.00  0.00     0.046 C 
ENDBRANCH   9  10
ENDBRANCH   6   9
ENDBRANCH   4   5
BRANCH   4  14
ATOM     14  C   UNL d   1      30.766 -16.977  -3.467  0.00  0.00     0.066 C 
BRANCH  14  15
ATOM     15  C   UNL d   1      30.878 -17.278  -4.914  0.00  0.00    -0.056 C 
ATOM     16  C   UNL d   1      31.316 -16.346  -5.883  0.00  0.00     0.007 C 
ATOM     17  C   UNL d   1      31.666 -16.783  -7.150  0.00  0.00     0.001 C 
ATOM     18  C   UNL d   1      31.389 -18.094  -7.495  0.00  0.00     0.000 C 
ATOM     19  C   UNL d   1      30.789 -18.965  -6.579  0.00  0.00     0.001 C 
ATOM     20  C   UNL d   1      30.582 -18.577  -5.272  0.00  0.00     0.007 C 
ENDBRANCH  14  15
ENDBRANCH   4  14
ENDBRANCH   3   4
BRANCH   3  21
ATOM     21  O   UNL d   1      29.836 -15.990  -1.208  0.00  0.00    -0.392 OA
ATOM     22  H   UNL d   1      29.114 -15.391  -0.971  0.00  0.00     0.210 HD
ENDBRANCH   3  21
ENDBRANCH   2   3
ENDBRANCH   1   2
BRANCH   1  23
ATOM     23  C   UNL d   1      25.693 -16.795  -1.789  0.00  0.00     0.152 C 
BRANCH  23  24
ATOM     24  C   UNL d   1      24.508 -17.268  -0.921  0.00  0.00    -0.043 C 
ATOM     25  C   UNL d   1      24.456 -18.579  -0.377  0.00  0.00     0.009 C 
ATOM     26  C   UNL d   1      23.190 -19.201  -0.264  0.00  0.00     0.014 C 
ATOM     27  C   UNL d   1      22.008 -18.454  -0.277  0.00  0.00    -0.007 C 
ATOM     28  C   UNL d   1      22.117 -17.079  -0.522  0.00  0.00     0.014 C 
ATOM     29  C   UNL d   1      23.343 -16.498  -0.879  0.00  0.00     0.009 C 
BRANCH  27  30
ATOM     30  C   UNL d   1      20.750 -19.111   0.076  0.00  0.00     0.066 A 
ATOM     31  C   UNL d   1      20.460 -19.639   1.330  0.00  0.00     0.032 A 
ATOM     32  C   UNL d   1      19.288 -20.379   1.478  0.00  0.00     0.004 A 
ATOM     33  C   UNL d   1      18.442 -20.556   0.388  0.00  0.00     0.019 A 
ATOM     34  C   UNL d   1      18.785 -19.962  -0.809  0.00  0.00     0.117 A 
ATOM     35  N   UNL d   1      19.905 -19.243  -0.980  0.00  0.00    -0.260 NA
ENDBRANCH  27  30
ENDBRANCH  23  24
ENDBRANCH   1  23
BRANCH   1  36
ATOM     36  N   UNL d   1      26.648 -15.560   0.106  0.00  0.00    -0.264 N 
ATOM     37  C   UNL d   1      27.261 -14.347   0.380  0.00  0.00     0.376 C 
ATOM     38  O   UNL d   1      28.090 -13.840  -0.365  0.00  0.00    -0.237 OA
ATOM     39  H   UNL d   1      26.034 -15.965   0.806  0.00  0.00     0.186 HD
BRANCH  37  40
ATOM     40  O   UNL d   1      26.812 -13.760   1.539  0.00  0.00    -0.293 OA
BRANCH  40  41
ATOM     41  C   UNL d   1      27.822 -13.473   2.563  0.00  0.00     0.061 C 
ATOM     42  C   UNL d   1      27.346 -13.926   3.952  0.00  0.00     0.046 C 
ATOM     43  C   UNL d   1      29.170 -14.120   2.202  0.00  0.00     0.046 C 
ATOM     44  C   UNL d   1      28.057 -11.950   2.638  0.00  0.00     0.046 C 
ENDBRANCH  40  41
ENDBRANCH  37  40
ENDBRANCH   1  36
TORSDOF 15
ENDMDL
MODEL 5
REMARK VINA RESULT:   -33.173      2.126      4.350
REMARK INTER + INTRA:         -42.823
REMARK INTER:                 -37.648
REMARK INTRA:                  -5.175
REMARK CONF_INDEPENDENT:        4.474
REMARK UNBOUND:                -5.175
REMARK  15 active torsions:
REMARK  status: ('A' for Active; 'I' for Inactive)
REMARK    1  A    between atoms: C_2  and  O_5 
REMARK    2  A    between atoms: O_5  and  C_6 
REMARK       I    between atoms: C_6  and  N_8 
REMARK    3  A    between atoms: N_8  and  C_9 
REMARK    4  A    between atoms: C_9  and  C_10 
REMARK    5  A    between atoms: C_9  and  C_17 
REMARK    6  A    between atoms: C_10  and  C_11 
REMARK    7  A    between atoms: C_17  and  O_18 
REMARK    8  A    between atoms: C_17  and  C_19 
REMARK    9  A    between atoms: C_19  and  N_20 
REMARK   10  A    between atoms: N_20  and  C_21 
REMARK   11  A    between atoms: N_20  and  N_34 
REMARK   12  A    between atoms: C_21  and  C_22 
REMARK   13  A    between atoms: C_25  and  C_26 
REMARK       I    between atoms: N_34  and  C_35 
REMARK   14  A    between atoms: C_35  and  O_37 
REMARK   15  A    between atoms: O_37  and  C_38 
ROOT
ATOM      1  N   UNL d   1      26.485 -15.606  -1.496  0.00  0.00    -0.220 NA
ENDROOT
BRANCH   1   2
ATOM      2  C   UNL d   1      26.640 -15.476  -0.016  0.00  0.00     0.148 C 
BRANCH   2   3
ATOM      3  C   UNL d   1      27.623 -14.365   0.425  0.00  0.00     0.156 C 
BRANCH   3   4
ATOM      4  C   UNL d   1      29.019 -14.675   0.919  0.00  0.00     0.120 C 
BRANCH   4   5
ATOM      5  N   UNL d   1      29.999 -14.868  -0.256  0.00  0.00    -0.329 N 
ATOM      6  C   UNL d   1      29.939 -15.983  -1.068  0.00  0.00     0.361 C 
ATOM      7  O   UNL d   1      29.173 -16.863  -0.864  0.00  0.00    -0.238 OA
ATOM      8  H   UNL d   1      30.414 -14.029  -0.640  0.00  0.00     0.165 HD
BRANCH   6   9
ATOM      9  O   UNL d   1      30.776 -16.124  -2.136  0.00  0.00    -0.294 OA
BRANCH   9  10
ATOM     10  C   UNL d   1      30.151 -15.529  -3.357  0.00  0.00     0.061 C 
ATOM     11  C   UNL d   1      30.226 -14.019  -3.162  0.00  0.00     0.046 C 
ATOM     12  C   UNL d   1      28.647 -15.898  -3.549  0.00  0.00     0.046 C 
ATOM     13  C   UNL d   1      30.928 -15.857  -4.672  0.00  0.00     0.046 C 
ENDBRANCH   9  10
ENDBRANCH   6   9
ENDBRANCH   4   5
BRANCH   4  14
ATOM     14  C   UNL d   1      29.341 -13.602   1.897  0.00  0.00     0.066 C 
BRANCH  14  15
ATOM     15  C   UNL d   1      29.082 -14.004   3.299  0.00  0.00    -0.056 C 
ATOM     16  C   UNL d   1      30.088 -14.442   4.193  0.00  0.00     0.007 C 
ATOM     17  C   UNL d   1      29.816 -14.520   5.550  0.00  0.00     0.001 C 
ATOM     18  C   UNL d   1      28.508 -14.355   5.971  0.00  0.00     0.000 C 
ATOM     19  C   UNL d   1      27.486 -14.097   5.051  0.00  0.00     0.001 C 
ATOM     20  C   UNL d   1      27.777 -13.867   3.723  0.00  0.00     0.007 C 
ENDBRANCH  14  15
ENDBRANCH   4  14
ENDBRANCH   3   4
BRANCH   3  21
ATOM     21  O   UNL d   1      28.162 -13.882  -0.746  0.00  0.00    -0.392 OA
ATOM     22  H   UNL d   1      28.104 -14.560  -1.434  0.00  0.00     0.210 HD
ENDBRANCH   3  21
ENDBRANCH   2   3
ENDBRANCH   1   2
BRANCH   1  23
ATOM     23  C   UNL d   1      25.566 -16.731  -1.977  0.00  0.00     0.152 C 
BRANCH  23  24
ATOM     24  C   UNL d   1      24.433 -17.251  -1.067  0.00  0.00    -0.043 C 
ATOM     25  C   UNL d   1      24.415 -18.587  -0.583  0.00  0.00     0.009 C 
ATOM     26  C   UNL d   1      23.159 -19.219  -0.429  0.00  0.00     0.014 C 
ATOM     27  C   UNL d   1      21.977 -18.479  -0.339  0.00  0.00    -0.007 C 
ATOM     28  C   UNL d   1      22.068 -17.093  -0.525  0.00  0.00     0.014 C 
ATOM     29  C   UNL d   1      23.271 -16.489  -0.923  0.00  0.00     0.009 C 
BRANCH  27  30
ATOM     30  C   UNL d   1      20.742 -19.158   0.052  0.00  0.00     0.066 A 
ATOM     31  C   UNL d   1      20.492 -19.673   1.320  0.00  0.00     0.032 A 
ATOM     32  C   UNL d   1      19.341 -20.436   1.507  0.00  0.00     0.004 A 
ATOM     33  C   UNL d   1      18.475 -20.648   0.439  0.00  0.00     0.019 A 
ATOM     34  C   UNL d   1      18.776 -20.065  -0.775  0.00  0.00     0.117 A 
ATOM     35  N   UNL d   1      19.876 -19.324  -0.982  0.00  0.00    -0.260 NA
ENDBRANCH  27  30
ENDBRANCH  23  24
ENDBRANCH   1  23
BRANCH   1  36
ATOM     36  N   UNL d   1      26.006 -14.316  -2.028  0.00  0.00    -0.264 N 
ATOM     37  C   UNL d   1      25.568 -14.223  -3.340  0.00  0.00     0.376 C 
ATOM     38  O   UNL d   1      25.560 -15.179  -4.105  0.00  0.00    -0.237 OA
ATOM     39  H   UNL d   1      26.067 -13.468  -1.473  0.00  0.00     0.186 HD
BRANCH  37  40
ATOM     40  O   UNL d   1      25.107 -12.972  -3.673  0.00  0.00    -0.293 OA
BRANCH  40  41
ATOM     41  C   UNL d   1      26.111 -11.998  -4.112  0.00  0.00     0.061 C 
ATOM     42  C   UNL d   1      27.534 -12.500  -3.818  0.00  0.00     0.046 C 
ATOM     43  C   UNL d   1      25.939 -11.665  -5.604  0.00  0.00     0.046 C 
ATOM     44  C   UNL d   1      25.924 -10.681  -3.330  0.00  0.00     0.046 C 
ENDBRANCH  40  41
ENDBRANCH  37  40
ENDBRANCH   1  36
TORSDOF 15
ENDMDL
MODEL 6
REMARK VINA RESULT:   -32.635      2.585      6.966
REMARK INTER + INTRA:         -43.125
REMARK INTER:                 -37.110
REMARK INTRA:                  -6.015
REMARK CONF_INDEPENDENT:        4.474
REMARK UNBOUND:                -6.015
REMARK  15 active torsions:
REMARK  status: ('A' for Active; 'I' for Inactive)
REMARK    1  A    between atoms: C_2  and  O_5 
REMARK    2  A    between atoms: O_5  and  C_6 
REMARK       I    between atoms: C_6  and  N_8 
REMARK    3  A    between atoms: N_8  and  C_9 
REMARK    4  A    between atoms: C_9  and  C_10 
REMARK    5  A    between atoms: C_9  and  C_17 
REMARK    6  A    between atoms: C_10  and  C_11 
REMARK    7  A    between atoms: C_17  and  O_18 
REMARK    8  A    between atoms: C_17  and  C_19 
REMARK    9  A    between atoms: C_19  and  N_20 
REMARK   10  A    between atoms: N_20  and  C_21 
REMARK   11  A    between atoms: N_20  and  N_34 
REMARK   12  A    between atoms: C_21  and  C_22 
REMARK   13  A    between atoms: C_25  and  C_26 
REMARK       I    between atoms: N_34  and  C_35 
REMARK   14  A    between atoms: C_35  and  O_37 
REMARK   15  A    between atoms: O_37  and  C_38 
ROOT
ATOM      1  N   UNL d   1      26.875 -16.096  -1.479  0.00  0.00    -0.220 NA
ENDROOT
BRANCH   1   2
ATOM      2  C   UNL d   1      28.042 -17.011  -1.299  0.00  0.00     0.148 C 
BRANCH   2   3
ATOM      3  C   UNL d   1      29.304 -16.595  -2.092  0.00  0.00     0.156 C 
BRANCH   3   4
ATOM      4  C   UNL d   1      29.225 -16.019  -3.489  0.00  0.00     0.120 C 
BRANCH   4   5
ATOM      5  N   UNL d   1      28.157 -14.910  -3.577  0.00  0.00    -0.329 N 
ATOM      6  C   UNL d   1      27.286 -14.831  -4.645  0.00  0.00     0.361 C 
ATOM      7  O   UNL d   1      27.356 -15.575  -5.563  0.00  0.00    -0.238 OA
ATOM      8  H   UNL d   1      27.866 -14.493  -2.701  0.00  0.00     0.165 HD
BRANCH   6   9
ATOM      9  O   UNL d   1      26.311 -13.878  -4.691  0.00  0.00    -0.294 OA
BRANCH   9  10
ATOM     10  C   UNL d   1      26.919 -12.540  -4.971  0.00  0.00     0.061 C 
ATOM     11  C   UNL d   1      27.425 -12.031  -3.627  0.00  0.00     0.046 C 
ATOM     12  C   UNL d   1      25.910 -11.482  -5.518  0.00  0.00     0.046 C 
ATOM     13  C   UNL d   1      28.153 -12.608  -5.926  0.00  0.00     0.046 C 
ENDBRANCH   9  10
ENDBRANCH   6   9
ENDBRANCH   4   5
BRANCH   4  14
ATOM     14  C   UNL d   1      30.619 -15.644  -3.842  0.00  0.00     0.066 C 
BRANCH  14  15
ATOM     15  C   UNL d   1      30.919 -15.834  -5.281  0.00  0.00    -0.056 C 
ATOM     16  C   UNL d   1      31.294 -14.786  -6.155  0.00  0.00     0.007 C 
ATOM     17  C   UNL d   1      31.833 -15.084  -7.396  0.00  0.00     0.001 C 
ATOM     18  C   UNL d   1      31.807 -16.398  -7.827  0.00  0.00     0.000 C 
ATOM     19  C   UNL d   1      31.268 -17.407  -7.022  0.00  0.00     0.001 C 
ATOM     20  C   UNL d   1      30.874 -17.138  -5.728  0.00  0.00     0.007 C 
ENDBRANCH  14  15
ENDBRANCH   4  14
ENDBRANCH   3   4
BRANCH   3  21
ATOM     21  O   UNL d   1      29.629 -15.347  -1.612  0.00  0.00    -0.392 OA
ATOM     22  H   UNL d   1      28.911 -14.727  -1.806  0.00  0.00     0.210 HD
ENDBRANCH   3  21
ENDBRANCH   2   3
ENDBRANCH   1   2
BRANCH   1  23
ATOM     23  C   UNL d   1      25.609 -16.730  -2.058  0.00  0.00     0.152 C 
BRANCH  23  24
ATOM     24  C   UNL d   1      24.489 -17.225  -1.118  0.00  0.00    -0.043 C 
ATOM     25  C   UNL d   1      24.480 -18.546  -0.595  0.00  0.00     0.009 C 
ATOM     26  C   UNL d   1      23.227 -19.175  -0.406  0.00  0.00     0.014 C 
ATOM     27  C   UNL d   1      22.044 -18.434  -0.323  0.00  0.00    -0.007 C 
ATOM     28  C   UNL d   1      22.130 -17.054  -0.549  0.00  0.00     0.014 C 
ATOM     29  C   UNL d   1      23.327 -16.461  -0.980  0.00  0.00     0.009 C 
BRANCH  27  30
ATOM     30  C   UNL d   1      20.816 -19.103   0.105  0.00  0.00     0.066 A 
ATOM     31  C   UNL d   1      20.611 -19.644   1.370  0.00  0.00     0.032 A 
ATOM     32  C   UNL d   1      19.456 -20.394   1.587  0.00  0.00     0.004 A 
ATOM     33  C   UNL d   1      18.543 -20.567   0.553  0.00  0.00     0.019 A 
ATOM     34  C   UNL d   1      18.803 -19.960  -0.659  0.00  0.00     0.117 A 
ATOM     35  N   UNL d   1      19.905 -19.231  -0.895  0.00  0.00    -0.260 NA
ENDBRANCH  27  30
ENDBRANCH  23  24
ENDBRANCH   1  23
BRANCH   1  36
ATOM     36  N   UNL d   1      26.566 -15.475  -0.177  0.00  0.00    -0.264 N 
ATOM     37  C   UNL d   1      26.879 -14.144   0.051  0.00  0.00     0.376 C 
ATOM     38  O   UNL d   1      27.418 -13.436  -0.791  0.00  0.00    -0.237 OA
ATOM     39  H   UNL d   1      26.198 -16.028   0.591  0.00  0.00     0.186 HD
BRANCH  37  40
ATOM     40  O   UNL d   1      26.485 -13.697   1.289  0.00  0.00    -0.293 OA
BRANCH  40  41
ATOM     41  C   UNL d   1      27.552 -13.303   2.215  0.00  0.00     0.061 C 
ATOM     42  C   UNL d   1      28.938 -13.561   1.603  0.00  0.00     0.046 C 
ATOM     43  C   UNL d   1      27.399 -11.833   2.638  0.00  0.00     0.046 C 
ATOM     44  C   UNL d   1      27.457 -14.156   3.498  0.00  0.00     0.046 C 
ENDBRANCH  40  41
ENDBRANCH  37  40
ENDBRANCH   1  36
TORSDOF 15
ENDMDL
MODEL 7
REMARK VINA RESULT:   -32.601      1.761      3.204
REMARK INTER + INTRA:         -42.216
REMARK INTER:                 -37.075
REMARK INTRA:                  -5.141
REMARK CONF_INDEPENDENT:        4.474
REMARK UNBOUND:                -5.141
REMARK  15 active torsions:
REMARK  status: ('A' for Active; 'I' for Inactive)
REMARK    1  A    between atoms: C_2  and  O_5 
REMARK    2  A    between atoms: O_5  and  C_6 
REMARK       I    between atoms: C_6  and  N_8 
REMARK    3  A    between atoms: N_8  and  C_9 
REMARK    4  A    between atoms: C_9  and  C_10 
REMARK    5  A    between atoms: C_9  and  C_17 
REMARK    6  A    between atoms: C_10  and  C_11 
REMARK    7  A    between atoms: C_17  and  O_18 
REMARK    8  A    between atoms: C_17  and  C_19 
REMARK    9  A    between atoms: C_19  and  N_20 
REMARK   10  A    between atoms: N_20  and  C_21 
REMARK   11  A    between atoms: N_20  and  N_34 
REMARK   12  A    between atoms: C_21  and  C_22 
REMARK   13  A    between atoms: C_25  and  C_26 
REMARK       I    between atoms: N_34  and  C_35 
REMARK   14  A    between atoms: C_35  and  O_37 
REMARK   15  A    between atoms: O_37  and  C_38 
ROOT
ATOM      1  N   UNL d   1      26.757 -16.405  -2.379  0.00  0.00    -0.220 NA
ENDROOT
BRANCH   1   2
ATOM      2  C   UNL d   1      27.280 -16.789  -1.033  0.00  0.00     0.148 C 
BRANCH   2   3
ATOM      3  C   UNL d   1      26.755 -15.912   0.128  0.00  0.00     0.156 C 
BRANCH   3   4
ATOM      4  C   UNL d   1      27.662 -15.403   1.227  0.00  0.00     0.120 C 
BRANCH   4   5
ATOM      5  N   UNL d   1      29.143 -15.467   0.804  0.00  0.00    -0.329 N 
ATOM      6  C   UNL d   1      29.678 -14.561  -0.090  0.00  0.00     0.361 C 
ATOM      7  O   UNL d   1      29.012 -13.733  -0.612  0.00  0.00    -0.238 OA
ATOM      8  H   UNL d   1      29.778 -15.921   1.450  0.00  0.00     0.165 HD
BRANCH   6   9
ATOM      9  O   UNL d   1      31.001 -14.594  -0.421  0.00  0.00    -0.294 OA
BRANCH   9  10
ATOM     10  C   UNL d   1      31.778 -15.295   0.647  0.00  0.00     0.061 C 
ATOM     11  C   UNL d   1      33.244 -15.025   0.330  0.00  0.00     0.046 C 
ATOM     12  C   UNL d   1      31.584 -16.844   0.665  0.00  0.00     0.046 C 
ATOM     13  C   UNL d   1      31.510 -14.731   2.079  0.00  0.00     0.046 C 
ENDBRANCH   9  10
ENDBRANCH   6   9
ENDBRANCH   4   5
BRANCH   4  14
ATOM     14  C   UNL d   1      27.123 -14.069   1.599  0.00  0.00     0.066 C 
BRANCH  14  15
ATOM     15  C   UNL d   1      27.553 -13.630   2.948  0.00  0.00    -0.056 C 
ATOM     16  C   UNL d   1      27.780 -14.513   4.031  0.00  0.00     0.007 C 
ATOM     17  C   UNL d   1      28.451 -14.062   5.156  0.00  0.00     0.001 C 
ATOM     18  C   UNL d   1      28.707 -12.708   5.273  0.00  0.00     0.000 C 
ATOM     19  C   UNL d   1      28.317 -11.815   4.270  0.00  0.00     0.001 C 
ATOM     20  C   UNL d   1      27.789 -12.278   3.082  0.00  0.00     0.007 C 
ENDBRANCH  14  15
ENDBRANCH   4  14
ENDBRANCH   3   4
BRANCH   3  21
ATOM     21  O   UNL d   1      26.693 -14.638  -0.389  0.00  0.00    -0.392 OA
ATOM     22  H   UNL d   1      27.278 -14.570  -1.157  0.00  0.00     0.210 HD
ENDBRANCH   3  21
ENDBRANCH   2   3
ENDBRANCH   1   2
BRANCH   1  23
ATOM     23  C   UNL d   1      25.255 -16.121  -2.458  0.00  0.00     0.152 C 
BRANCH  23  24
ATOM     24  C   UNL d   1      24.283 -16.809  -1.477  0.00  0.00    -0.043 C 
ATOM     25  C   UNL d   1      24.333 -18.207  -1.229  0.00  0.00     0.009 C 
ATOM     26  C   UNL d   1      23.114 -18.881  -0.982  0.00  0.00     0.014 C 
ATOM     27  C   UNL d   1      21.969 -18.190  -0.578  0.00  0.00    -0.007 C 
ATOM     28  C   UNL d   1      22.039 -16.791  -0.539  0.00  0.00     0.014 C 
ATOM     29  C   UNL d   1      23.165 -16.105  -1.019  0.00  0.00     0.009 C 
BRANCH  27  30
ATOM     30  C   UNL d   1      20.809 -18.950  -0.111  0.00  0.00     0.066 A 
ATOM     31  C   UNL d   1      20.665 -19.459   1.175  0.00  0.00     0.032 A 
ATOM     32  C   UNL d   1      19.584 -20.300   1.434  0.00  0.00     0.004 A 
ATOM     33  C   UNL d   1      18.680 -20.593   0.418  0.00  0.00     0.019 A 
ATOM     34  C   UNL d   1      18.874 -20.010  -0.818  0.00  0.00     0.117 A 
ATOM     35  N   UNL d   1      19.904 -19.196  -1.094  0.00  0.00    -0.260 NA
ENDBRANCH  27  30
ENDBRANCH  23  24
ENDBRANCH   1  23
BRANCH   1  36
ATOM     36  N   UNL d   1      27.508 -15.226  -2.851  0.00  0.00    -0.264 N 
ATOM     37  C   UNL d   1      27.532 -14.910  -4.200  0.00  0.00     0.376 C 
ATOM     38  O   UNL d   1      26.952 -15.576  -5.047  0.00  0.00    -0.237 OA
ATOM     39  H   UNL d   1      28.079 -14.681  -2.211  0.00  0.00     0.186 HD
BRANCH  37  40
ATOM     40  O   UNL d   1      28.229 -13.758  -4.476  0.00  0.00    -0.293 OA
BRANCH  40  41
ATOM     41  C   UNL d   1      27.521 -12.493  -4.254  0.00  0.00     0.061 C 
ATOM     42  C   UNL d   1      27.920 -11.444  -5.304  0.00  0.00     0.046 C 
ATOM     43  C   UNL d   1      25.999 -12.710  -4.240  0.00  0.00     0.046 C 
ATOM     44  C   UNL d   1      27.911 -11.924  -2.874  0.00  0.00     0.046 C 
ENDBRANCH  40  41
ENDBRANCH  37  40
ENDBRANCH   1  36
TORSDOF 15
ENDMDL
MODEL 8
REMARK VINA RESULT:   -32.323      2.269      4.121
REMARK INTER + INTRA:         -42.310
REMARK INTER:                 -36.798
REMARK INTRA:                  -5.513
REMARK CONF_INDEPENDENT:        4.474
REMARK UNBOUND:                -5.513
REMARK  15 active torsions:
REMARK  status: ('A' for Active; 'I' for Inactive)
REMARK    1  A    between atoms: C_2  and  O_5 
REMARK    2  A    between atoms: O_5  and  C_6 
REMARK       I    between atoms: C_6  and  N_8 
REMARK    3  A    between atoms: N_8  and  C_9 
REMARK    4  A    between atoms: C_9  and  C_10 
REMARK    5  A    between atoms: C_9  and  C_17 
REMARK    6  A    between atoms: C_10  and  C_11 
REMARK    7  A    between atoms: C_17  and  O_18 
REMARK    8  A    between atoms: C_17  and  C_19 
REMARK    9  A    between atoms: C_19  and  N_20 
REMARK   10  A    between atoms: N_20  and  C_21 
REMARK   11  A    between atoms: N_20  and  N_34 
REMARK   12  A    between atoms: C_21  and  C_22 
REMARK   13  A    between atoms: C_25  and  C_26 
REMARK       I    between atoms: N_34  and  C_35 
REMARK   14  A    between atoms: C_35  and  O_37 
REMARK   15  A    between atoms: O_37  and  C_38 
ROOT
ATOM      1  N   UNL d   1      26.612 -15.550  -1.483  0.00  0.00    -0.220 NA
ENDROOT
BRANCH   1   2
ATOM      2  C   UNL d   1      26.164 -14.784  -0.280  0.00  0.00     0.148 C 
BRANCH   2   3
ATOM      3  C   UNL d   1      27.319 -14.203   0.570  0.00  0.00     0.156 C 
BRANCH   3   4
ATOM      4  C   UNL d   1      28.483 -15.052   1.035  0.00  0.00     0.120 C 
BRANCH   4   5
ATOM      5  N   UNL d   1      29.162 -15.767  -0.151  0.00  0.00    -0.329 N 
ATOM      6  C   UNL d   1      28.886 -17.086  -0.451  0.00  0.00     0.361 C 
ATOM      7  O   UNL d   1      28.162 -17.740   0.220  0.00  0.00    -0.238 OA
ATOM      8  H   UNL d   1      29.503 -15.176  -0.899  0.00  0.00     0.165 HD
BRANCH   6   9
ATOM      9  O   UNL d   1      29.453 -17.697  -1.530  0.00  0.00    -0.294 OA
BRANCH   9  10
ATOM     10  C   UNL d   1      30.883 -18.026  -1.239  0.00  0.00     0.061 C 
ATOM     11  C   UNL d   1      31.586 -18.027  -2.591  0.00  0.00     0.046 C 
ATOM     12  C   UNL d   1      31.098 -19.434  -0.602  0.00  0.00     0.046 C 
ATOM     13  C   UNL d   1      31.597 -16.953  -0.356  0.00  0.00     0.046 C 
ENDBRANCH   9  10
ENDBRANCH   6   9
ENDBRANCH   4   5
BRANCH   4  14
ATOM     14  C   UNL d   1      29.331 -14.146   1.853  0.00  0.00     0.066 C 
BRANCH  14  15
ATOM     15  C   UNL d   1      28.999 -14.194   3.297  0.00  0.00    -0.056 C 
ATOM     16  C   UNL d   1      27.689 -14.041   3.811  0.00  0.00     0.007 C 
ATOM     17  C   UNL d   1      27.422 -14.384   5.126  0.00  0.00     0.001 C 
ATOM     18  C   UNL d   1      28.486 -14.682   5.959  0.00  0.00     0.000 C 
ATOM     19  C   UNL d   1      29.800 -14.657   5.480  0.00  0.00     0.001 C 
ATOM     20  C   UNL d   1      30.057 -14.468   4.138  0.00  0.00     0.007 C 
ENDBRANCH  14  15
ENDBRANCH   4  14
ENDBRANCH   3   4
BRANCH   3  21
ATOM     21  O   UNL d   1      28.151 -13.585  -0.336  0.00  0.00    -0.392 OA
ATOM     22  H   UNL d   1      28.014 -13.965  -1.215  0.00  0.00     0.210 HD
ENDBRANCH   3  21
ENDBRANCH   2   3
ENDBRANCH   1   2
BRANCH   1  23
ATOM     23  C   UNL d   1      25.672 -16.658  -1.959  0.00  0.00     0.152 C 
BRANCH  23  24
ATOM     24  C   UNL d   1      24.529 -17.153  -1.047  0.00  0.00    -0.043 C 
ATOM     25  C   UNL d   1      24.517 -18.468  -0.509  0.00  0.00     0.009 C 
ATOM     26  C   UNL d   1      23.265 -19.107  -0.349  0.00  0.00     0.014 C 
ATOM     27  C   UNL d   1      22.074 -18.377  -0.309  0.00  0.00    -0.007 C 
ATOM     28  C   UNL d   1      22.154 -16.999  -0.549  0.00  0.00     0.014 C 
ATOM     29  C   UNL d   1      23.357 -16.398  -0.952  0.00  0.00     0.009 C 
BRANCH  27  30
ATOM     30  C   UNL d   1      20.840 -19.053   0.090  0.00  0.00     0.066 A 
ATOM     31  C   UNL d   1      20.650 -19.692   1.311  0.00  0.00     0.032 A 
ATOM     32  C   UNL d   1      19.483 -20.432   1.493  0.00  0.00     0.004 A 
ATOM     33  C   UNL d   1      18.543 -20.500   0.469  0.00  0.00     0.019 A 
ATOM     34  C   UNL d   1      18.792 -19.800  -0.694  0.00  0.00     0.117 A 
ATOM     35  N   UNL d   1      19.905 -19.078  -0.895  0.00  0.00    -0.260 NA
ENDBRANCH  27  30
ENDBRANCH  23  24
ENDBRANCH   1  23
BRANCH   1  36
ATOM     36  N   UNL d   1      26.848 -14.595  -2.582  0.00  0.00    -0.264 N 
ATOM     37  C   UNL d   1      28.111 -14.473  -3.140  0.00  0.00     0.376 C 
ATOM     38  O   UNL d   1      29.071 -15.130  -2.756  0.00  0.00    -0.237 OA
ATOM     39  H   UNL d   1      26.116 -13.961  -2.888  0.00  0.00     0.186 HD
BRANCH  37  40
ATOM     40  O   UNL d   1      28.161 -13.582  -4.185  0.00  0.00    -0.293 OA
BRANCH  40  41
ATOM     41  C   UNL d   1      27.902 -14.125  -5.523  0.00  0.00     0.061 C 
ATOM     42  C   UNL d   1      27.778 -13.000  -6.562  0.00  0.00     0.046 C 
ATOM     43  C   UNL d   1      28.991 -15.133  -5.927  0.00  0.00     0.046 C 
ATOM     44  C   UNL d   1      26.560 -14.887  -5.516  0.00  0.00     0.046 C 
ENDBRANCH  40  41
ENDBRANCH  37  40
ENDBRANCH   1  36
TORSDOF 15
ENDMDL
MODEL 9
REMARK VINA RESULT:   -31.712      3.231      6.346
REMARK INTER + INTRA:         -42.217
REMARK INTER:                 -36.186
REMARK INTRA:                  -6.031
REMARK CONF_INDEPENDENT:        4.474
REMARK UNBOUND:                -6.031
REMARK  15 active torsions:
REMARK  status: ('A' for Active; 'I' for Inactive)
REMARK    1  A    between atoms: C_2  and  O_5 
REMARK    2  A    between atoms: O_5  and  C_6 
REMARK       I    between atoms: C_6  and  N_8 
REMARK    3  A    between atoms: N_8  and  C_9 
REMARK    4  A    between atoms: C_9  and  C_10 
REMARK    5  A    between atoms: C_9  and  C_17 
REMARK    6  A    between atoms: C_10  and  C_11 
REMARK    7  A    between atoms: C_17  and  O_18 
REMARK    8  A    between atoms: C_17  and  C_19 
REMARK    9  A    between atoms: C_19  and  N_20 
REMARK   10  A    between atoms: N_20  and  C_21 
REMARK   11  A    between atoms: N_20  and  N_34 
REMARK   12  A    between atoms: C_21  and  C_22 
REMARK   13  A    between atoms: C_25  and  C_26 
REMARK       I    between atoms: N_34  and  C_35 
REMARK   14  A    between atoms: C_35  and  O_37 
REMARK   15  A    between atoms: O_37  and  C_38 
ROOT
ATOM      1  N   UNL d   1      25.705 -14.913  -2.295  0.00  0.00    -0.220 NA
ENDROOT
BRANCH   1   2
ATOM      2  C   UNL d   1      25.114 -14.045  -3.358  0.00  0.00     0.148 C 
BRANCH   2   3
ATOM      3  C   UNL d   1      25.747 -14.233  -4.757  0.00  0.00     0.156 C 
BRANCH   3   4
ATOM      4  C   UNL d   1      27.174 -13.827  -5.057  0.00  0.00     0.120 C 
BRANCH   4   5
ATOM      5  N   UNL d   1      27.937 -14.955  -5.779  0.00  0.00    -0.329 N 
ATOM      6  C   UNL d   1      28.859 -15.741  -5.116  0.00  0.00     0.361 C 
ATOM      7  O   UNL d   1      29.145 -15.547  -3.984  0.00  0.00    -0.238 OA
ATOM      8  H   UNL d   1      27.496 -15.343  -6.603  0.00  0.00     0.165 HD
BRANCH   6   9
ATOM      9  O   UNL d   1      29.494 -16.769  -5.749  0.00  0.00    -0.294 OA
BRANCH   9  10
ATOM     10  C   UNL d   1      30.953 -16.466  -5.881  0.00  0.00     0.061 C 
ATOM     11  C   UNL d   1      31.533 -16.626  -4.481  0.00  0.00     0.046 C 
ATOM     12  C   UNL d   1      31.262 -15.008  -6.348  0.00  0.00     0.046 C 
ATOM     13  C   UNL d   1      31.712 -17.469  -6.807  0.00  0.00     0.046 C 
ENDBRANCH   9  10
ENDBRANCH   6   9
ENDBRANCH   4   5
BRANCH   4  14
ATOM     14  C   UNL d   1      27.075 -12.521  -5.760  0.00  0.00     0.066 C 
BRANCH  14  15
ATOM     15  C   UNL d   1      26.729 -11.402  -4.851  0.00  0.00    -0.056 C 
ATOM     16  C   UNL d   1      25.811 -10.376  -5.177  0.00  0.00     0.007 C 
ATOM     17  C   UNL d   1      25.329  -9.543  -4.180  0.00  0.00     0.001 C 
ATOM     18  C   UNL d   1      25.907  -9.612  -2.926  0.00  0.00     0.000 C 
ATOM     19  C   UNL d   1      26.942 -10.515  -2.662  0.00  0.00     0.001 C 
ATOM     20  C   UNL d   1      27.318 -11.449  -3.605  0.00  0.00     0.007 C 
ENDBRANCH  14  15
ENDBRANCH   4  14
ENDBRANCH   3   4
BRANCH   3  21
ATOM     21  O   UNL d   1      26.132 -15.554  -4.799  0.00  0.00    -0.392 OA
ATOM     22  H   UNL d   1      26.787 -15.724  -4.108  0.00  0.00     0.210 HD
ENDBRANCH   3  21
ENDBRANCH   2   3
ENDBRANCH   1   2
BRANCH   1  23
ATOM     23  C   UNL d   1      25.313 -16.391  -2.342  0.00  0.00     0.152 C 
BRANCH  23  24
ATOM     24  C   UNL d   1      24.284 -16.954  -1.338  0.00  0.00    -0.043 C 
ATOM     25  C   UNL d   1      24.343 -18.297  -0.879  0.00  0.00     0.009 C 
ATOM     26  C   UNL d   1      23.122 -18.962  -0.617  0.00  0.00     0.014 C 
ATOM     27  C   UNL d   1      21.937 -18.253  -0.402  0.00  0.00    -0.007 C 
ATOM     28  C   UNL d   1      21.978 -16.862  -0.569  0.00  0.00     0.014 C 
ATOM     29  C   UNL d   1      23.124 -16.223  -1.069  0.00  0.00     0.009 C 
BRANCH  27  30
ATOM     30  C   UNL d   1      20.762 -18.968   0.093  0.00  0.00     0.066 A 
ATOM     31  C   UNL d   1      20.567 -19.346   1.418  0.00  0.00     0.032 A 
ATOM     32  C   UNL d   1      19.478 -20.163   1.717  0.00  0.00     0.004 A 
ATOM     33  C   UNL d   1      18.616 -20.562   0.701  0.00  0.00     0.019 A 
ATOM     34  C   UNL d   1      18.858 -20.106  -0.579  0.00  0.00     0.117 A 
ATOM     35  N   UNL d   1      19.897 -19.317  -0.895  0.00  0.00    -0.260 NA
ENDBRANCH  27  30
ENDBRANCH  23  24
ENDBRANCH   1  23
BRANCH   1  36
ATOM     36  N   UNL d   1      27.174 -14.790  -2.357  0.00  0.00    -0.264 N 
ATOM     37  C   UNL d   1      27.866 -14.188  -1.317  0.00  0.00     0.376 C 
ATOM     38  O   UNL d   1      27.310 -13.736  -0.325  0.00  0.00    -0.237 OA
ATOM     39  H   UNL d   1      27.687 -15.067  -3.189  0.00  0.00     0.186 HD
BRANCH  37  40
ATOM     40  O   UNL d   1      29.229 -14.194  -1.496  0.00  0.00    -0.293 OA
BRANCH  40  41
ATOM     41  C   UNL d   1      29.978 -15.246  -0.802  0.00  0.00     0.061 C 
ATOM     42  C   UNL d   1      31.370 -15.436  -1.422  0.00  0.00     0.046 C 
ATOM     43  C   UNL d   1      30.079 -14.947   0.704  0.00  0.00     0.046 C 
ATOM     44  C   UNL d   1      29.229 -16.588  -0.948  0.00  0.00     0.046 C 
ENDBRANCH  40  41
ENDBRANCH  37  40
ENDBRANCH   1  36
TORSDOF 15
ENDMDL
